MODEL 1
REMARK VINA RESULT:      -8.8      0.000      0.000
REMARK  Name = 
REMARK  10 active torsions:
REMARK  status: ('A' for Active; 'I' for Inactive)
REMARK    1  A    between atoms: C_2  and  C_14
REMARK    2  A    between atoms: N_3  and  C_4
REMARK    3  A    between atoms: C_4  and  C_5
REMARK    4  A    between atoms: C_16  and  C_17
REMARK    5  A    between atoms: C_27  and  O_28
REMARK    6  A    between atoms: O_28  and  C_29
REMARK    7  A    between atoms: C_29  and  C_30
REMARK    8  A    between atoms: C_30  and  C_31
REMARK    9  A    between atoms: C_31  and  C_32
REMARK   10  A    between atoms: C_32  and  O_33
REMARK                            x       y       z     vdW  Elec       q    Type
REMARK                         _______ _______ _______ _____ _____    ______ ____
ROOT
ATOM      1  C   UNL     1       3.907   6.296  18.669  0.00  0.00    +0.000 C 
ATOM      2  C   UNL     1       2.997   7.199  18.270  0.00  0.00    +0.000 C 
ATOM      3  C   UNL     1       1.682   7.382  18.958  0.00  0.00    +0.000 C 
ATOM      4  C   UNL     1       1.620   6.565  20.244  0.00  0.00    +0.000 C 
ATOM      5  C   UNL     1       2.312   5.217  20.054  0.00  0.00    +0.000 C 
ATOM      6  O   UNL     1       3.698   5.402  19.710  0.00  0.00    +0.000 OA
ENDROOT
BRANCH   3   7
ATOM      7  C   UNL     1       1.379   8.836  19.245  0.00  0.00    +0.000 A 
ATOM      8  C   UNL     1       1.734   9.878  18.405  0.00  0.00    +0.000 A 
ATOM      9  S   UNL     1       1.293  11.403  19.006  0.00  0.00    +0.000 S 
ATOM     10  C   UNL     1       0.603  10.723  20.425  0.00  0.00    +0.000 A 
ATOM     11  C   UNL     1      -0.014  11.428  21.476  0.00  0.00    +0.000 A 
ATOM     12  C   UNL     1      -0.520  10.718  22.566  0.00  0.00    +0.000 A 
ATOM     13  C   UNL     1      -0.408   9.337  22.617  0.00  0.00    +0.000 A 
ATOM     14  C   UNL     1       0.208   8.642  21.573  0.00  0.00    +0.000 A 
ATOM     15  C   UNL     1       0.723   9.329  20.442  0.00  0.00    +0.000 A 
ENDBRANCH   3   7
BRANCH   1  17
ATOM     16  O   UNL     1       5.567   7.187  17.185  0.00  0.00    +0.000 OA
ATOM     17  C   UNL     1       5.225   6.286  17.944  0.00  0.00    +0.000 C 
ATOM     18  N   UNL     1       6.007   5.192  18.197  0.00  0.00    +0.000 N 
ATOM     19  H   UNL     1       5.655   4.429  18.767  0.00  0.00    +0.000 HD
BRANCH  18  20
ATOM     20  C   UNL     1       7.263   5.037  17.512  0.00  0.00    +0.000 C 
BRANCH  20  21
ATOM     21  C   UNL     1       7.035   4.674  16.087  0.00  0.00    +0.000 A 
ATOM     22  N   UNL     1       6.150   3.821  15.604  0.00  0.00    +0.000 NA
ATOM     23  C   UNL     1       6.287   3.881  14.238  0.00  0.00    +0.000 A 
ATOM     24  C   UNL     1       5.586   3.202  13.232  0.00  0.00    +0.000 A 
ATOM     25  C   UNL     1       5.919   3.448  11.895  0.00  0.00    +0.000 A 
ATOM     26  C   UNL     1       6.931   4.354  11.563  0.00  0.00    +0.000 A 
ATOM     27  C   UNL     1       7.641   5.045  12.554  0.00  0.00    +0.000 A 
ATOM     28  C   UNL     1       7.285   4.779  13.877  0.00  0.00    +0.000 A 
ATOM     29  N   UNL     1       7.751   5.264  15.074  0.00  0.00    +0.000 N 
ATOM     30  H   UNL     1       8.483   5.948  15.185  0.00  0.00    +0.000 HD
ENDBRANCH  20  21
ENDBRANCH  18  20
ENDBRANCH   1  17
BRANCH   5  31
ATOM     31  O   UNL     1       2.220   4.444  21.264  0.00  0.00    +0.000 OA
BRANCH  31  32
ATOM     32  C   UNL     1       1.402   3.288  21.108  0.00  0.00    +0.000 C 
BRANCH  32  33
ATOM     33  C   UNL     1       1.255   2.915  19.640  0.00  0.00    +0.000 C 
BRANCH  33  34
ATOM     34  C   UNL     1       2.386   1.966  19.252  0.00  0.00    +0.000 C 
BRANCH  34  35
ATOM     35  C   UNL     1       2.993   2.304  17.903  0.00  0.00    +0.000 C 
BRANCH  35  36
ATOM     36  O   UNL     1       4.316   2.792  18.093  0.00  0.00    +0.000 OA
ATOM     37  H   UNL     1       4.561   3.296  17.298  0.00  0.00    +0.000 HD
ENDBRANCH  35  36
ENDBRANCH  34  35
ENDBRANCH  33  34
ENDBRANCH  32  33
ENDBRANCH  31  32
ENDBRANCH   5  31
TORSDOF 10
ENDMDL
MODEL 2
REMARK VINA RESULT:      -8.4      4.732      7.595
REMARK  Name = 
REMARK  10 active torsions:
REMARK  status: ('A' for Active; 'I' for Inactive)
REMARK    1  A    between atoms: C_2  and  C_14
REMARK    2  A    between atoms: N_3  and  C_4
REMARK    3  A    between atoms: C_4  and  C_5
REMARK    4  A    between atoms: C_16  and  C_17
REMARK    5  A    between atoms: C_27  and  O_28
REMARK    6  A    between atoms: O_28  and  C_29
REMARK    7  A    between atoms: C_29  and  C_30
REMARK    8  A    between atoms: C_30  and  C_31
REMARK    9  A    between atoms: C_31  and  C_32
REMARK   10  A    between atoms: C_32  and  O_33
REMARK                            x       y       z     vdW  Elec       q    Type
REMARK                         _______ _______ _______ _____ _____    ______ ____
ROOT
ATOM      1  C   UNL     1       6.922   6.290  17.256  0.00  0.00    +0.000 C 
ATOM      2  C   UNL     1       5.634   6.136  17.603  0.00  0.00    +0.000 C 
ATOM      3  C   UNL     1       4.636   5.451  16.727  0.00  0.00    +0.000 C 
ATOM      4  C   UNL     1       5.317   4.805  15.525  0.00  0.00    +0.000 C 
ATOM      5  C   UNL     1       6.447   5.693  15.011  0.00  0.00    +0.000 C 
ATOM      6  O   UNL     1       7.442   5.892  16.033  0.00  0.00    +0.000 OA
ENDROOT
BRANCH   3   7
ATOM      7  C   UNL     1       3.816   4.426  17.479  0.00  0.00    +0.000 A 
ATOM      8  C   UNL     1       3.743   3.088  17.130  0.00  0.00    +0.000 A 
ATOM      9  S   UNL     1       2.716   2.188  18.137  0.00  0.00    +0.000 S 
ATOM     10  C   UNL     1       2.326   3.563  19.090  0.00  0.00    +0.000 A 
ATOM     11  C   UNL     1       1.468   3.593  20.205  0.00  0.00    +0.000 A 
ATOM     12  C   UNL     1       1.254   4.803  20.866  0.00  0.00    +0.000 A 
ATOM     13  C   UNL     1       1.872   5.963  20.425  0.00  0.00    +0.000 A 
ATOM     14  C   UNL     1       2.722   5.929  19.316  0.00  0.00    +0.000 A 
ATOM     15  C   UNL     1       2.974   4.713  18.626  0.00  0.00    +0.000 A 
ENDBRANCH   3   7
BRANCH   1  17
ATOM     16  O   UNL     1       8.239   6.306  19.261  0.00  0.00    +0.000 OA
ATOM     17  C   UNL     1       7.836   6.915  18.276  0.00  0.00    +0.000 C 
ATOM     18  N   UNL     1       8.176   8.215  18.016  0.00  0.00    +0.000 N 
ATOM     19  H   UNL     1       7.756   8.710  17.234  0.00  0.00    +0.000 HD
BRANCH  18  20
ATOM     20  C   UNL     1       8.992   8.941  18.952  0.00  0.00    +0.000 C 
BRANCH  20  21
ATOM     21  C   UNL     1       8.922  10.402  18.677  0.00  0.00    +0.000 A 
ATOM     22  N   UNL     1       8.115  11.027  17.838  0.00  0.00    +0.000 NA
ATOM     23  C   UNL     1       8.389  12.365  17.991  0.00  0.00    +0.000 A 
ATOM     24  C   UNL     1       7.816  13.479  17.362  0.00  0.00    +0.000 A 
ATOM     25  C   UNL     1       8.276  14.756  17.703  0.00  0.00    +0.000 A 
ATOM     26  C   UNL     1       9.290  14.924  18.651  0.00  0.00    +0.000 A 
ATOM     27  C   UNL     1       9.875  13.823  19.291  0.00  0.00    +0.000 A 
ATOM     28  C   UNL     1       9.393  12.563  18.932  0.00  0.00    +0.000 A 
ATOM     29  N   UNL     1       9.720  11.297  19.347  0.00  0.00    +0.000 N 
ATOM     30  H   UNL     1      10.416  11.067  20.039  0.00  0.00    +0.000 HD
ENDBRANCH  20  21
ENDBRANCH  18  20
ENDBRANCH   1  17
BRANCH   5  31
ATOM     31  O   UNL     1       7.061   5.088  13.859  0.00  0.00    +0.000 OA
BRANCH  31  32
ATOM     32  C   UNL     1       6.498   3.815  13.551  0.00  0.00    +0.000 C 
BRANCH  32  33
ATOM     33  C   UNL     1       6.296   3.654  12.051  0.00  0.00    +0.000 C 
BRANCH  33  34
ATOM     34  C   UNL     1       5.430   2.424  11.795  0.00  0.00    +0.000 C 
BRANCH  34  35
ATOM     35  C   UNL     1       6.119   1.400  10.911  0.00  0.00    +0.000 C 
BRANCH  35  36
ATOM     36  O   UNL     1       7.437   1.173  11.396  0.00  0.00    +0.000 OA
ATOM     37  H   UNL     1       7.370   0.978  12.347  0.00  0.00    +0.000 HD
ENDBRANCH  35  36
ENDBRANCH  34  35
ENDBRANCH  33  34
ENDBRANCH  32  33
ENDBRANCH  31  32
ENDBRANCH   5  31
TORSDOF 10
ENDMDL
MODEL 3
REMARK VINA RESULT:      -8.1      4.687      7.546
REMARK  Name = 
REMARK  10 active torsions:
REMARK  status: ('A' for Active; 'I' for Inactive)
REMARK    1  A    between atoms: C_2  and  C_14
REMARK    2  A    between atoms: N_3  and  C_4
REMARK    3  A    between atoms: C_4  and  C_5
REMARK    4  A    between atoms: C_16  and  C_17
REMARK    5  A    between atoms: C_27  and  O_28
REMARK    6  A    between atoms: O_28  and  C_29
REMARK    7  A    between atoms: C_29  and  C_30
REMARK    8  A    between atoms: C_30  and  C_31
REMARK    9  A    between atoms: C_31  and  C_32
REMARK   10  A    between atoms: C_32  and  O_33
REMARK                            x       y       z     vdW  Elec       q    Type
REMARK                         _______ _______ _______ _____ _____    ______ ____
ROOT
ATOM      1  C   UNL     1       6.878   6.179  17.184  0.00  0.00    +0.000 C 
ATOM      2  C   UNL     1       5.591   6.050  17.544  0.00  0.00    +0.000 C 
ATOM      3  C   UNL     1       4.575   5.364  16.687  0.00  0.00    +0.000 C 
ATOM      4  C   UNL     1       5.237   4.688  15.491  0.00  0.00    +0.000 C 
ATOM      5  C   UNL     1       6.376   5.552  14.953  0.00  0.00    +0.000 C 
ATOM      6  O   UNL     1       7.382   5.753  15.964  0.00  0.00    +0.000 OA
ENDROOT
BRANCH   3   7
ATOM      7  C   UNL     1       3.747   4.365  17.463  0.00  0.00    +0.000 A 
ATOM      8  C   UNL     1       3.658   3.021  17.141  0.00  0.00    +0.000 A 
ATOM      9  S   UNL     1       2.625   2.153  18.171  0.00  0.00    +0.000 S 
ATOM     10  C   UNL     1       2.254   3.552  19.097  0.00  0.00    +0.000 A 
ATOM     11  C   UNL     1       1.400   3.614  20.213  0.00  0.00    +0.000 A 
ATOM     12  C   UNL     1       1.202   4.840  20.850  0.00  0.00    +0.000 A 
ATOM     13  C   UNL     1       1.831   5.983  20.384  0.00  0.00    +0.000 A 
ATOM     14  C   UNL     1       2.677   5.917  19.273  0.00  0.00    +0.000 A 
ATOM     15  C   UNL     1       2.913   4.685  18.607  0.00  0.00    +0.000 A 
ENDBRANCH   3   7
BRANCH   1  17
ATOM     16  O   UNL     1       8.260   6.190  19.144  0.00  0.00    +0.000 OA
ATOM     17  C   UNL     1       7.809   6.807  18.185  0.00  0.00    +0.000 C 
ATOM     18  N   UNL     1       8.107   8.120  17.941  0.00  0.00    +0.000 N 
ATOM     19  H   UNL     1       7.649   8.620  17.184  0.00  0.00    +0.000 HD
BRANCH  18  20
ATOM     20  C   UNL     1       8.936   8.849  18.864  0.00  0.00    +0.000 C 
BRANCH  20  21
ATOM     21  C   UNL     1       8.836  10.311  18.608  0.00  0.00    +0.000 A 
ATOM     22  N   UNL     1       8.077  10.924  17.717  0.00  0.00    +0.000 NA
ATOM     23  C   UNL     1       8.291  12.268  17.912  0.00  0.00    +0.000 A 
ATOM     24  C   UNL     1       7.730  13.373  17.257  0.00  0.00    +0.000 A 
ATOM     25  C   UNL     1       8.117  14.658  17.654  0.00  0.00    +0.000 A 
ATOM     26  C   UNL     1       9.045  14.843  18.683  0.00  0.00    +0.000 A 
ATOM     27  C   UNL     1       9.615  13.751  19.350  0.00  0.00    +0.000 A 
ATOM     28  C   UNL     1       9.209  12.483  18.934  0.00  0.00    +0.000 A 
ATOM     29  N   UNL     1       9.546  11.220  19.354  0.00  0.00    +0.000 N 
ATOM     30  H   UNL     1      10.192  11.002  20.096  0.00  0.00    +0.000 HD
ENDBRANCH  20  21
ENDBRANCH  18  20
ENDBRANCH   1  17
BRANCH   5  31
ATOM     31  O   UNL     1       6.971   4.918  13.806  0.00  0.00    +0.000 OA
BRANCH  31  32
ATOM     32  C   UNL     1       6.325   3.694  13.467  0.00  0.00    +0.000 C 
BRANCH  32  33
ATOM     33  C   UNL     1       5.992   3.644  11.983  0.00  0.00    +0.000 C 
BRANCH  33  34
ATOM     34  C   UNL     1       4.545   3.188  11.814  0.00  0.00    +0.000 C 
BRANCH  34  35
ATOM     35  C   UNL     1       3.905   3.738  10.552  0.00  0.00    +0.000 C 
BRANCH  35  36
ATOM     36  O   UNL     1       2.751   2.967  10.237  0.00  0.00    +0.000 OA
ATOM     37  H   UNL     1       2.975   2.400   9.479  0.00  0.00    +0.000 HD
ENDBRANCH  35  36
ENDBRANCH  34  35
ENDBRANCH  33  34
ENDBRANCH  32  33
ENDBRANCH  31  32
ENDBRANCH   5  31
TORSDOF 10
ENDMDL
MODEL 4
REMARK VINA RESULT:      -7.9      3.463      5.234
REMARK  Name = 
REMARK  10 active torsions:
REMARK  status: ('A' for Active; 'I' for Inactive)
REMARK    1  A    between atoms: C_2  and  C_14
REMARK    2  A    between atoms: N_3  and  C_4
REMARK    3  A    between atoms: C_4  and  C_5
REMARK    4  A    between atoms: C_16  and  C_17
REMARK    5  A    between atoms: C_27  and  O_28
REMARK    6  A    between atoms: O_28  and  C_29
REMARK    7  A    between atoms: C_29  and  C_30
REMARK    8  A    between atoms: C_30  and  C_31
REMARK    9  A    between atoms: C_31  and  C_32
REMARK   10  A    between atoms: C_32  and  O_33
REMARK                            x       y       z     vdW  Elec       q    Type
REMARK                         _______ _______ _______ _____ _____    ______ ____
ROOT
ATOM      1  C   UNL     1       4.836   5.375  17.770  0.00  0.00    +0.000 C 
ATOM      2  C   UNL     1       4.114   6.500  17.899  0.00  0.00    +0.000 C 
ATOM      3  C   UNL     1       2.619   6.504  17.921  0.00  0.00    +0.000 C 
ATOM      4  C   UNL     1       2.070   5.083  17.976  0.00  0.00    +0.000 C 
ATOM      5  C   UNL     1       2.915   4.150  17.111  0.00  0.00    +0.000 C 
ATOM      6  O   UNL     1       4.277   4.120  17.580  0.00  0.00    +0.000 OA
ENDROOT
BRANCH   3   7
ATOM      7  C   UNL     1       2.061   7.327  19.061  0.00  0.00    +0.000 A 
ATOM      8  C   UNL     1       1.756   6.809  20.309  0.00  0.00    +0.000 A 
ATOM      9  S   UNL     1       1.113   7.964  21.373  0.00  0.00    +0.000 S 
ATOM     10  C   UNL     1       1.220   9.213  20.198  0.00  0.00    +0.000 A 
ATOM     11  C   UNL     1       0.847  10.559  20.371  0.00  0.00    +0.000 A 
ATOM     12  C   UNL     1       0.994  11.447  19.304  0.00  0.00    +0.000 A 
ATOM     13  C   UNL     1       1.493  11.008  18.088  0.00  0.00    +0.000 A 
ATOM     14  C   UNL     1       1.860   9.669  17.921  0.00  0.00    +0.000 A 
ATOM     15  C   UNL     1       1.737   8.740  18.987  0.00  0.00    +0.000 A 
ENDBRANCH   3   7
BRANCH   1  17
ATOM     16  O   UNL     1       7.090   4.557  17.705  0.00  0.00    +0.000 OA
ATOM     17  C   UNL     1       6.332   5.508  17.860  0.00  0.00    +0.000 C 
ATOM     18  N   UNL     1       6.776   6.775  18.130  0.00  0.00    +0.000 N 
ATOM     19  H   UNL     1       6.116   7.519  18.333  0.00  0.00    +0.000 HD
BRANCH  18  20
ATOM     20  C   UNL     1       8.184   7.016  18.304  0.00  0.00    +0.000 C 
BRANCH  20  21
ATOM     21  C   UNL     1       8.454   8.477  18.383  0.00  0.00    +0.000 A 
ATOM     22  N   UNL     1       8.034   9.421  17.560  0.00  0.00    +0.000 NA
ATOM     23  C   UNL     1       8.490  10.604  18.090  0.00  0.00    +0.000 A 
ATOM     24  C   UNL     1       8.319  11.919  17.637  0.00  0.00    +0.000 A 
ATOM     25  C   UNL     1       8.889  12.965  18.373  0.00  0.00    +0.000 A 
ATOM     26  C   UNL     1       9.616  12.708  19.539  0.00  0.00    +0.000 A 
ATOM     27  C   UNL     1       9.796  11.400  20.009  0.00  0.00    +0.000 A 
ATOM     28  C   UNL     1       9.215  10.380  19.255  0.00  0.00    +0.000 A 
ATOM     29  N   UNL     1       9.183   9.017  19.415  0.00  0.00    +0.000 N 
ATOM     30  H   UNL     1       9.610   8.504  20.170  0.00  0.00    +0.000 HD
ENDBRANCH  20  21
ENDBRANCH  18  20
ENDBRANCH   1  17
BRANCH   5  31
ATOM     31  O   UNL     1       2.369   2.819  17.147  0.00  0.00    +0.000 OA
BRANCH  31  32
ATOM     32  C   UNL     1       2.252   2.316  18.476  0.00  0.00    +0.000 C 
BRANCH  32  33
ATOM     33  C   UNL     1       0.806   2.346  18.947  0.00  0.00    +0.000 C 
BRANCH  33  34
ATOM     34  C   UNL     1       0.727   3.122  20.260  0.00  0.00    +0.000 C 
BRANCH  34  35
ATOM     35  C   UNL     1       1.993   2.997  21.088  0.00  0.00    +0.000 C 
BRANCH  35  36
ATOM     36  O   UNL     1       1.688   2.346  22.316  0.00  0.00    +0.000 OA
ATOM     37  H   UNL     1       1.053   2.906  22.795  0.00  0.00    +0.000 HD
ENDBRANCH  35  36
ENDBRANCH  34  35
ENDBRANCH  33  34
ENDBRANCH  32  33
ENDBRANCH  31  32
ENDBRANCH   5  31
TORSDOF 10
ENDMDL
MODEL 5
REMARK VINA RESULT:      -7.9      1.507      1.695
REMARK  Name = 
REMARK  10 active torsions:
REMARK  status: ('A' for Active; 'I' for Inactive)
REMARK    1  A    between atoms: C_2  and  C_14
REMARK    2  A    between atoms: N_3  and  C_4
REMARK    3  A    between atoms: C_4  and  C_5
REMARK    4  A    between atoms: C_16  and  C_17
REMARK    5  A    between atoms: C_27  and  O_28
REMARK    6  A    between atoms: O_28  and  C_29
REMARK    7  A    between atoms: C_29  and  C_30
REMARK    8  A    between atoms: C_30  and  C_31
REMARK    9  A    between atoms: C_31  and  C_32
REMARK   10  A    between atoms: C_32  and  O_33
REMARK                            x       y       z     vdW  Elec       q    Type
REMARK                         _______ _______ _______ _____ _____    ______ ____
ROOT
ATOM      1  C   UNL     1       3.815   6.959  18.148  0.00  0.00    +0.000 C 
ATOM      2  C   UNL     1       3.088   7.926  17.566  0.00  0.00    +0.000 C 
ATOM      3  C   UNL     1       1.780   8.398  18.116  0.00  0.00    +0.000 C 
ATOM      4  C   UNL     1       1.509   7.784  19.484  0.00  0.00    +0.000 C 
ATOM      5  C   UNL     1       1.985   6.333  19.522  0.00  0.00    +0.000 C 
ATOM      6  O   UNL     1       3.402   6.258  19.272  0.00  0.00    +0.000 OA
ENDROOT
BRANCH   3   7
ATOM      7  C   UNL     1       1.698   9.907  18.191  0.00  0.00    +0.000 A 
ATOM      8  C   UNL     1       2.774  10.750  17.972  0.00  0.00    +0.000 A 
ATOM      9  S   UNL     1       2.387  12.392  18.162  0.00  0.00    +0.000 S 
ATOM     10  C   UNL     1       0.751  12.036  18.546  0.00  0.00    +0.000 A 
ATOM     11  C   UNL     1      -0.261  12.969  18.843  0.00  0.00    +0.000 A 
ATOM     12  C   UNL     1      -1.544  12.508  19.142  0.00  0.00    +0.000 A 
ATOM     13  C   UNL     1      -1.816  11.149  19.155  0.00  0.00    +0.000 A 
ATOM     14  C   UNL     1      -0.808  10.226  18.863  0.00  0.00    +0.000 A 
ATOM     15  C   UNL     1       0.507  10.659  18.541  0.00  0.00    +0.000 A 
ENDBRANCH   3   7
BRANCH   1  17
ATOM     16  O   UNL     1       5.621   7.296  16.607  0.00  0.00    +0.000 OA
ATOM     17  C   UNL     1       5.156   6.651  17.540  0.00  0.00    +0.000 C 
ATOM     18  N   UNL     1       5.812   5.593  18.111  0.00  0.00    +0.000 N 
ATOM     19  H   UNL     1       5.358   5.033  18.827  0.00  0.00    +0.000 HD
BRANCH  18  20
ATOM     20  C   UNL     1       7.074   5.160  17.574  0.00  0.00    +0.000 C 
BRANCH  20  21
ATOM     21  C   UNL     1       6.923   4.763  16.148  0.00  0.00    +0.000 A 
ATOM     22  N   UNL     1       6.094   3.867  15.644  0.00  0.00    +0.000 NA
ATOM     23  C   UNL     1       6.287   3.908  14.284  0.00  0.00    +0.000 A 
ATOM     24  C   UNL     1       5.658   3.183  13.263  0.00  0.00    +0.000 A 
ATOM     25  C   UNL     1       6.038   3.420  11.936  0.00  0.00    +0.000 A 
ATOM     26  C   UNL     1       7.026   4.360  11.630  0.00  0.00    +0.000 A 
ATOM     27  C   UNL     1       7.664   5.096  12.637  0.00  0.00    +0.000 A 
ATOM     28  C   UNL     1       7.263   4.840  13.948  0.00  0.00    +0.000 A 
ATOM     29  N   UNL     1       7.657   5.364  15.154  0.00  0.00    +0.000 N 
ATOM     30  H   UNL     1       8.355   6.080  15.284  0.00  0.00    +0.000 HD
ENDBRANCH  20  21
ENDBRANCH  18  20
ENDBRANCH   1  17
BRANCH   5  31
ATOM     31  O   UNL     1       1.697   5.756  20.808  0.00  0.00    +0.000 OA
BRANCH  31  32
ATOM     32  C   UNL     1       2.290   4.471  20.971  0.00  0.00    +0.000 C 
BRANCH  32  33
ATOM     33  C   UNL     1       1.459   3.393  20.291  0.00  0.00    +0.000 C 
BRANCH  33  34
ATOM     34  C   UNL     1       2.385   2.484  19.487  0.00  0.00    +0.000 C 
BRANCH  34  35
ATOM     35  C   UNL     1       2.040   2.464  18.008  0.00  0.00    +0.000 C 
BRANCH  35  36
ATOM     36  O   UNL     1       1.161   3.544  17.717  0.00  0.00    +0.000 OA
ATOM     37  H   UNL     1       1.621   4.369  17.952  0.00  0.00    +0.000 HD
ENDBRANCH  35  36
ENDBRANCH  34  35
ENDBRANCH  33  34
ENDBRANCH  32  33
ENDBRANCH  31  32
ENDBRANCH   5  31
TORSDOF 10
ENDMDL
MODEL 6
REMARK VINA RESULT:      -7.8      3.889      5.426
REMARK  Name = 
REMARK  10 active torsions:
REMARK  status: ('A' for Active; 'I' for Inactive)
REMARK    1  A    between atoms: C_2  and  C_14
REMARK    2  A    between atoms: N_3  and  C_4
REMARK    3  A    between atoms: C_4  and  C_5
REMARK    4  A    between atoms: C_16  and  C_17
REMARK    5  A    between atoms: C_27  and  O_28
REMARK    6  A    between atoms: O_28  and  C_29
REMARK    7  A    between atoms: C_29  and  C_30
REMARK    8  A    between atoms: C_30  and  C_31
REMARK    9  A    between atoms: C_31  and  C_32
REMARK   10  A    between atoms: C_32  and  O_33
REMARK                            x       y       z     vdW  Elec       q    Type
REMARK                         _______ _______ _______ _____ _____    ______ ____
ROOT
ATOM      1  C   UNL     1       4.959   6.680  17.858  0.00  0.00    +0.000 C 
ATOM      2  C   UNL     1       3.931   7.470  17.505  0.00  0.00    +0.000 C 
ATOM      3  C   UNL     1       2.553   7.301  18.059  0.00  0.00    +0.000 C 
ATOM      4  C   UNL     1       2.539   6.273  19.185  0.00  0.00    +0.000 C 
ATOM      5  C   UNL     1       3.485   5.118  18.865  0.00  0.00    +0.000 C 
ATOM      6  O   UNL     1       4.836   5.595  18.714  0.00  0.00    +0.000 OA
ENDROOT
BRANCH   3   7
ATOM      7  C   UNL     1       1.959   8.608  18.535  0.00  0.00    +0.000 A 
ATOM      8  C   UNL     1       1.952   9.771  17.783  0.00  0.00    +0.000 A 
ATOM      9  S   UNL     1       1.249  11.087  18.592  0.00  0.00    +0.000 S 
ATOM     10  C   UNL     1       0.922  10.145  19.991  0.00  0.00    +0.000 A 
ATOM     11  C   UNL     1       0.296  10.589  21.171  0.00  0.00    +0.000 A 
ATOM     12  C   UNL     1       0.112   9.689  22.222  0.00  0.00    +0.000 A 
ATOM     13  C   UNL     1       0.548   8.378  22.109  0.00  0.00    +0.000 A 
ATOM     14  C   UNL     1       1.171   7.943  20.936  0.00  0.00    +0.000 A 
ATOM     15  C   UNL     1       1.364   8.826  19.840  0.00  0.00    +0.000 A 
ENDBRANCH   3   7
BRANCH   1  17
ATOM     16  O   UNL     1       6.832   6.380  16.391  0.00  0.00    +0.000 OA
ATOM     17  C   UNL     1       6.311   7.024  17.295  0.00  0.00    +0.000 C 
ATOM     18  N   UNL     1       6.911   8.109  17.875  0.00  0.00    +0.000 N 
ATOM     19  H   UNL     1       6.485   8.565  18.676  0.00  0.00    +0.000 HD
BRANCH  18  20
ATOM     20  C   UNL     1       8.235   8.497  17.466  0.00  0.00    +0.000 C 
BRANCH  20  21
ATOM     21  C   UNL     1       8.656   9.733  18.179  0.00  0.00    +0.000 A 
ATOM     22  N   UNL     1       8.585  10.978  17.744  0.00  0.00    +0.000 NA
ATOM     23  C   UNL     1       9.034  11.759  18.783  0.00  0.00    +0.000 A 
ATOM     24  C   UNL     1       9.152  13.152  18.876  0.00  0.00    +0.000 A 
ATOM     25  C   UNL     1       9.640  13.708  20.065  0.00  0.00    +0.000 A 
ATOM     26  C   UNL     1      10.004  12.894  21.141  0.00  0.00    +0.000 A 
ATOM     27  C   UNL     1       9.891  11.499  21.067  0.00  0.00    +0.000 A 
ATOM     28  C   UNL     1       9.401  10.975  19.871  0.00  0.00    +0.000 A 
ATOM     29  N   UNL     1       9.158   9.689  19.456  0.00  0.00    +0.000 N 
ATOM     30  H   UNL     1       9.308   8.857  20.006  0.00  0.00    +0.000 HD
ENDBRANCH  20  21
ENDBRANCH  18  20
ENDBRANCH   1  17
BRANCH   5  31
ATOM     31  O   UNL     1       3.440   4.140  19.920  0.00  0.00    +0.000 OA
BRANCH  31  32
ATOM     32  C   UNL     1       2.454   4.448  20.902  0.00  0.00    +0.000 C 
BRANCH  32  33
ATOM     33  C   UNL     1       1.445   3.317  21.037  0.00  0.00    +0.000 C 
BRANCH  33  34
ATOM     34  C   UNL     1       0.612   3.238  19.760  0.00  0.00    +0.000 C 
BRANCH  34  35
ATOM     35  C   UNL     1       0.805   1.927  19.019  0.00  0.00    +0.000 C 
BRANCH  35  36
ATOM     36  O   UNL     1       2.067   1.942  18.362  0.00  0.00    +0.000 OA
ATOM     37  H   UNL     1       2.728   1.596  18.987  0.00  0.00    +0.000 HD
ENDBRANCH  35  36
ENDBRANCH  34  35
ENDBRANCH  33  34
ENDBRANCH  32  33
ENDBRANCH  31  32
ENDBRANCH   5  31
TORSDOF 10
ENDMDL
MODEL 7
REMARK VINA RESULT:      -7.7      1.522      1.971
REMARK  Name = 
REMARK  10 active torsions:
REMARK  status: ('A' for Active; 'I' for Inactive)
REMARK    1  A    between atoms: C_2  and  C_14
REMARK    2  A    between atoms: N_3  and  C_4
REMARK    3  A    between atoms: C_4  and  C_5
REMARK    4  A    between atoms: C_16  and  C_17
REMARK    5  A    between atoms: C_27  and  O_28
REMARK    6  A    between atoms: O_28  and  C_29
REMARK    7  A    between atoms: C_29  and  C_30
REMARK    8  A    between atoms: C_30  and  C_31
REMARK    9  A    between atoms: C_31  and  C_32
REMARK   10  A    between atoms: C_32  and  O_33
REMARK                            x       y       z     vdW  Elec       q    Type
REMARK                         _______ _______ _______ _____ _____    ______ ____
ROOT
ATOM      1  C   UNL     1       3.829   7.007  18.038  0.00  0.00    +0.000 C 
ATOM      2  C   UNL     1       3.042   7.956  17.506  0.00  0.00    +0.000 C 
ATOM      3  C   UNL     1       1.755   8.387  18.133  0.00  0.00    +0.000 C 
ATOM      4  C   UNL     1       1.581   7.756  19.511  0.00  0.00    +0.000 C 
ATOM      5  C   UNL     1       2.100   6.320  19.510  0.00  0.00    +0.000 C 
ATOM      6  O   UNL     1       3.501   6.288  19.178  0.00  0.00    +0.000 OA
ENDROOT
BRANCH   3   7
ATOM      7  C   UNL     1       1.634   9.892  18.225  0.00  0.00    +0.000 A 
ATOM      8  C   UNL     1       2.701  10.762  18.080  0.00  0.00    +0.000 A 
ATOM      9  S   UNL     1       2.267  12.391  18.270  0.00  0.00    +0.000 S 
ATOM     10  C   UNL     1       0.620  11.994  18.555  0.00  0.00    +0.000 A 
ATOM     11  C   UNL     1      -0.428  12.900  18.805  0.00  0.00    +0.000 A 
ATOM     12  C   UNL     1      -1.715  12.406  19.023  0.00  0.00    +0.000 A 
ATOM     13  C   UNL     1      -1.957  11.042  19.002  0.00  0.00    +0.000 A 
ATOM     14  C   UNL     1      -0.912  10.146  18.756  0.00  0.00    +0.000 A 
ATOM     15  C   UNL     1       0.408  10.612  18.516  0.00  0.00    +0.000 A 
ENDBRANCH   3   7
BRANCH   1  17
ATOM     16  O   UNL     1       5.482   7.329  16.331  0.00  0.00    +0.000 OA
ATOM     17  C   UNL     1       5.141   6.741  17.352  0.00  0.00    +0.000 C 
ATOM     18  N   UNL     1       5.919   5.791  17.956  0.00  0.00    +0.000 N 
ATOM     19  H   UNL     1       5.566   5.268  18.752  0.00  0.00    +0.000 HD
BRANCH  18  20
ATOM     20  C   UNL     1       7.168   5.403  17.357  0.00  0.00    +0.000 C 
BRANCH  20  21
ATOM     21  C   UNL     1       6.966   5.031  15.931  0.00  0.00    +0.000 A 
ATOM     22  N   UNL     1       7.709   5.376  14.895  0.00  0.00    +0.000 NA
ATOM     23  C   UNL     1       7.153   4.735  13.813  0.00  0.00    +0.000 A 
ATOM     24  C   UNL     1       7.548   4.732  12.468  0.00  0.00    +0.000 A 
ATOM     25  C   UNL     1       6.804   3.982  11.549  0.00  0.00    +0.000 A 
ATOM     26  C   UNL     1       5.686   3.250  11.959  0.00  0.00    +0.000 A 
ATOM     27  C   UNL     1       5.277   3.240  13.299  0.00  0.00    +0.000 A 
ATOM     28  C   UNL     1       6.039   3.994  14.191  0.00  0.00    +0.000 A 
ATOM     29  N   UNL     1       5.937   4.207  15.543  0.00  0.00    +0.000 N 
ATOM     30  H   UNL     1       5.236   3.810  16.149  0.00  0.00    +0.000 HD
ENDBRANCH  20  21
ENDBRANCH  18  20
ENDBRANCH   1  17
BRANCH   5  31
ATOM     31  O   UNL     1       1.902   5.727  20.806  0.00  0.00    +0.000 OA
BRANCH  31  32
ATOM     32  C   UNL     1       2.225   4.339  20.822  0.00  0.00    +0.000 C 
BRANCH  32  33
ATOM     33  C   UNL     1       1.001   3.489  20.513  0.00  0.00    +0.000 C 
BRANCH  33  34
ATOM     34  C   UNL     1       1.379   2.427  19.484  0.00  0.00    +0.000 C 
BRANCH  34  35
ATOM     35  C   UNL     1       2.464   2.898  18.533  0.00  0.00    +0.000 C 
BRANCH  35  36
ATOM     36  O   UNL     1       1.862   3.372  17.334  0.00  0.00    +0.000 OA
ATOM     37  H   UNL     1       2.382   3.027  16.588  0.00  0.00    +0.000 HD
ENDBRANCH  35  36
ENDBRANCH  34  35
ENDBRANCH  33  34
ENDBRANCH  32  33
ENDBRANCH  31  32
ENDBRANCH   5  31
TORSDOF 10
ENDMDL
MODEL 8
REMARK VINA RESULT:      -7.7      4.225      7.569
REMARK  Name = 
REMARK  10 active torsions:
REMARK  status: ('A' for Active; 'I' for Inactive)
REMARK    1  A    between atoms: C_2  and  C_14
REMARK    2  A    between atoms: N_3  and  C_4
REMARK    3  A    between atoms: C_4  and  C_5
REMARK    4  A    between atoms: C_16  and  C_17
REMARK    5  A    between atoms: C_27  and  O_28
REMARK    6  A    between atoms: O_28  and  C_29
REMARK    7  A    between atoms: C_29  and  C_30
REMARK    8  A    between atoms: C_30  and  C_31
REMARK    9  A    between atoms: C_31  and  C_32
REMARK   10  A    between atoms: C_32  and  O_33
REMARK                            x       y       z     vdW  Elec       q    Type
REMARK                         _______ _______ _______ _____ _____    ______ ____
ROOT
ATOM      1  C   UNL     1       0.118  11.264  21.538  0.00  0.00    +0.000 C 
ATOM      2  C   UNL     1      -1.214  11.435  21.494  0.00  0.00    +0.000 C 
ATOM      3  C   UNL     1      -1.853  12.688  20.988  0.00  0.00    +0.000 C 
ATOM      4  C   UNL     1      -0.815  13.620  20.371  0.00  0.00    +0.000 C 
ATOM      5  C   UNL     1       0.483  13.579  21.174  0.00  0.00    +0.000 C 
ATOM      6  O   UNL     1       1.031  12.247  21.186  0.00  0.00    +0.000 OA
ENDROOT
BRANCH   3   7
ATOM      7  C   UNL     1      -2.963  12.411  19.999  0.00  0.00    +0.000 A 
ATOM      8  C   UNL     1      -4.249  12.910  20.122  0.00  0.00    +0.000 A 
ATOM      9  S   UNL     1      -5.287  12.399  18.881  0.00  0.00    +0.000 S 
ATOM     10  C   UNL     1      -4.047  11.484  18.122  0.00  0.00    +0.000 A 
ATOM     11  C   UNL     1      -4.168  10.728  16.941  0.00  0.00    +0.000 A 
ATOM     12  C   UNL     1      -3.056  10.034  16.461  0.00  0.00    +0.000 A 
ATOM     13  C   UNL     1      -1.851  10.081  17.144  0.00  0.00    +0.000 A 
ATOM     14  C   UNL     1      -1.736  10.831  18.318  0.00  0.00    +0.000 A 
ATOM     15  C   UNL     1      -2.842  11.561  18.829  0.00  0.00    +0.000 A 
ENDBRANCH   3   7
BRANCH   1  17
ATOM     16  O   UNL     1       1.038   9.709  23.115  0.00  0.00    +0.000 OA
ATOM     17  C   UNL     1       0.620   9.917  21.981  0.00  0.00    +0.000 C 
ATOM     18  N   UNL     1       0.575   8.946  21.016  0.00  0.00    +0.000 N 
ATOM     19  H   UNL     1       0.300   9.178  20.066  0.00  0.00    +0.000 HD
BRANCH  18  20
ATOM     20  C   UNL     1       1.089   7.633  21.300  0.00  0.00    +0.000 C 
BRANCH  20  21
ATOM     21  C   UNL     1       1.998   7.185  20.210  0.00  0.00    +0.000 A 
ATOM     22  N   UNL     1       2.215   7.775  19.048  0.00  0.00    +0.000 NA
ATOM     23  C   UNL     1       3.177   7.016  18.423  0.00  0.00    +0.000 A 
ATOM     24  C   UNL     1       3.794   7.193  17.177  0.00  0.00    +0.000 A 
ATOM     25  C   UNL     1       4.761   6.268  16.768  0.00  0.00    +0.000 A 
ATOM     26  C   UNL     1       5.109   5.186  17.581  0.00  0.00    +0.000 A 
ATOM     27  C   UNL     1       4.504   4.993  18.831  0.00  0.00    +0.000 A 
ATOM     28  C   UNL     1       3.546   5.933  19.212  0.00  0.00    +0.000 A 
ATOM     29  N   UNL     1       2.774   6.059  20.340  0.00  0.00    +0.000 N 
ATOM     30  H   UNL     1       2.789   5.439  21.135  0.00  0.00    +0.000 HD
ENDBRANCH  20  21
ENDBRANCH  18  20
ENDBRANCH   1  17
BRANCH   5  31
ATOM     31  O   UNL     1       1.443  14.485  20.600  0.00  0.00    +0.000 OA
BRANCH  31  32
ATOM     32  C   UNL     1       2.786  14.075  20.841  0.00  0.00    +0.000 C 
BRANCH  32  33
ATOM     33  C   UNL     1       3.670  14.360  19.636  0.00  0.00    +0.000 C 
BRANCH  33  34
ATOM     34  C   UNL     1       2.863  14.125  18.361  0.00  0.00    +0.000 C 
BRANCH  34  35
ATOM     35  C   UNL     1       2.752  12.654  18.005  0.00  0.00    +0.000 C 
BRANCH  35  36
ATOM     36  O   UNL     1       1.402  12.234  18.163  0.00  0.00    +0.000 OA
ATOM     37  H   UNL     1       1.242  11.513  17.530  0.00  0.00    +0.000 HD
ENDBRANCH  35  36
ENDBRANCH  34  35
ENDBRANCH  33  34
ENDBRANCH  32  33
ENDBRANCH  31  32
ENDBRANCH   5  31
TORSDOF 10
ENDMDL
MODEL 9
REMARK VINA RESULT:      -7.7      4.450      7.516
REMARK  Name = 
REMARK  10 active torsions:
REMARK  status: ('A' for Active; 'I' for Inactive)
REMARK    1  A    between atoms: C_2  and  C_14
REMARK    2  A    between atoms: N_3  and  C_4
REMARK    3  A    between atoms: C_4  and  C_5
REMARK    4  A    between atoms: C_16  and  C_17
REMARK    5  A    between atoms: C_27  and  O_28
REMARK    6  A    between atoms: O_28  and  C_29
REMARK    7  A    between atoms: C_29  and  C_30
REMARK    8  A    between atoms: C_30  and  C_31
REMARK    9  A    between atoms: C_31  and  C_32
REMARK   10  A    between atoms: C_32  and  O_33
REMARK                            x       y       z     vdW  Elec       q    Type
REMARK                         _______ _______ _______ _____ _____    ______ ____
ROOT
ATOM      1  C   UNL     1       0.104  10.297  18.558  0.00  0.00    +0.000 C 
ATOM      2  C   UNL     1       0.383  11.611  18.587  0.00  0.00    +0.000 C 
ATOM      3  C   UNL     1      -0.648  12.664  18.336  0.00  0.00    +0.000 C 
ATOM      4  C   UNL     1      -2.042  12.053  18.246  0.00  0.00    +0.000 C 
ATOM      5  C   UNL     1      -1.990  10.709  17.522  0.00  0.00    +0.000 C 
ATOM      6  O   UNL     1      -1.143   9.784  18.230  0.00  0.00    +0.000 OA
ENDROOT
BRANCH   3   7
ATOM      7  C   UNL     1      -0.620  13.758  19.380  0.00  0.00    +0.000 A 
ATOM      8  C   UNL     1      -0.296  15.076  19.108  0.00  0.00    +0.000 A 
ATOM      9  S   UNL     1      -0.314  16.068  20.485  0.00  0.00    +0.000 S 
ATOM     10  C   UNL     1      -0.763  14.763  21.508  0.00  0.00    +0.000 A 
ATOM     11  C   UNL     1      -0.989  14.826  22.896  0.00  0.00    +0.000 A 
ATOM     12  C   UNL     1      -1.343  13.663  23.581  0.00  0.00    +0.000 A 
ATOM     13  C   UNL     1      -1.462  12.459  22.905  0.00  0.00    +0.000 A 
ATOM     14  C   UNL     1      -1.234  12.400  21.527  0.00  0.00    +0.000 A 
ATOM     15  C   UNL     1      -0.885  13.566  20.794  0.00  0.00    +0.000 A 
ENDBRANCH   3   7
BRANCH   1  17
ATOM     16  O   UNL     1       1.521   9.111  20.086  0.00  0.00    +0.000 OA
ATOM     17  C   UNL     1       1.216   9.353  18.923  0.00  0.00    +0.000 C 
ATOM     18  N   UNL     1       1.859   8.789  17.854  0.00  0.00    +0.000 N 
ATOM     19  H   UNL     1       1.632   9.077  16.907  0.00  0.00    +0.000 HD
BRANCH  18  20
ATOM     20  C   UNL     1       2.983   7.919  18.075  0.00  0.00    +0.000 C 
BRANCH  20  21
ATOM     21  C   UNL     1       2.526   6.605  18.603  0.00  0.00    +0.000 A 
ATOM     22  N   UNL     1       2.048   5.582  17.917  0.00  0.00    +0.000 NA
ATOM     23  C   UNL     1       1.831   4.588  18.840  0.00  0.00    +0.000 A 
ATOM     24  C   UNL     1       1.349   3.283  18.662  0.00  0.00    +0.000 A 
ATOM     25  C   UNL     1       1.224   2.453  19.782  0.00  0.00    +0.000 A 
ATOM     26  C   UNL     1       1.569   2.910  21.057  0.00  0.00    +0.000 A 
ATOM     27  C   UNL     1       2.054   4.210  21.255  0.00  0.00    +0.000 A 
ATOM     28  C   UNL     1       2.170   5.013  20.119  0.00  0.00    +0.000 A 
ATOM     29  N   UNL     1       2.602   6.304  19.941  0.00  0.00    +0.000 N 
ATOM     30  H   UNL     1       2.934   6.918  20.668  0.00  0.00    +0.000 HD
ENDBRANCH  20  21
ENDBRANCH  18  20
ENDBRANCH   1  17
BRANCH   5  31
ATOM     31  O   UNL     1      -3.315  10.158  17.416  0.00  0.00    +0.000 OA
BRANCH  31  32
ATOM     32  C   UNL     1      -4.273  10.902  18.164  0.00  0.00    +0.000 C 
BRANCH  32  33
ATOM     33  C   UNL     1      -5.405  11.389  17.272  0.00  0.00    +0.000 C 
BRANCH  33  34
ATOM     34  C   UNL     1      -6.696  11.435  18.086  0.00  0.00    +0.000 C 
BRANCH  34  35
ATOM     35  C   UNL     1      -6.681  10.467  19.256  0.00  0.00    +0.000 C 
BRANCH  35  36
ATOM     36  O   UNL     1      -7.480   9.334  18.936  0.00  0.00    +0.000 OA
ATOM     37  H   UNL     1      -7.444   9.211  17.972  0.00  0.00    +0.000 HD
ENDBRANCH  35  36
ENDBRANCH  34  35
ENDBRANCH  33  34
ENDBRANCH  32  33
ENDBRANCH  31  32
ENDBRANCH   5  31
TORSDOF 10
ENDMDL
