MODEL 1
REMARK VINA RESULT:      -8.7      0.000      0.000
REMARK  Name = 
REMARK  9 active torsions:
REMARK  status: ('A' for Active; 'I' for Inactive)
REMARK    1  A    between atoms: C_1  and  C_2
REMARK    2  A    between atoms: C_7  and  C_8
REMARK    3  A    between atoms: N_10  and  C_11
REMARK    4  A    between atoms: N_10  and  C_19
REMARK    5  A    between atoms: C_11  and  C_12
REMARK    6  A    between atoms: C_22  and  C_23
REMARK    7  A    between atoms: C_23  and  C_24
REMARK    8  A    between atoms: N_26  and  C_27
REMARK    9  A    between atoms: C_27  and  C_28
REMARK                            x       y       z     vdW  Elec       q    Type
REMARK                         _______ _______ _______ _____ _____    ______ ____
ROOT
ATOM      1  C   UNL     1       4.132   5.065  19.182  0.00  0.00    +0.000 C 
ATOM      2  O   UNL     1       5.229   4.496  19.260  0.00  0.00    +0.000 OA
ATOM      3  N   UNL     1       4.032   6.312  18.542  0.00  0.00    +0.000 N 
ENDROOT
BRANCH   1  10
ATOM      4  C   UNL     1       1.445   4.191  17.555  0.00  0.00    +0.000 C 
ATOM      5  C   UNL     1       1.860   3.736  18.925  0.00  0.00    +0.000 A 
ATOM      6  C   UNL     1       0.937   2.894  19.591  0.00  0.00    +0.000 A 
ATOM      7  C   UNL     1       0.965   2.726  20.974  0.00  0.00    +0.000 A 
ATOM      8  C   UNL     1       1.913   3.403  21.718  0.00  0.00    +0.000 A 
ATOM      9  C   UNL     1       2.909   4.130  21.063  0.00  0.00    +0.000 A 
ATOM     10  C   UNL     1       2.950   4.257  19.653  0.00  0.00    +0.000 A 
ENDBRANCH   1  10
BRANCH   3  11
ATOM     11  C   UNL     1       2.950   7.214  18.636  0.00  0.00    +0.000 A 
ATOM     12  C   UNL     1       2.297   7.340  19.872  0.00  0.00    +0.000 A 
ATOM     13  C   UNL     1       1.347   8.330  20.082  0.00  0.00    +0.000 A 
ATOM     14  C   UNL     1       1.059   9.249  19.068  0.00  0.00    +0.000 A 
ATOM     15  C   UNL     1       1.696   9.106  17.820  0.00  0.00    +0.000 A 
ATOM     16  C   UNL     1       2.639   8.092  17.601  0.00  0.00    +0.000 A 
BRANCH  14  17
ATOM     17  C   UNL     1       0.045  10.344  19.311  0.00  0.00    +0.000 C 
BRANCH  17  18
ATOM     18  C   UNL     1       0.198  11.044  20.656  0.00  0.00    +0.000 C 
ATOM     19  O   UNL     1       1.288  11.154  21.213  0.00  0.00    +0.000 OA
ATOM     20  N   UNL     1      -0.976  11.500  21.210  0.00  0.00    +0.000 N 
ATOM     21  H   UNL     1      -1.831  11.462  20.670  0.00  0.00    +0.000 HD
BRANCH  20  22
ATOM     22  C   UNL     1      -0.994  12.130  22.511  0.00  0.00    +0.000 C 
BRANCH  22  23
ATOM     23  C   UNL     1      -2.341  11.949  23.136  0.00  0.00    +0.000 C 
ATOM     24  C   UNL     1      -3.014  13.107  23.833  0.00  0.00    +0.000 C 
ATOM     25  C   UNL     1      -3.570  12.587  22.536  0.00  0.00    +0.000 C 
ENDBRANCH  22  23
ENDBRANCH  20  22
ENDBRANCH  17  18
ENDBRANCH  14  17
ENDBRANCH   3  11
BRANCH   3  26
ATOM     26  C   UNL     1       5.234   6.860  17.870  0.00  0.00    +0.000 C 
BRANCH  26  27
ATOM     27  C   UNL     1       5.776   5.965  16.767  0.00  0.00    +0.000 A 
ATOM     28  C   UNL     1       7.148   5.681  16.692  0.00  0.00    +0.000 A 
ATOM     29  C   UNL     1       7.666   4.916  15.642  0.00  0.00    +0.000 A 
ATOM     30  C   UNL     1       6.817   4.421  14.651  0.00  0.00    +0.000 A 
ATOM     31  C   UNL     1       5.458   4.691  14.722  0.00  0.00    +0.000 A 
ATOM     32  F   UNL     1       4.641   4.224  13.764  0.00  0.00    +0.000 F 
ATOM     33  C   UNL     1       4.935   5.456  15.761  0.00  0.00    +0.000 A 
ENDBRANCH  26  27
ENDBRANCH   3  26
TORSDOF 8
ENDMDL
MODEL 2
REMARK VINA RESULT:      -8.6      1.903      2.789
REMARK  Name = 
REMARK  9 active torsions:
REMARK  status: ('A' for Active; 'I' for Inactive)
REMARK    1  A    between atoms: C_1  and  C_2
REMARK    2  A    between atoms: C_7  and  C_8
REMARK    3  A    between atoms: N_10  and  C_11
REMARK    4  A    between atoms: N_10  and  C_19
REMARK    5  A    between atoms: C_11  and  C_12
REMARK    6  A    between atoms: C_22  and  C_23
REMARK    7  A    between atoms: C_23  and  C_24
REMARK    8  A    between atoms: N_26  and  C_27
REMARK    9  A    between atoms: C_27  and  C_28
REMARK                            x       y       z     vdW  Elec       q    Type
REMARK                         _______ _______ _______ _____ _____    ______ ____
ROOT
ATOM      1  C   UNL     1       4.191   4.885  19.183  0.00  0.00    +0.000 C 
ATOM      2  O   UNL     1       5.270   4.282  19.263  0.00  0.00    +0.000 OA
ATOM      3  N   UNL     1       4.136   6.148  18.569  0.00  0.00    +0.000 N 
ENDROOT
BRANCH   1  10
ATOM      4  C   UNL     1       1.482   4.164  17.518  0.00  0.00    +0.000 C 
ATOM      5  C   UNL     1       1.876   3.646  18.872  0.00  0.00    +0.000 A 
ATOM      6  C   UNL     1       0.922   2.812  19.504  0.00  0.00    +0.000 A 
ATOM      7  C   UNL     1       0.937   2.594  20.881  0.00  0.00    +0.000 A 
ATOM      8  C   UNL     1       1.906   3.211  21.651  0.00  0.00    +0.000 A 
ATOM      9  C   UNL     1       2.929   3.926  21.026  0.00  0.00    +0.000 A 
ATOM     10  C   UNL     1       2.979   4.102  19.621  0.00  0.00    +0.000 A 
ENDBRANCH   1  10
BRANCH   3  11
ATOM     11  C   UNL     1       3.079   7.078  18.669  0.00  0.00    +0.000 A 
ATOM     12  C   UNL     1       2.437   7.222  19.909  0.00  0.00    +0.000 A 
ATOM     13  C   UNL     1       1.515   8.237  20.124  0.00  0.00    +0.000 A 
ATOM     14  C   UNL     1       1.248   9.165  19.112  0.00  0.00    +0.000 A 
ATOM     15  C   UNL     1       1.873   9.004  17.860  0.00  0.00    +0.000 A 
ATOM     16  C   UNL     1       2.787   7.965  17.636  0.00  0.00    +0.000 A 
BRANCH  14  17
ATOM     17  C   UNL     1       0.265  10.287  19.360  0.00  0.00    +0.000 C 
BRANCH  17  18
ATOM     18  C   UNL     1       0.917  11.605  19.759  0.00  0.00    +0.000 C 
ATOM     19  O   UNL     1       1.268  11.835  20.915  0.00  0.00    +0.000 OA
ATOM     20  N   UNL     1       1.040  12.524  18.743  0.00  0.00    +0.000 N 
ATOM     21  H   UNL     1       0.816  12.252  17.794  0.00  0.00    +0.000 HD
BRANCH  20  22
ATOM     22  C   UNL     1       1.583  13.841  18.986  0.00  0.00    +0.000 C 
BRANCH  22  23
ATOM     23  C   UNL     1       2.926  13.957  18.339  0.00  0.00    +0.000 C 
ATOM     24  C   UNL     1       3.349  15.258  17.699  0.00  0.00    +0.000 C 
ATOM     25  C   UNL     1       4.021  14.789  18.959  0.00  0.00    +0.000 C 
ENDBRANCH  22  23
ENDBRANCH  20  22
ENDBRANCH  17  18
ENDBRANCH  14  17
ENDBRANCH   3  11
BRANCH   3  26
ATOM     26  C   UNL     1       5.362   6.674  17.925  0.00  0.00    +0.000 C 
BRANCH  26  27
ATOM     27  C   UNL     1       5.846   5.831  16.756  0.00  0.00    +0.000 A 
ATOM     28  C   UNL     1       7.213   5.561  16.592  0.00  0.00    +0.000 A 
ATOM     29  C   UNL     1       7.675   4.845  15.483  0.00  0.00    +0.000 A 
ATOM     30  C   UNL     1       6.775   4.386  14.521  0.00  0.00    +0.000 A 
ATOM     31  C   UNL     1       5.420   4.642  14.680  0.00  0.00    +0.000 A 
ATOM     32  F   UNL     1       4.553   4.210  13.750  0.00  0.00    +0.000 F 
ATOM     33  C   UNL     1       4.952   5.358  15.778  0.00  0.00    +0.000 A 
ENDBRANCH  26  27
ENDBRANCH   3  26
TORSDOF 8
ENDMDL
MODEL 3
REMARK VINA RESULT:      -8.6      2.750      5.449
REMARK  Name = 
REMARK  9 active torsions:
REMARK  status: ('A' for Active; 'I' for Inactive)
REMARK    1  A    between atoms: C_1  and  C_2
REMARK    2  A    between atoms: C_7  and  C_8
REMARK    3  A    between atoms: N_10  and  C_11
REMARK    4  A    between atoms: N_10  and  C_19
REMARK    5  A    between atoms: C_11  and  C_12
REMARK    6  A    between atoms: C_22  and  C_23
REMARK    7  A    between atoms: C_23  and  C_24
REMARK    8  A    between atoms: N_26  and  C_27
REMARK    9  A    between atoms: C_27  and  C_28
REMARK                            x       y       z     vdW  Elec       q    Type
REMARK                         _______ _______ _______ _____ _____    ______ ____
ROOT
ATOM      1  C   UNL     1       4.081   5.052  17.516  0.00  0.00    +0.000 C 
ATOM      2  O   UNL     1       4.154   3.979  16.901  0.00  0.00    +0.000 OA
ATOM      3  N   UNL     1       2.927   5.359  18.257  0.00  0.00    +0.000 N 
ENDROOT
BRANCH   1  10
ATOM      4  C   UNL     1       5.300   7.040  15.238  0.00  0.00    +0.000 C 
ATOM      5  C   UNL     1       5.808   6.852  16.639  0.00  0.00    +0.000 A 
ATOM      6  C   UNL     1       6.983   7.573  16.961  0.00  0.00    +0.000 A 
ATOM      7  C   UNL     1       7.796   7.208  18.032  0.00  0.00    +0.000 A 
ATOM      8  C   UNL     1       7.450   6.111  18.800  0.00  0.00    +0.000 A 
ATOM      9  C   UNL     1       6.228   5.474  18.576  0.00  0.00    +0.000 A 
ATOM     10  C   UNL     1       5.346   5.871  17.540  0.00  0.00    +0.000 A 
ENDBRANCH   1  10
BRANCH   3  11
ATOM     11  C   UNL     1       2.564   6.633  18.745  0.00  0.00    +0.000 A 
ATOM     12  C   UNL     1       2.338   7.660  17.816  0.00  0.00    +0.000 A 
ATOM     13  C   UNL     1       1.809   8.881  18.212  0.00  0.00    +0.000 A 
ATOM     14  C   UNL     1       1.451   9.086  19.549  0.00  0.00    +0.000 A 
ATOM     15  C   UNL     1       1.702   8.064  20.485  0.00  0.00    +0.000 A 
ATOM     16  C   UNL     1       2.256   6.840  20.087  0.00  0.00    +0.000 A 
BRANCH  14  17
ATOM     17  C   UNL     1       0.848  10.407  19.971  0.00  0.00    +0.000 C 
BRANCH  17  18
ATOM     18  C   UNL     1       0.143  11.155  18.847  0.00  0.00    +0.000 C 
ATOM     19  O   UNL     1       0.682  12.080  18.241  0.00  0.00    +0.000 OA
ATOM     20  N   UNL     1      -1.147  10.747  18.595  0.00  0.00    +0.000 N 
ATOM     21  H   UNL     1      -1.510   9.925  19.061  0.00  0.00    +0.000 HD
BRANCH  20  22
ATOM     22  C   UNL     1      -1.960  11.406  17.598  0.00  0.00    +0.000 C 
BRANCH  22  23
ATOM     23  C   UNL     1      -2.737  10.385  16.831  0.00  0.00    +0.000 C 
ATOM     24  C   UNL     1      -3.982  10.789  16.078  0.00  0.00    +0.000 C 
ATOM     25  C   UNL     1      -2.747  10.385  15.322  0.00  0.00    +0.000 C 
ENDBRANCH  22  23
ENDBRANCH  20  22
ENDBRANCH  17  18
ENDBRANCH  14  17
ENDBRANCH   3  11
BRANCH   3  26
ATOM     26  C   UNL     1       1.869   4.328  18.375  0.00  0.00    +0.000 C 
BRANCH  26  27
ATOM     27  C   UNL     1       1.983   3.481  19.632  0.00  0.00    +0.000 A 
ATOM     28  C   UNL     1       0.887   3.338  20.496  0.00  0.00    +0.000 A 
ATOM     29  C   UNL     1       1.001   2.618  21.689  0.00  0.00    +0.000 A 
ATOM     30  C   UNL     1       2.217   2.027  22.037  0.00  0.00    +0.000 A 
ATOM     31  C   UNL     1       3.305   2.156  21.184  0.00  0.00    +0.000 A 
ATOM     32  F   UNL     1       4.477   1.596  21.521  0.00  0.00    +0.000 F 
ATOM     33  C   UNL     1       3.200   2.876  19.996  0.00  0.00    +0.000 A 
ENDBRANCH  26  27
ENDBRANCH   3  26
TORSDOF 8
ENDMDL
MODEL 4
REMARK VINA RESULT:      -8.6      2.685      3.759
REMARK  Name = 
REMARK  9 active torsions:
REMARK  status: ('A' for Active; 'I' for Inactive)
REMARK    1  A    between atoms: C_1  and  C_2
REMARK    2  A    between atoms: C_7  and  C_8
REMARK    3  A    between atoms: N_10  and  C_11
REMARK    4  A    between atoms: N_10  and  C_19
REMARK    5  A    between atoms: C_11  and  C_12
REMARK    6  A    between atoms: C_22  and  C_23
REMARK    7  A    between atoms: C_23  and  C_24
REMARK    8  A    between atoms: N_26  and  C_27
REMARK    9  A    between atoms: C_27  and  C_28
REMARK                            x       y       z     vdW  Elec       q    Type
REMARK                         _______ _______ _______ _____ _____    ______ ____
ROOT
ATOM      1  C   UNL     1       4.022   4.387  17.877  0.00  0.00    +0.000 C 
ATOM      2  O   UNL     1       4.903   3.669  17.385  0.00  0.00    +0.000 OA
ATOM      3  N   UNL     1       4.014   5.768  17.616  0.00  0.00    +0.000 N 
ENDROOT
BRANCH   1  10
ATOM      4  C   UNL     1       4.199   2.399  20.455  0.00  0.00    +0.000 C 
ATOM      5  C   UNL     1       2.952   2.922  19.800  0.00  0.00    +0.000 A 
ATOM      6  C   UNL     1       1.735   2.431  20.332  0.00  0.00    +0.000 A 
ATOM      7  C   UNL     1       0.546   2.480  19.608  0.00  0.00    +0.000 A 
ATOM      8  C   UNL     1       0.553   3.017  18.333  0.00  0.00    +0.000 A 
ATOM      9  C   UNL     1       1.715   3.623  17.850  0.00  0.00    +0.000 A 
ATOM     10  C   UNL     1       2.918   3.654  18.596  0.00  0.00    +0.000 A 
ENDBRANCH   1  10
BRANCH   3  11
ATOM     11  C   UNL     1       3.288   6.747  18.328  0.00  0.00    +0.000 A 
ATOM     12  C   UNL     1       2.823   7.870  17.626  0.00  0.00    +0.000 A 
ATOM     13  C   UNL     1       1.957   8.778  18.219  0.00  0.00    +0.000 A 
ATOM     14  C   UNL     1       1.499   8.557  19.522  0.00  0.00    +0.000 A 
ATOM     15  C   UNL     1       1.987   7.444  20.235  0.00  0.00    +0.000 A 
ATOM     16  C   UNL     1       2.879   6.540  19.642  0.00  0.00    +0.000 A 
BRANCH  14  17
ATOM     17  C   UNL     1       0.532   9.532  20.155  0.00  0.00    +0.000 C 
BRANCH  17  18
ATOM     18  C   UNL     1       0.035  10.616  19.207  0.00  0.00    +0.000 C 
ATOM     19  O   UNL     1       0.572  11.720  19.140  0.00  0.00    +0.000 OA
ATOM     20  N   UNL     1      -1.078  10.280  18.471  0.00  0.00    +0.000 N 
ATOM     21  H   UNL     1      -1.427   9.330  18.500  0.00  0.00    +0.000 HD
BRANCH  20  22
ATOM     22  C   UNL     1      -1.699  11.229  17.576  0.00  0.00    +0.000 C 
BRANCH  22  23
ATOM     23  C   UNL     1      -2.895  10.604  16.933  0.00  0.00    +0.000 C 
ATOM     24  C   UNL     1      -3.281  10.980  15.523  0.00  0.00    +0.000 C 
ATOM     25  C   UNL     1      -2.744   9.606  15.811  0.00  0.00    +0.000 C 
ENDBRANCH  22  23
ENDBRANCH  20  22
ENDBRANCH  17  18
ENDBRANCH  14  17
ENDBRANCH   3  11
BRANCH   3  26
ATOM     26  C   UNL     1       5.003   6.310  16.655  0.00  0.00    +0.000 C 
BRANCH  26  27
ATOM     27  C   UNL     1       6.259   6.855  17.315  0.00  0.00    +0.000 A 
ATOM     28  C   UNL     1       7.034   6.038  18.151  0.00  0.00    +0.000 A 
ATOM     29  C   UNL     1       8.152   6.548  18.818  0.00  0.00    +0.000 A 
ATOM     30  C   UNL     1       8.514   7.886  18.657  0.00  0.00    +0.000 A 
ATOM     31  C   UNL     1       7.758   8.700  17.824  0.00  0.00    +0.000 A 
ATOM     32  F   UNL     1       8.098   9.989  17.675  0.00  0.00    +0.000 F 
ATOM     33  C   UNL     1       6.640   8.201  17.161  0.00  0.00    +0.000 A 
ENDBRANCH  26  27
ENDBRANCH   3  26
TORSDOF 8
ENDMDL
MODEL 5
REMARK VINA RESULT:      -8.6      2.246      2.655
REMARK  Name = 
REMARK  9 active torsions:
REMARK  status: ('A' for Active; 'I' for Inactive)
REMARK    1  A    between atoms: C_1  and  C_2
REMARK    2  A    between atoms: C_7  and  C_8
REMARK    3  A    between atoms: N_10  and  C_11
REMARK    4  A    between atoms: N_10  and  C_19
REMARK    5  A    between atoms: C_11  and  C_12
REMARK    6  A    between atoms: C_22  and  C_23
REMARK    7  A    between atoms: C_23  and  C_24
REMARK    8  A    between atoms: N_26  and  C_27
REMARK    9  A    between atoms: C_27  and  C_28
REMARK                            x       y       z     vdW  Elec       q    Type
REMARK                         _______ _______ _______ _____ _____    ______ ____
ROOT
ATOM      1  C   UNL     1       4.341   4.568  19.246  0.00  0.00    +0.000 C 
ATOM      2  O   UNL     1       5.392   3.932  19.398  0.00  0.00    +0.000 OA
ATOM      3  N   UNL     1       4.345   5.765  18.509  0.00  0.00    +0.000 N 
ENDROOT
BRANCH   1  10
ATOM      4  C   UNL     1       1.616   3.799  17.629  0.00  0.00    +0.000 C 
ATOM      5  C   UNL     1       1.977   3.404  19.033  0.00  0.00    +0.000 A 
ATOM      6  C   UNL     1       0.983   2.679  19.734  0.00  0.00    +0.000 A 
ATOM      7  C   UNL     1       0.978   2.600  21.125  0.00  0.00    +0.000 A 
ATOM      8  C   UNL     1       1.966   3.249  21.842  0.00  0.00    +0.000 A 
ATOM      9  C   UNL     1       3.024   3.854  21.160  0.00  0.00    +0.000 A 
ATOM     10  C   UNL     1       3.093   3.885  19.746  0.00  0.00    +0.000 A 
ENDBRANCH   1  10
BRANCH   3  11
ATOM     11  C   UNL     1       3.330   6.745  18.503  0.00  0.00    +0.000 A 
ATOM     12  C   UNL     1       2.609   6.960  19.688  0.00  0.00    +0.000 A 
ATOM     13  C   UNL     1       1.724   8.023  19.805  0.00  0.00    +0.000 A 
ATOM     14  C   UNL     1       1.572   8.925  18.747  0.00  0.00    +0.000 A 
ATOM     15  C   UNL     1       2.276   8.693  17.549  0.00  0.00    +0.000 A 
ATOM     16  C   UNL     1       3.153   7.607  17.425  0.00  0.00    +0.000 A 
BRANCH  14  17
ATOM     17  C   UNL     1       0.629  10.099  18.888  0.00  0.00    +0.000 C 
BRANCH  17  18
ATOM     18  C   UNL     1       1.298  11.378  19.375  0.00  0.00    +0.000 C 
ATOM     19  O   UNL     1       1.343  11.677  20.566  0.00  0.00    +0.000 OA
ATOM     20  N   UNL     1       1.805  12.184  18.381  0.00  0.00    +0.000 N 
ATOM     21  H   UNL     1       1.819  11.848  17.426  0.00  0.00    +0.000 HD
BRANCH  20  22
ATOM     22  C   UNL     1       2.413  13.458  18.688  0.00  0.00    +0.000 C 
BRANCH  22  23
ATOM     23  C   UNL     1       1.378  14.535  18.625  0.00  0.00    +0.000 C 
ATOM     24  C   UNL     1       1.112  15.402  19.833  0.00  0.00    +0.000 C 
ATOM     25  C   UNL     1       1.769  15.993  18.617  0.00  0.00    +0.000 C 
ENDBRANCH  22  23
ENDBRANCH  20  22
ENDBRANCH  17  18
ENDBRANCH  14  17
ENDBRANCH   3  11
BRANCH   3  26
ATOM     26  C   UNL     1       5.598   6.171  17.830  0.00  0.00    +0.000 C 
BRANCH  26  27
ATOM     27  C   UNL     1       5.803   5.505  16.479  0.00  0.00    +0.000 A 
ATOM     28  C   UNL     1       4.897   4.539  16.019  0.00  0.00    +0.000 A 
ATOM     29  C   UNL     1       5.113   3.870  14.809  0.00  0.00    +0.000 A 
ATOM     30  C   UNL     1       6.242   4.160  14.041  0.00  0.00    +0.000 A 
ATOM     31  C   UNL     1       7.139   5.121  14.485  0.00  0.00    +0.000 A 
ATOM     32  F   UNL     1       8.229   5.395  13.752  0.00  0.00    +0.000 F 
ATOM     33  C   UNL     1       6.933   5.788  15.690  0.00  0.00    +0.000 A 
ENDBRANCH  26  27
ENDBRANCH   3  26
TORSDOF 8
ENDMDL
MODEL 6
REMARK VINA RESULT:      -8.5      0.911      1.256
REMARK  Name = 
REMARK  9 active torsions:
REMARK  status: ('A' for Active; 'I' for Inactive)
REMARK    1  A    between atoms: C_1  and  C_2
REMARK    2  A    between atoms: C_7  and  C_8
REMARK    3  A    between atoms: N_10  and  C_11
REMARK    4  A    between atoms: N_10  and  C_19
REMARK    5  A    between atoms: C_11  and  C_12
REMARK    6  A    between atoms: C_22  and  C_23
REMARK    7  A    between atoms: C_23  and  C_24
REMARK    8  A    between atoms: N_26  and  C_27
REMARK    9  A    between atoms: C_27  and  C_28
REMARK                            x       y       z     vdW  Elec       q    Type
REMARK                         _______ _______ _______ _____ _____    ______ ____
ROOT
ATOM      1  C   UNL     1       4.274   4.624  19.203  0.00  0.00    +0.000 C 
ATOM      2  O   UNL     1       5.319   3.969  19.310  0.00  0.00    +0.000 OA
ATOM      3  N   UNL     1       4.281   5.848  18.511  0.00  0.00    +0.000 N 
ENDROOT
BRANCH   1  10
ATOM      4  C   UNL     1       1.472   4.037  17.644  0.00  0.00    +0.000 C 
ATOM      5  C   UNL     1       1.872   3.537  19.003  0.00  0.00    +0.000 A 
ATOM      6  C   UNL     1       0.885   2.791  19.690  0.00  0.00    +0.000 A 
ATOM      7  C   UNL     1       0.929   2.616  21.072  0.00  0.00    +0.000 A 
ATOM      8  C   UNL     1       1.961   3.189  21.793  0.00  0.00    +0.000 A 
ATOM      9  C   UNL     1       3.009   3.813  21.114  0.00  0.00    +0.000 A 
ATOM     10  C   UNL     1       3.027   3.940  19.703  0.00  0.00    +0.000 A 
ENDBRANCH   1  10
BRANCH   3  11
ATOM     11  C   UNL     1       3.279   6.841  18.563  0.00  0.00    +0.000 A 
ATOM     12  C   UNL     1       2.590   7.025  19.772  0.00  0.00    +0.000 A 
ATOM     13  C   UNL     1       1.722   8.095  19.945  0.00  0.00    +0.000 A 
ATOM     14  C   UNL     1       1.558   9.035  18.922  0.00  0.00    +0.000 A 
ATOM     15  C   UNL     1       2.230   8.834  17.701  0.00  0.00    +0.000 A 
ATOM     16  C   UNL     1       3.089   7.742  17.519  0.00  0.00    +0.000 A 
BRANCH  14  17
ATOM     17  C   UNL     1       0.636  10.215  19.126  0.00  0.00    +0.000 C 
BRANCH  17  18
ATOM     18  C   UNL     1       0.542  10.688  20.571  0.00  0.00    +0.000 C 
ATOM     19  O   UNL     1       1.509  11.161  21.166  0.00  0.00    +0.000 OA
ATOM     20  N   UNL     1      -0.686  10.507  21.164  0.00  0.00    +0.000 N 
ATOM     21  H   UNL     1      -1.470  10.196  20.604  0.00  0.00    +0.000 HD
BRANCH  20  22
ATOM     22  C   UNL     1      -0.906  10.851  22.550  0.00  0.00    +0.000 C 
BRANCH  22  23
ATOM     23  C   UNL     1      -1.524  12.210  22.637  0.00  0.00    +0.000 C 
ATOM     24  C   UNL     1      -2.914  12.447  22.099  0.00  0.00    +0.000 C 
ATOM     25  C   UNL     1      -2.668  12.488  23.582  0.00  0.00    +0.000 C 
ENDBRANCH  22  23
ENDBRANCH  20  22
ENDBRANCH  17  18
ENDBRANCH  14  17
ENDBRANCH   3  11
BRANCH   3  26
ATOM     26  C   UNL     1       5.525   6.263  17.822  0.00  0.00    +0.000 C 
BRANCH  26  27
ATOM     27  C   UNL     1       5.744   5.567  16.489  0.00  0.00    +0.000 A 
ATOM     28  C   UNL     1       4.835   4.601  16.033  0.00  0.00    +0.000 A 
ATOM     29  C   UNL     1       5.063   3.906  14.841  0.00  0.00    +0.000 A 
ATOM     30  C   UNL     1       6.206   4.168  14.085  0.00  0.00    +0.000 A 
ATOM     31  C   UNL     1       7.107   5.128  14.524  0.00  0.00    +0.000 A 
ATOM     32  F   UNL     1       8.212   5.376  13.803  0.00  0.00    +0.000 F 
ATOM     33  C   UNL     1       6.890   5.821  15.712  0.00  0.00    +0.000 A 
ENDBRANCH  26  27
ENDBRANCH   3  26
TORSDOF 8
ENDMDL
MODEL 7
REMARK VINA RESULT:      -8.5      2.155      2.966
REMARK  Name = 
REMARK  9 active torsions:
REMARK  status: ('A' for Active; 'I' for Inactive)
REMARK    1  A    between atoms: C_1  and  C_2
REMARK    2  A    between atoms: C_7  and  C_8
REMARK    3  A    between atoms: N_10  and  C_11
REMARK    4  A    between atoms: N_10  and  C_19
REMARK    5  A    between atoms: C_11  and  C_12
REMARK    6  A    between atoms: C_22  and  C_23
REMARK    7  A    between atoms: C_23  and  C_24
REMARK    8  A    between atoms: N_26  and  C_27
REMARK    9  A    between atoms: C_27  and  C_28
REMARK                            x       y       z     vdW  Elec       q    Type
REMARK                         _______ _______ _______ _____ _____    ______ ____
ROOT
ATOM      1  C   UNL     1       4.277   4.576  19.001  0.00  0.00    +0.000 C 
ATOM      2  O   UNL     1       5.336   3.938  18.937  0.00  0.00    +0.000 OA
ATOM      3  N   UNL     1       4.203   5.869  18.454  0.00  0.00    +0.000 N 
ENDROOT
BRANCH   1  10
ATOM      4  C   UNL     1       1.409   3.963  17.577  0.00  0.00    +0.000 C 
ATOM      5  C   UNL     1       1.912   3.401  18.876  0.00  0.00    +0.000 A 
ATOM      6  C   UNL     1       0.999   2.574  19.574  0.00  0.00    +0.000 A 
ATOM      7  C   UNL     1       1.136   2.319  20.938  0.00  0.00    +0.000 A 
ATOM      8  C   UNL     1       2.187   2.892  21.630  0.00  0.00    +0.000 A 
ATOM      9  C   UNL     1       3.166   3.600  20.929  0.00  0.00    +0.000 A 
ATOM     10  C   UNL     1       3.092   3.811  19.530  0.00  0.00    +0.000 A 
ENDBRANCH   1  10
BRANCH   3  11
ATOM     11  C   UNL     1       3.197   6.826  18.709  0.00  0.00    +0.000 A 
ATOM     12  C   UNL     1       2.563   6.805  19.961  0.00  0.00    +0.000 A 
ATOM     13  C   UNL     1       1.696   7.820  20.342  0.00  0.00    +0.000 A 
ATOM     14  C   UNL     1       1.478   8.908  19.490  0.00  0.00    +0.000 A 
ATOM     15  C   UNL     1       2.094   8.915  18.224  0.00  0.00    +0.000 A 
ATOM     16  C   UNL     1       2.952   7.879  17.831  0.00  0.00    +0.000 A 
BRANCH  14  17
ATOM     17  C   UNL     1       0.556  10.027  19.921  0.00  0.00    +0.000 C 
BRANCH  17  18
ATOM     18  C   UNL     1      -0.006  10.848  18.767  0.00  0.00    +0.000 C 
ATOM     19  O   UNL     1       0.543  11.874  18.370  0.00  0.00    +0.000 OA
ATOM     20  N   UNL     1      -1.185  10.377  18.238  0.00  0.00    +0.000 N 
ATOM     21  H   UNL     1      -1.547   9.482  18.543  0.00  0.00    +0.000 HD
BRANCH  20  22
ATOM     22  C   UNL     1      -1.867  11.087  17.180  0.00  0.00    +0.000 C 
BRANCH  22  23
ATOM     23  C   UNL     1      -2.827  10.166  16.497  0.00  0.00    +0.000 C 
ATOM     24  C   UNL     1      -3.957  10.728  15.668  0.00  0.00    +0.000 C 
ATOM     25  C   UNL     1      -2.821  10.007  14.996  0.00  0.00    +0.000 C 
ENDBRANCH  22  23
ENDBRANCH  20  22
ENDBRANCH  17  18
ENDBRANCH  14  17
ENDBRANCH   3  11
BRANCH   3  26
ATOM     26  C   UNL     1       5.373   6.388  17.707  0.00  0.00    +0.000 C 
BRANCH  26  27
ATOM     27  C   UNL     1       5.630   5.660  16.397  0.00  0.00    +0.000 A 
ATOM     28  C   UNL     1       4.710   4.719  15.914  0.00  0.00    +0.000 A 
ATOM     29  C   UNL     1       4.969   3.994  14.746  0.00  0.00    +0.000 A 
ATOM     30  C   UNL     1       6.157   4.202  14.043  0.00  0.00    +0.000 A 
ATOM     31  C   UNL     1       7.069   5.138  14.509  0.00  0.00    +0.000 A 
ATOM     32  F   UNL     1       8.216   5.333  13.838  0.00  0.00    +0.000 F 
ATOM     33  C   UNL     1       6.820   5.860  15.673  0.00  0.00    +0.000 A 
ENDBRANCH  26  27
ENDBRANCH   3  26
TORSDOF 8
ENDMDL
MODEL 8
REMARK VINA RESULT:      -8.5      2.755      5.574
REMARK  Name = 
REMARK  9 active torsions:
REMARK  status: ('A' for Active; 'I' for Inactive)
REMARK    1  A    between atoms: C_1  and  C_2
REMARK    2  A    between atoms: C_7  and  C_8
REMARK    3  A    between atoms: N_10  and  C_11
REMARK    4  A    between atoms: N_10  and  C_19
REMARK    5  A    between atoms: C_11  and  C_12
REMARK    6  A    between atoms: C_22  and  C_23
REMARK    7  A    between atoms: C_23  and  C_24
REMARK    8  A    between atoms: N_26  and  C_27
REMARK    9  A    between atoms: C_27  and  C_28
REMARK                            x       y       z     vdW  Elec       q    Type
REMARK                         _______ _______ _______ _____ _____    ______ ____
ROOT
ATOM      1  C   UNL     1       4.727   5.448  17.322  0.00  0.00    +0.000 C 
ATOM      2  O   UNL     1       4.954   4.427  16.659  0.00  0.00    +0.000 OA
ATOM      3  N   UNL     1       3.448   5.663  17.864  0.00  0.00    +0.000 N 
ENDROOT
BRANCH   1  10
ATOM      4  C   UNL     1       6.964   5.105  19.669  0.00  0.00    +0.000 C 
ATOM      5  C   UNL     1       6.992   6.084  18.529  0.00  0.00    +0.000 A 
ATOM      6  C   UNL     1       8.079   6.991  18.534  0.00  0.00    +0.000 A 
ATOM      7  C   UNL     1       8.039   8.187  17.820  0.00  0.00    +0.000 A 
ATOM      8  C   UNL     1       6.906   8.501  17.092  0.00  0.00    +0.000 A 
ATOM      9  C   UNL     1       5.883   7.557  16.972  0.00  0.00    +0.000 A 
ATOM     10  C   UNL     1       5.931   6.302  17.627  0.00  0.00    +0.000 A 
ENDBRANCH   1  10
BRANCH   3  11
ATOM     11  C   UNL     1       2.949   6.885  18.365  0.00  0.00    +0.000 A 
ATOM     12  C   UNL     1       2.707   7.925  17.455  0.00  0.00    +0.000 A 
ATOM     13  C   UNL     1       2.054   9.085  17.850  0.00  0.00    +0.000 A 
ATOM     14  C   UNL     1       1.587   9.211  19.163  0.00  0.00    +0.000 A 
ATOM     15  C   UNL     1       1.853   8.177  20.081  0.00  0.00    +0.000 A 
ATOM     16  C   UNL     1       2.532   7.016  19.687  0.00  0.00    +0.000 A 
BRANCH  14  17
ATOM     17  C   UNL     1       0.850  10.462  19.582  0.00  0.00    +0.000 C 
BRANCH  17  18
ATOM     18  C   UNL     1      -0.581  10.543  19.066  0.00  0.00    +0.000 C 
ATOM     19  O   UNL     1      -1.483   9.850  19.534  0.00  0.00    +0.000 OA
ATOM     20  N   UNL     1      -0.774  11.412  18.017  0.00  0.00    +0.000 N 
ATOM     21  H   UNL     1      -0.019  12.021  17.729  0.00  0.00    +0.000 HD
BRANCH  20  22
ATOM     22  C   UNL     1      -2.066  11.547  17.384  0.00  0.00    +0.000 C 
BRANCH  22  23
ATOM     23  C   UNL     1      -2.220  10.498  16.330  0.00  0.00    +0.000 C 
ATOM     24  C   UNL     1      -3.516   9.734  16.205  0.00  0.00    +0.000 C 
ATOM     25  C   UNL     1      -3.121  10.717  15.139  0.00  0.00    +0.000 C 
ENDBRANCH  22  23
ENDBRANCH  20  22
ENDBRANCH  17  18
ENDBRANCH  14  17
ENDBRANCH   3  11
BRANCH   3  26
ATOM     26  C   UNL     1       2.433   4.593  17.722  0.00  0.00    +0.000 C 
BRANCH  26  27
ATOM     27  C   UNL     1       2.230   3.774  18.986  0.00  0.00    +0.000 A 
ATOM     28  C   UNL     1       0.957   3.661  19.564  0.00  0.00    +0.000 A 
ATOM     29  C   UNL     1       0.772   2.967  20.764  0.00  0.00    +0.000 A 
ATOM     30  C   UNL     1       1.861   2.374  21.406  0.00  0.00    +0.000 A 
ATOM     31  C   UNL     1       3.123   2.475  20.837  0.00  0.00    +0.000 A 
ATOM     32  F   UNL     1       4.173   1.913  21.457  0.00  0.00    +0.000 F 
ATOM     33  C   UNL     1       3.316   3.167  19.644  0.00  0.00    +0.000 A 
ENDBRANCH  26  27
ENDBRANCH   3  26
TORSDOF 8
ENDMDL
MODEL 9
REMARK VINA RESULT:      -8.4      2.742      5.339
REMARK  Name = 
REMARK  9 active torsions:
REMARK  status: ('A' for Active; 'I' for Inactive)
REMARK    1  A    between atoms: C_1  and  C_2
REMARK    2  A    between atoms: C_7  and  C_8
REMARK    3  A    between atoms: N_10  and  C_11
REMARK    4  A    between atoms: N_10  and  C_19
REMARK    5  A    between atoms: C_11  and  C_12
REMARK    6  A    between atoms: C_22  and  C_23
REMARK    7  A    between atoms: C_23  and  C_24
REMARK    8  A    between atoms: N_26  and  C_27
REMARK    9  A    between atoms: C_27  and  C_28
REMARK                            x       y       z     vdW  Elec       q    Type
REMARK                         _______ _______ _______ _____ _____    ______ ____
ROOT
ATOM      1  C   UNL     1       4.319   4.788  17.469  0.00  0.00    +0.000 C 
ATOM      2  O   UNL     1       4.562   3.665  17.007  0.00  0.00    +0.000 OA
ATOM      3  N   UNL     1       3.057   5.060  18.025  0.00  0.00    +0.000 N 
ENDROOT
BRANCH   1  10
ATOM      4  C   UNL     1       5.343   6.979  15.283  0.00  0.00    +0.000 C 
ATOM      5  C   UNL     1       5.860   6.786  16.680  0.00  0.00    +0.000 A 
ATOM      6  C   UNL     1       6.956   7.607  17.041  0.00  0.00    +0.000 A 
ATOM      7  C   UNL     1       7.796   7.283  18.105  0.00  0.00    +0.000 A 
ATOM      8  C   UNL     1       7.558   6.126  18.824  0.00  0.00    +0.000 A 
ATOM      9  C   UNL     1       6.407   5.379  18.564  0.00  0.00    +0.000 A 
ATOM     10  C   UNL     1       5.495   5.728  17.537  0.00  0.00    +0.000 A 
ENDBRANCH   1  10
BRANCH   3  11
ATOM     11  C   UNL     1       2.526   6.338  18.302  0.00  0.00    +0.000 A 
ATOM     12  C   UNL     1       2.287   6.681  19.642  0.00  0.00    +0.000 A 
ATOM     13  C   UNL     1       1.936   7.976  19.998  0.00  0.00    +0.000 A 
ATOM     14  C   UNL     1       1.858   8.972  19.019  0.00  0.00    +0.000 A 
ATOM     15  C   UNL     1       2.071   8.621  17.672  0.00  0.00    +0.000 A 
ATOM     16  C   UNL     1       2.405   7.308  17.311  0.00  0.00    +0.000 A 
BRANCH  14  17
ATOM     17  C   UNL     1       1.504  10.388  19.415  0.00  0.00    +0.000 C 
BRANCH  17  18
ATOM     18  C   UNL     1       0.020  10.713  19.297  0.00  0.00    +0.000 C 
ATOM     19  O   UNL     1      -0.781  10.433  20.186  0.00  0.00    +0.000 OA
ATOM     20  N   UNL     1      -0.355  11.300  18.111  0.00  0.00    +0.000 N 
ATOM     21  H   UNL     1       0.356  11.589  17.450  0.00  0.00    +0.000 HD
BRANCH  20  22
ATOM     22  C   UNL     1      -1.739  11.609  17.832  0.00  0.00    +0.000 C 
BRANCH  22  23
ATOM     23  C   UNL     1      -2.333  10.530  16.985  0.00  0.00    +0.000 C 
ATOM     24  C   UNL     1      -3.806  10.548  16.655  0.00  0.00    +0.000 C 
ATOM     25  C   UNL     1      -2.793  10.809  15.575  0.00  0.00    +0.000 C 
ENDBRANCH  22  23
ENDBRANCH  20  22
ENDBRANCH  17  18
ENDBRANCH  14  17
ENDBRANCH   3  11
BRANCH   3  26
ATOM     26  C   UNL     1       2.085   3.948  18.148  0.00  0.00    +0.000 C 
BRANCH  26  27
ATOM     27  C   UNL     1       2.118   3.258  19.503  0.00  0.00    +0.000 A 
ATOM     28  C   UNL     1       0.985   3.260  20.329  0.00  0.00    +0.000 A 
ATOM     29  C   UNL     1       1.026   2.689  21.605  0.00  0.00    +0.000 A 
ATOM     30  C   UNL     1       2.204   2.104  22.074  0.00  0.00    +0.000 A 
ATOM     31  C   UNL     1       3.327   2.090  21.259  0.00  0.00    +0.000 A 
ATOM     32  F   UNL     1       4.463   1.537  21.711  0.00  0.00    +0.000 F 
ATOM     33  C   UNL     1       3.296   2.661  19.989  0.00  0.00    +0.000 A 
ENDBRANCH  26  27
ENDBRANCH   3  26
TORSDOF 8
ENDMDL
