MODEL 1
REMARK VINA RESULT:      -9.0      0.000      0.000
REMARK  Name = 
REMARK  9 active torsions:
REMARK  status: ('A' for Active; 'I' for Inactive)
REMARK    1  A    between atoms: C_1  and  C_2
REMARK    2  A    between atoms: C_3  and  N_4
REMARK    3  A    between atoms: C_8  and  C_9
REMARK    4  A    between atoms: N_14  and  C_15
REMARK    5  A    between atoms: N_21  and  C_22
REMARK    6  A    between atoms: C_22  and  C_23
REMARK    7  A    between atoms: C_22  and  C_24
REMARK    8  A    between atoms: C_25  and  C_26
REMARK    9  A    between atoms: N_29  and  C_30
REMARK                            x       y       z     vdW  Elec       q    Type
REMARK                         _______ _______ _______ _____ _____    ______ ____
ROOT
ATOM      1  C   UNL     1       2.489   7.392  18.635  0.00  0.00    +0.000 A 
ATOM      2  C   UNL     1       2.307   7.244  19.995  0.00  0.00    +0.000 A 
ATOM      3  C   UNL     1       1.491   8.155  20.615  0.00  0.00    +0.000 A 
ATOM      4  N   UNL     1       0.868   9.147  19.957  0.00  0.00    +0.000 NA
ATOM      5  C   UNL     1       1.074   9.228  18.631  0.00  0.00    +0.000 A 
ATOM      6  N   UNL     1       0.397  10.212  17.893  0.00  0.00    +0.000 N 
ATOM      7  N   UNL     1       1.891   8.402  17.958  0.00  0.00    +0.000 NA
ATOM      8  H   UNL     1       0.622  10.065  16.917  0.00  0.00    +0.000 HD
ENDROOT
BRANCH   6   9
ATOM      9  C   UNL     1      -0.936  10.651  18.090  0.00  0.00    +0.000 A 
ATOM     10  C   UNL     1      -1.939  10.375  17.169  0.00  0.00    +0.000 A 
ATOM     11  C   UNL     1      -3.240  10.823  17.376  0.00  0.00    +0.000 A 
ATOM     12  C   UNL     1      -3.580  11.565  18.518  0.00  0.00    +0.000 A 
ATOM     13  C   UNL     1      -2.583  11.892  19.490  0.00  0.00    +0.000 A 
ATOM     14  C   UNL     1      -1.269  11.415  19.229  0.00  0.00    +0.000 A 
ATOM     15  N   UNL     1      -2.931  12.620  20.680  0.00  0.00    +0.000 N 
ATOM     16  C   UNL     1      -4.140  13.470  20.451  0.00  0.00    +0.000 C 
ATOM     17  C   UNL     1      -4.700  14.232  21.646  0.00  0.00    +0.000 C 
ATOM     18  C   UNL     1      -5.298  12.643  19.857  0.00  0.00    +0.000 C 
ATOM     19  O   UNL     1      -6.460  12.709  20.263  0.00  0.00    +0.000 OA
ATOM     20  N   UNL     1      -4.942  11.933  18.723  0.00  0.00    +0.000 N 
ATOM     21  C   UNL     1      -5.986  11.543  17.793  0.00  0.00    +0.000 C 
BRANCH  15  22
ATOM     22  C   UNL     1      -1.863  12.991  21.646  0.00  0.00    +0.000 C 
ATOM     23  C   UNL     1      -1.504  14.476  21.599  0.00  0.00    +0.000 C 
ATOM     24  C   UNL     1      -2.137  12.547  23.086  0.00  0.00    +0.000 C 
ENDBRANCH  15  22
ENDBRANCH   6   9
BRANCH   1  31
ATOM     25  C   UNL     1       1.969   4.418  18.620  0.00  0.00    +0.000 C 
ATOM     26  C   UNL     1       3.155   5.010  17.892  0.00  0.00    +0.000 A 
ATOM     27  C   UNL     1       4.092   4.164  17.238  0.00  0.00    +0.000 A 
ATOM     28  C   UNL     1       5.220   4.726  16.628  0.00  0.00    +0.000 A 
ATOM     29  C   UNL     1       5.385   6.101  16.552  0.00  0.00    +0.000 A 
ATOM     30  C   UNL     1       4.451   6.935  17.157  0.00  0.00    +0.000 A 
ATOM     31  C   UNL     1       3.341   6.428  17.876  0.00  0.00    +0.000 A 
BRANCH  27  32
ATOM     32  N   UNL     1       4.078   2.763  17.380  0.00  0.00    +0.000 N 
ATOM     33  H   UNL     1       4.076   2.431  18.336  0.00  0.00    +0.000 HD
ATOM     34  H   UNL     1       3.351   2.309  16.835  0.00  0.00    +0.000 HD
ENDBRANCH  27  32
ENDBRANCH   1  31
TORSDOF 4
ENDMDL
MODEL 2
REMARK VINA RESULT:      -8.6      1.612      2.117
REMARK  Name = 
REMARK  9 active torsions:
REMARK  status: ('A' for Active; 'I' for Inactive)
REMARK    1  A    between atoms: C_1  and  C_2
REMARK    2  A    between atoms: C_3  and  N_4
REMARK    3  A    between atoms: C_8  and  C_9
REMARK    4  A    between atoms: N_14  and  C_15
REMARK    5  A    between atoms: N_21  and  C_22
REMARK    6  A    between atoms: C_22  and  C_23
REMARK    7  A    between atoms: C_22  and  C_24
REMARK    8  A    between atoms: C_25  and  C_26
REMARK    9  A    between atoms: N_29  and  C_30
REMARK                            x       y       z     vdW  Elec       q    Type
REMARK                         _______ _______ _______ _____ _____    ______ ____
ROOT
ATOM      1  C   UNL     1       3.514   5.984  18.552  0.00  0.00    +0.000 A 
ATOM      2  C   UNL     1       2.919   5.403  19.653  0.00  0.00    +0.000 A 
ATOM      3  C   UNL     1       2.002   6.160  20.336  0.00  0.00    +0.000 A 
ATOM      4  N   UNL     1       1.663   7.407  19.967  0.00  0.00    +0.000 NA
ATOM      5  C   UNL     1       2.267   7.910  18.877  0.00  0.00    +0.000 A 
ATOM      6  N   UNL     1       1.899   9.186  18.420  0.00  0.00    +0.000 N 
ATOM      7  N   UNL     1       3.204   7.249  18.179  0.00  0.00    +0.000 NA
ATOM      8  H   UNL     1       2.403   9.355  17.558  0.00  0.00    +0.000 HD
ENDROOT
BRANCH   6   9
ATOM      9  C   UNL     1       0.595   9.740  18.413  0.00  0.00    +0.000 A 
ATOM     10  C   UNL     1      -0.296   9.494  17.376  0.00  0.00    +0.000 A 
ATOM     11  C   UNL     1      -1.570  10.055  17.382  0.00  0.00    +0.000 A 
ATOM     12  C   UNL     1      -1.994  10.884  18.433  0.00  0.00    +0.000 A 
ATOM     13  C   UNL     1      -1.111  11.184  19.517  0.00  0.00    +0.000 A 
ATOM     14  C   UNL     1       0.180  10.590  19.461  0.00  0.00    +0.000 A 
ATOM     15  N   UNL     1      -1.550  12.001  20.615  0.00  0.00    +0.000 N 
ATOM     16  C   UNL     1      -2.640  12.931  20.184  0.00  0.00    +0.000 C 
ATOM     17  C   UNL     1      -3.287  13.800  21.257  0.00  0.00    +0.000 C 
ATOM     18  C   UNL     1      -3.775  12.167  19.475  0.00  0.00    +0.000 C 
ATOM     19  O   UNL     1      -4.971  12.348  19.714  0.00  0.00    +0.000 OA
ATOM     20  N   UNL     1      -3.334  11.370  18.432  0.00  0.00    +0.000 N 
ATOM     21  C   UNL     1      -4.275  11.014  17.386  0.00  0.00    +0.000 C 
BRANCH  15  22
ATOM     22  C   UNL     1      -0.592  12.339  21.701  0.00  0.00    +0.000 C 
ATOM     23  C   UNL     1       0.094  13.690  21.495  0.00  0.00    +0.000 C 
ATOM     24  C   UNL     1      -1.183  12.243  23.112  0.00  0.00    +0.000 C 
ENDBRANCH  15  22
ENDBRANCH   6   9
BRANCH   1  31
ATOM     25  C   UNL     1       6.352   5.500  19.463  0.00  0.00    +0.000 C 
ATOM     26  C   UNL     1       5.869   5.021  18.113  0.00  0.00    +0.000 A 
ATOM     27  C   UNL     1       6.769   4.389  17.212  0.00  0.00    +0.000 A 
ATOM     28  C   UNL     1       6.321   4.013  15.939  0.00  0.00    +0.000 A 
ATOM     29  C   UNL     1       4.989   4.145  15.580  0.00  0.00    +0.000 A 
ATOM     30  C   UNL     1       4.095   4.728  16.471  0.00  0.00    +0.000 A 
ATOM     31  C   UNL     1       4.504   5.220  17.735  0.00  0.00    +0.000 A 
BRANCH  27  32
ATOM     32  N   UNL     1       8.159   4.338  17.436  0.00  0.00    +0.000 N 
ATOM     33  H   UNL     1       8.623   5.237  17.441  0.00  0.00    +0.000 HD
ATOM     34  H   UNL     1       8.416   3.791  18.252  0.00  0.00    +0.000 HD
ENDBRANCH  27  32
ENDBRANCH   1  31
TORSDOF 4
ENDMDL
MODEL 3
REMARK VINA RESULT:      -8.5      1.116      1.649
REMARK  Name = 
REMARK  9 active torsions:
REMARK  status: ('A' for Active; 'I' for Inactive)
REMARK    1  A    between atoms: C_1  and  C_2
REMARK    2  A    between atoms: C_3  and  N_4
REMARK    3  A    between atoms: C_8  and  C_9
REMARK    4  A    between atoms: N_14  and  C_15
REMARK    5  A    between atoms: N_21  and  C_22
REMARK    6  A    between atoms: C_22  and  C_23
REMARK    7  A    between atoms: C_22  and  C_24
REMARK    8  A    between atoms: C_25  and  C_26
REMARK    9  A    between atoms: N_29  and  C_30
REMARK                            x       y       z     vdW  Elec       q    Type
REMARK                         _______ _______ _______ _____ _____    ______ ____
ROOT
ATOM      1  C   UNL     1       2.925   6.777  18.538  0.00  0.00    +0.000 A 
ATOM      2  C   UNL     1       2.701   6.556  19.881  0.00  0.00    +0.000 A 
ATOM      3  C   UNL     1       1.923   7.473  20.540  0.00  0.00    +0.000 A 
ATOM      4  N   UNL     1       1.374   8.538  19.933  0.00  0.00    +0.000 NA
ATOM      5  C   UNL     1       1.617   8.689  18.620  0.00  0.00    +0.000 A 
ATOM      6  N   UNL     1       1.014   9.754  17.932  0.00  0.00    +0.000 N 
ATOM      7  N   UNL     1       2.402   7.860  17.913  0.00  0.00    +0.000 NA
ATOM      8  H   UNL     1       1.255   9.656  16.953  0.00  0.00    +0.000 HD
ENDROOT
BRANCH   6   9
ATOM      9  C   UNL     1      -0.295  10.257  18.128  0.00  0.00    +0.000 A 
ATOM     10  C   UNL     1      -1.330   9.961  17.248  0.00  0.00    +0.000 A 
ATOM     11  C   UNL     1      -2.608  10.472  17.453  0.00  0.00    +0.000 A 
ATOM     12  C   UNL     1      -2.893  11.299  18.552  0.00  0.00    +0.000 A 
ATOM     13  C   UNL     1      -1.861  11.649  19.479  0.00  0.00    +0.000 A 
ATOM     14  C   UNL     1      -0.573  11.105  19.222  0.00  0.00    +0.000 A 
ATOM     15  N   UNL     1      -2.153  12.464  20.626  0.00  0.00    +0.000 N 
ATOM     16  C   UNL     1      -3.335  13.344  20.368  0.00  0.00    +0.000 C 
ATOM     17  C   UNL     1      -3.838  14.203  21.523  0.00  0.00    +0.000 C 
ATOM     18  C   UNL     1      -4.537  12.527  19.854  0.00  0.00    +0.000 C 
ATOM     19  O   UNL     1      -5.685  12.665  20.279  0.00  0.00    +0.000 OA
ATOM     20  N   UNL     1      -4.235  11.732  18.761  0.00  0.00    +0.000 N 
ATOM     21  C   UNL     1      -5.314  11.325  17.880  0.00  0.00    +0.000 C 
BRANCH  15  22
ATOM     22  C   UNL     1      -1.050  12.854  21.543  0.00  0.00    +0.000 C 
ATOM     23  C   UNL     1      -0.579  14.294  21.334  0.00  0.00    +0.000 C 
ATOM     24  C   UNL     1      -1.341  12.591  23.024  0.00  0.00    +0.000 C 
ENDBRANCH  15  22
ENDBRANCH   6   9
BRANCH   1  31
ATOM     25  C   UNL     1       5.583   7.518  17.311  0.00  0.00    +0.000 C 
ATOM     26  C   UNL     1       4.975   6.150  17.098  0.00  0.00    +0.000 A 
ATOM     27  C   UNL     1       5.616   5.204  16.253  0.00  0.00    +0.000 A 
ATOM     28  C   UNL     1       5.004   3.967  16.013  0.00  0.00    +0.000 A 
ATOM     29  C   UNL     1       3.839   3.604  16.671  0.00  0.00    +0.000 A 
ATOM     30  C   UNL     1       3.227   4.511  17.529  0.00  0.00    +0.000 A 
ATOM     31  C   UNL     1       3.740   5.815  17.737  0.00  0.00    +0.000 A 
BRANCH  27  32
ATOM     32  N   UNL     1       6.720   5.533  15.443  0.00  0.00    +0.000 N 
ATOM     33  H   UNL     1       7.576   5.726  15.947  0.00  0.00    +0.000 HD
ATOM     34  H   UNL     1       6.881   4.870  14.691  0.00  0.00    +0.000 HD
ENDBRANCH  27  32
ENDBRANCH   1  31
TORSDOF 4
ENDMDL
MODEL 4
REMARK VINA RESULT:      -8.5      3.322      9.845
REMARK  Name = 
REMARK  9 active torsions:
REMARK  status: ('A' for Active; 'I' for Inactive)
REMARK    1  A    between atoms: C_1  and  C_2
REMARK    2  A    between atoms: C_3  and  N_4
REMARK    3  A    between atoms: C_8  and  C_9
REMARK    4  A    between atoms: N_14  and  C_15
REMARK    5  A    between atoms: N_21  and  C_22
REMARK    6  A    between atoms: C_22  and  C_23
REMARK    7  A    between atoms: C_22  and  C_24
REMARK    8  A    between atoms: C_25  and  C_26
REMARK    9  A    between atoms: N_29  and  C_30
REMARK                            x       y       z     vdW  Elec       q    Type
REMARK                         _______ _______ _______ _____ _____    ______ ____
ROOT
ATOM      1  C   UNL     1      -1.075  11.834  20.083  0.00  0.00    +0.000 A 
ATOM      2  C   UNL     1      -0.274  12.729  19.404  0.00  0.00    +0.000 A 
ATOM      3  C   UNL     1       0.992  12.312  19.084  0.00  0.00    +0.000 A 
ATOM      4  N   UNL     1       1.458  11.089  19.388  0.00  0.00    +0.000 NA
ATOM      5  C   UNL     1       0.625  10.258  20.037  0.00  0.00    +0.000 A 
ATOM      6  N   UNL     1       1.048   8.950  20.322  0.00  0.00    +0.000 N 
ATOM      7  N   UNL     1      -0.615  10.605  20.422  0.00  0.00    +0.000 NA
ATOM      8  H   UNL     1       0.264   8.464  20.740  0.00  0.00    +0.000 HD
ENDROOT
BRANCH   6   9
ATOM      9  C   UNL     1       1.833   8.114  19.490  0.00  0.00    +0.000 A 
ATOM     10  C   UNL     1       2.517   8.615  18.389  0.00  0.00    +0.000 A 
ATOM     11  C   UNL     1       3.276   7.776  17.579  0.00  0.00    +0.000 A 
ATOM     12  C   UNL     1       3.375   6.401  17.847  0.00  0.00    +0.000 A 
ATOM     13  C   UNL     1       2.679   5.830  18.958  0.00  0.00    +0.000 A 
ATOM     14  C   UNL     1       1.914   6.729  19.751  0.00  0.00    +0.000 A 
ATOM     15  N   UNL     1       2.805   4.431  19.261  0.00  0.00    +0.000 N 
ATOM     16  C   UNL     1       3.138   3.647  18.031  0.00  0.00    +0.000 C 
ATOM     17  C   UNL     1       3.405   2.155  18.199  0.00  0.00    +0.000 C 
ATOM     18  C   UNL     1       4.357   4.246  17.302  0.00  0.00    +0.000 C 
ATOM     19  O   UNL     1       5.295   3.570  16.874  0.00  0.00    +0.000 OA
ATOM     20  N   UNL     1       4.228   5.598  17.034  0.00  0.00    +0.000 N 
ATOM     21  C   UNL     1       5.009   6.168  15.952  0.00  0.00    +0.000 C 
BRANCH  15  22
ATOM     22  C   UNL     1       2.027   3.856  20.390  0.00  0.00    +0.000 C 
ATOM     23  C   UNL     1       0.708   3.222  19.946  0.00  0.00    +0.000 C 
ATOM     24  C   UNL     1       2.821   2.887  21.272  0.00  0.00    +0.000 C 
ENDBRANCH  15  22
ENDBRANCH   6   9
BRANCH   1  31
ATOM     25  C   UNL     1      -1.929  12.390  22.925  0.00  0.00    +0.000 C 
ATOM     26  C   UNL     1      -2.925  12.413  21.788  0.00  0.00    +0.000 A 
ATOM     27  C   UNL     1      -4.306  12.631  22.048  0.00  0.00    +0.000 A 
ATOM     28  C   UNL     1      -5.224  12.580  20.991  0.00  0.00    +0.000 A 
ATOM     29  C   UNL     1      -4.799  12.431  19.680  0.00  0.00    +0.000 A 
ATOM     30  C   UNL     1      -3.445  12.256  19.415  0.00  0.00    +0.000 A 
ATOM     31  C   UNL     1      -2.477  12.197  20.447  0.00  0.00    +0.000 A 
BRANCH  27  32
ATOM     32  N   UNL     1      -4.839  12.653  23.351  0.00  0.00    +0.000 N 
ATOM     33  H   UNL     1      -4.380  13.290  23.989  0.00  0.00    +0.000 HD
ATOM     34  H   UNL     1      -5.847  12.778  23.373  0.00  0.00    +0.000 HD
ENDBRANCH  27  32
ENDBRANCH   1  31
TORSDOF 4
ENDMDL
MODEL 5
REMARK VINA RESULT:      -8.4      3.158      9.815
REMARK  Name = 
REMARK  9 active torsions:
REMARK  status: ('A' for Active; 'I' for Inactive)
REMARK    1  A    between atoms: C_1  and  C_2
REMARK    2  A    between atoms: C_3  and  N_4
REMARK    3  A    between atoms: C_8  and  C_9
REMARK    4  A    between atoms: N_14  and  C_15
REMARK    5  A    between atoms: N_21  and  C_22
REMARK    6  A    between atoms: C_22  and  C_23
REMARK    7  A    between atoms: C_22  and  C_24
REMARK    8  A    between atoms: C_25  and  C_26
REMARK    9  A    between atoms: N_29  and  C_30
REMARK                            x       y       z     vdW  Elec       q    Type
REMARK                         _______ _______ _______ _____ _____    ______ ____
ROOT
ATOM      1  C   UNL     1      -1.102  11.813  19.580  0.00  0.00    +0.000 A 
ATOM      2  C   UNL     1      -0.279  12.701  18.919  0.00  0.00    +0.000 A 
ATOM      3  C   UNL     1       1.006  12.290  18.673  0.00  0.00    +0.000 A 
ATOM      4  N   UNL     1       1.469  11.080  19.029  0.00  0.00    +0.000 NA
ATOM      5  C   UNL     1       0.613  10.256  19.657  0.00  0.00    +0.000 A 
ATOM      6  N   UNL     1       1.035   8.960  19.995  0.00  0.00    +0.000 N 
ATOM      7  N   UNL     1      -0.647  10.598  19.972  0.00  0.00    +0.000 NA
ATOM      8  H   UNL     1       0.236   8.475  20.386  0.00  0.00    +0.000 HD
ENDROOT
BRANCH   6   9
ATOM      9  C   UNL     1       1.869   8.113  19.224  0.00  0.00    +0.000 A 
ATOM     10  C   UNL     1       2.603   8.596  18.147  0.00  0.00    +0.000 A 
ATOM     11  C   UNL     1       3.409   7.745  17.396  0.00  0.00    +0.000 A 
ATOM     12  C   UNL     1       3.508   6.379  17.701  0.00  0.00    +0.000 A 
ATOM     13  C   UNL     1       2.761   5.826  18.789  0.00  0.00    +0.000 A 
ATOM     14  C   UNL     1       1.949   6.736  19.521  0.00  0.00    +0.000 A 
ATOM     15  N   UNL     1       2.885   4.436  19.131  0.00  0.00    +0.000 N 
ATOM     16  C   UNL     1       3.287   3.627  17.939  0.00  0.00    +0.000 C 
ATOM     17  C   UNL     1       3.559   2.143  18.155  0.00  0.00    +0.000 C 
ATOM     18  C   UNL     1       4.536   4.222  17.258  0.00  0.00    +0.000 C 
ATOM     19  O   UNL     1       5.500   3.545  16.894  0.00  0.00    +0.000 OA
ATOM     20  N   UNL     1       4.408   5.566  16.952  0.00  0.00    +0.000 N 
ATOM     21  C   UNL     1       5.237   6.119  15.897  0.00  0.00    +0.000 C 
BRANCH  15  22
ATOM     22  C   UNL     1       2.056   3.879  20.233  0.00  0.00    +0.000 C 
ATOM     23  C   UNL     1       0.797   3.170  19.735  0.00  0.00    +0.000 C 
ATOM     24  C   UNL     1       2.827   2.987  21.211  0.00  0.00    +0.000 C 
ENDBRANCH  15  22
ENDBRANCH   6   9
BRANCH   1  31
ATOM     25  C   UNL     1      -3.364  11.120  17.703  0.00  0.00    +0.000 C 
ATOM     26  C   UNL     1      -3.611  11.903  18.973  0.00  0.00    +0.000 A 
ATOM     27  C   UNL     1      -4.912  12.391  19.274  0.00  0.00    +0.000 A 
ATOM     28  C   UNL     1      -5.108  13.173  20.420  0.00  0.00    +0.000 A 
ATOM     29  C   UNL     1      -4.080  13.388  21.325  0.00  0.00    +0.000 A 
ATOM     30  C   UNL     1      -2.813  12.882  21.055  0.00  0.00    +0.000 A 
ATOM     31  C   UNL     1      -2.525  12.169  19.866  0.00  0.00    +0.000 A 
BRANCH  27  32
ATOM     32  N   UNL     1      -5.975  12.337  18.353  0.00  0.00    +0.000 N 
ATOM     33  H   UNL     1      -5.759  11.878  17.478  0.00  0.00    +0.000 HD
ATOM     34  H   UNL     1      -6.836  11.975  18.751  0.00  0.00    +0.000 HD
ENDBRANCH  27  32
ENDBRANCH   1  31
TORSDOF 4
ENDMDL
MODEL 6
REMARK VINA RESULT:      -8.2      1.141      1.314
REMARK  Name = 
REMARK  9 active torsions:
REMARK  status: ('A' for Active; 'I' for Inactive)
REMARK    1  A    between atoms: C_1  and  C_2
REMARK    2  A    between atoms: C_3  and  N_4
REMARK    3  A    between atoms: C_8  and  C_9
REMARK    4  A    between atoms: N_14  and  C_15
REMARK    5  A    between atoms: N_21  and  C_22
REMARK    6  A    between atoms: C_22  and  C_23
REMARK    7  A    between atoms: C_22  and  C_24
REMARK    8  A    between atoms: C_25  and  C_26
REMARK    9  A    between atoms: N_29  and  C_30
REMARK                            x       y       z     vdW  Elec       q    Type
REMARK                         _______ _______ _______ _____ _____    ______ ____
ROOT
ATOM      1  C   UNL     1       3.486   6.728  18.393  0.00  0.00    +0.000 A 
ATOM      2  C   UNL     1       2.986   6.075  19.500  0.00  0.00    +0.000 A 
ATOM      3  C   UNL     1       2.030   6.732  20.231  0.00  0.00    +0.000 A 
ATOM      4  N   UNL     1       1.566   7.950  19.902  0.00  0.00    +0.000 NA
ATOM      5  C   UNL     1       2.083   8.527  18.804  0.00  0.00    +0.000 A 
ATOM      6  N   UNL     1       1.586   9.773  18.389  0.00  0.00    +0.000 N 
ATOM      7  N   UNL     1       3.051   7.968  18.060  0.00  0.00    +0.000 NA
ATOM      8  H   UNL     1       2.042  10.003  17.514  0.00  0.00    +0.000 HD
ENDROOT
BRANCH   6   9
ATOM      9  C   UNL     1       0.238  10.206  18.438  0.00  0.00    +0.000 A 
ATOM     10  C   UNL     1      -0.688   9.820  17.477  0.00  0.00    +0.000 A 
ATOM     11  C   UNL     1      -2.006  10.264  17.538  0.00  0.00    +0.000 A 
ATOM     12  C   UNL     1      -2.440  11.113  18.568  0.00  0.00    +0.000 A 
ATOM     13  C   UNL     1      -1.524  11.555  19.574  0.00  0.00    +0.000 A 
ATOM     14  C   UNL     1      -0.189  11.077  19.464  0.00  0.00    +0.000 A 
ATOM     15  N   UNL     1      -1.970  12.394  20.652  0.00  0.00    +0.000 N 
ATOM     16  C   UNL     1      -3.165  13.195  20.246  0.00  0.00    +0.000 C 
ATOM     17  C   UNL     1      -3.824  14.065  21.310  0.00  0.00    +0.000 C 
ATOM     18  C   UNL     1      -4.266  12.292  19.655  0.00  0.00    +0.000 C 
ATOM     19  O   UNL     1      -5.457  12.379  19.963  0.00  0.00    +0.000 OA
ATOM     20  N   UNL     1      -3.817  11.476  18.630  0.00  0.00    +0.000 N 
ATOM     21  C   UNL     1      -4.782  10.975  17.669  0.00  0.00    +0.000 C 
BRANCH  15  22
ATOM     22  C   UNL     1      -0.983  12.881  21.653  0.00  0.00    +0.000 C 
ATOM     23  C   UNL     1      -0.584  14.341  21.439  0.00  0.00    +0.000 C 
ATOM     24  C   UNL     1      -1.395  12.642  23.109  0.00  0.00    +0.000 C 
ENDBRANCH  15  22
ENDBRANCH   6   9
BRANCH   1  31
ATOM     25  C   UNL     1       3.150   3.935  17.296  0.00  0.00    +0.000 C 
ATOM     26  C   UNL     1       4.407   4.734  17.035  0.00  0.00    +0.000 A 
ATOM     27  C   UNL     1       5.490   4.154  16.321  0.00  0.00    +0.000 A 
ATOM     28  C   UNL     1       6.673   4.885  16.148  0.00  0.00    +0.000 A 
ATOM     29  C   UNL     1       6.768   6.204  16.564  0.00  0.00    +0.000 A 
ATOM     30  C   UNL     1       5.697   6.789  17.231  0.00  0.00    +0.000 A 
ATOM     31  C   UNL     1       4.511   6.074  17.526  0.00  0.00    +0.000 A 
BRANCH  27  32
ATOM     32  N   UNL     1       5.533   2.787  15.984  0.00  0.00    +0.000 N 
ATOM     33  H   UNL     1       6.422   2.335  16.153  0.00  0.00    +0.000 HD
ATOM     34  H   UNL     1       4.769   2.250  16.382  0.00  0.00    +0.000 HD
ENDBRANCH  27  32
ENDBRANCH   1  31
TORSDOF 4
ENDMDL
MODEL 7
REMARK VINA RESULT:      -8.1      3.434      9.978
REMARK  Name = 
REMARK  9 active torsions:
REMARK  status: ('A' for Active; 'I' for Inactive)
REMARK    1  A    between atoms: C_1  and  C_2
REMARK    2  A    between atoms: C_3  and  N_4
REMARK    3  A    between atoms: C_8  and  C_9
REMARK    4  A    between atoms: N_14  and  C_15
REMARK    5  A    between atoms: N_21  and  C_22
REMARK    6  A    between atoms: C_22  and  C_23
REMARK    7  A    between atoms: C_22  and  C_24
REMARK    8  A    between atoms: C_25  and  C_26
REMARK    9  A    between atoms: N_29  and  C_30
REMARK                            x       y       z     vdW  Elec       q    Type
REMARK                         _______ _______ _______ _____ _____    ______ ____
ROOT
ATOM      1  C   UNL     1      -0.727  11.519  20.770  0.00  0.00    +0.000 A 
ATOM      2  C   UNL     1      -1.210  11.520  19.478  0.00  0.00    +0.000 A 
ATOM      3  C   UNL     1      -0.623  10.650  18.595  0.00  0.00    +0.000 A 
ATOM      4  N   UNL     1       0.366   9.810  18.943  0.00  0.00    +0.000 NA
ATOM      5  C   UNL     1       0.781   9.847  20.221  0.00  0.00    +0.000 A 
ATOM      6  N   UNL     1       1.770   8.945  20.644  0.00  0.00    +0.000 N 
ATOM      7  N   UNL     1       0.287  10.698  21.135  0.00  0.00    +0.000 NA
ATOM      8  H   UNL     1       1.891   9.076  21.641  0.00  0.00    +0.000 HD
ENDROOT
BRANCH   6   9
ATOM      9  C   UNL     1       1.909   7.593  20.247  0.00  0.00    +0.000 A 
ATOM     10  C   UNL     1       1.178   6.576  20.848  0.00  0.00    +0.000 A 
ATOM     11  C   UNL     1       1.336   5.252  20.450  0.00  0.00    +0.000 A 
ATOM     12  C   UNL     1       2.236   4.902  19.431  0.00  0.00    +0.000 A 
ATOM     13  C   UNL     1       3.027   5.906  18.789  0.00  0.00    +0.000 A 
ATOM     14  C   UNL     1       2.831   7.242  19.236  0.00  0.00    +0.000 A 
ATOM     15  N   UNL     1       3.923   5.561  17.720  0.00  0.00    +0.000 N 
ATOM     16  C   UNL     1       4.371   4.139  17.838  0.00  0.00    +0.000 C 
ATOM     17  C   UNL     1       5.250   3.584  16.723  0.00  0.00    +0.000 C 
ATOM     18  C   UNL     1       3.167   3.186  17.983  0.00  0.00    +0.000 C 
ATOM     19  O   UNL     1       3.051   2.135  17.350  0.00  0.00    +0.000 OA
ATOM     20  N   UNL     1       2.303   3.543  19.005  0.00  0.00    +0.000 N 
ATOM     21  C   UNL     1       1.453   2.519  19.583  0.00  0.00    +0.000 C 
BRANCH  15  22
ATOM     22  C   UNL     1       4.771   6.619  17.109  0.00  0.00    +0.000 C 
ATOM     23  C   UNL     1       6.173   6.685  17.714  0.00  0.00    +0.000 C 
ATOM     24  C   UNL     1       4.844   6.560  15.580  0.00  0.00    +0.000 C 
ENDBRANCH  15  22
ENDBRANCH   6   9
BRANCH   1  31
ATOM     25  C   UNL     1       0.523  14.149  21.569  0.00  0.00    +0.000 C 
ATOM     26  C   UNL     1      -0.731  13.641  22.242  0.00  0.00    +0.000 A 
ATOM     27  C   UNL     1      -1.311  14.365  23.320  0.00  0.00    +0.000 A 
ATOM     28  C   UNL     1      -2.433  13.844  23.977  0.00  0.00    +0.000 A 
ATOM     29  C   UNL     1      -3.057  12.691  23.526  0.00  0.00    +0.000 A 
ATOM     30  C   UNL     1      -2.517  11.998  22.448  0.00  0.00    +0.000 A 
ATOM     31  C   UNL     1      -1.327  12.417  21.803  0.00  0.00    +0.000 A 
BRANCH  27  32
ATOM     32  N   UNL     1      -0.673  15.463  23.928  0.00  0.00    +0.000 N 
ATOM     33  H   UNL     1      -1.159  15.851  24.726  0.00  0.00    +0.000 HD
ATOM     34  H   UNL     1       0.305  15.293  24.143  0.00  0.00    +0.000 HD
ENDBRANCH  27  32
ENDBRANCH   1  31
TORSDOF 4
ENDMDL
MODEL 8
REMARK VINA RESULT:      -8.0      1.088      2.856
REMARK  Name = 
REMARK  9 active torsions:
REMARK  status: ('A' for Active; 'I' for Inactive)
REMARK    1  A    between atoms: C_1  and  C_2
REMARK    2  A    between atoms: C_3  and  N_4
REMARK    3  A    between atoms: C_8  and  C_9
REMARK    4  A    between atoms: N_14  and  C_15
REMARK    5  A    between atoms: N_21  and  C_22
REMARK    6  A    between atoms: C_22  and  C_23
REMARK    7  A    between atoms: C_22  and  C_24
REMARK    8  A    between atoms: C_25  and  C_26
REMARK    9  A    between atoms: N_29  and  C_30
REMARK                            x       y       z     vdW  Elec       q    Type
REMARK                         _______ _______ _______ _____ _____    ______ ____
ROOT
ATOM      1  C   UNL     1       2.144   7.616  19.321  0.00  0.00    +0.000 A 
ATOM      2  C   UNL     1       1.844   7.169  20.591  0.00  0.00    +0.000 A 
ATOM      3  C   UNL     1       1.158   8.032  21.406  0.00  0.00    +0.000 A 
ATOM      4  N   UNL     1       0.765   9.255  21.013  0.00  0.00    +0.000 NA
ATOM      5  C   UNL     1       1.075   9.625  19.759  0.00  0.00    +0.000 A 
ATOM      6  N   UNL     1       0.633  10.871  19.285  0.00  0.00    +0.000 N 
ATOM      7  N   UNL     1       1.780   8.856  18.913  0.00  0.00    +0.000 NA
ATOM      8  H   UNL     1       0.897  10.934  18.310  0.00  0.00    +0.000 HD
ENDROOT
BRANCH   6   9
ATOM      9  C   UNL     1      -0.613  11.487  19.558  0.00  0.00    +0.000 A 
ATOM     10  C   UNL     1      -0.789  12.326  20.652  0.00  0.00    +0.000 A 
ATOM     11  C   UNL     1      -2.024  12.914  20.909  0.00  0.00    +0.000 A 
ATOM     12  C   UNL     1      -3.128  12.681  20.074  0.00  0.00    +0.000 A 
ATOM     13  C   UNL     1      -3.007  11.813  18.943  0.00  0.00    +0.000 A 
ATOM     14  C   UNL     1      -1.727  11.233  18.728  0.00  0.00    +0.000 A 
ATOM     15  N   UNL     1      -4.123  11.598  18.063  0.00  0.00    +0.000 N 
ATOM     16  C   UNL     1      -5.417  11.808  18.781  0.00  0.00    +0.000 C 
ATOM     17  C   UNL     1      -6.699  11.715  17.961  0.00  0.00    +0.000 C 
ATOM     18  C   UNL     1      -5.439  13.169  19.504  0.00  0.00    +0.000 C 
ATOM     19  O   UNL     1      -6.394  13.948  19.461  0.00  0.00    +0.000 OA
ATOM     20  N   UNL     1      -4.349  13.369  20.334  0.00  0.00    +0.000 N 
ATOM     21  C   UNL     1      -4.473  14.317  21.426  0.00  0.00    +0.000 C 
BRANCH  15  22
ATOM     22  C   UNL     1      -3.982  10.649  16.926  0.00  0.00    +0.000 C 
ATOM     23  C   UNL     1      -3.297  11.270  15.710  0.00  0.00    +0.000 C 
ATOM     24  C   UNL     1      -3.321   9.318  17.297  0.00  0.00    +0.000 C 
ENDBRANCH  15  22
ENDBRANCH   6   9
BRANCH   1  31
ATOM     25  C   UNL     1       1.598   4.654  19.103  0.00  0.00    +0.000 C 
ATOM     26  C   UNL     1       2.670   5.317  18.268  0.00  0.00    +0.000 A 
ATOM     27  C   UNL     1       3.492   4.540  17.407  0.00  0.00    +0.000 A 
ATOM     28  C   UNL     1       4.525   5.162  16.693  0.00  0.00    +0.000 A 
ATOM     29  C   UNL     1       4.690   6.538  16.723  0.00  0.00    +0.000 A 
ATOM     30  C   UNL     1       3.863   7.308  17.534  0.00  0.00    +0.000 A 
ATOM     31  C   UNL     1       2.866   6.731  18.357  0.00  0.00    +0.000 A 
BRANCH  27  32
ATOM     32  N   UNL     1       3.486   3.132  17.418  0.00  0.00    +0.000 N 
ATOM     33  H   UNL     1       2.612   2.708  17.137  0.00  0.00    +0.000 HD
ATOM     34  H   UNL     1       4.268   2.721  16.917  0.00  0.00    +0.000 HD
ENDBRANCH  27  32
ENDBRANCH   1  31
TORSDOF 4
ENDMDL
MODEL 9
REMARK VINA RESULT:      -8.0      3.217      9.878
REMARK  Name = 
REMARK  9 active torsions:
REMARK  status: ('A' for Active; 'I' for Inactive)
REMARK    1  A    between atoms: C_1  and  C_2
REMARK    2  A    between atoms: C_3  and  N_4
REMARK    3  A    between atoms: C_8  and  C_9
REMARK    4  A    between atoms: N_14  and  C_15
REMARK    5  A    between atoms: N_21  and  C_22
REMARK    6  A    between atoms: C_22  and  C_23
REMARK    7  A    between atoms: C_22  and  C_24
REMARK    8  A    between atoms: C_25  and  C_26
REMARK    9  A    between atoms: N_29  and  C_30
REMARK                            x       y       z     vdW  Elec       q    Type
REMARK                         _______ _______ _______ _____ _____    ______ ____
ROOT
ATOM      1  C   UNL     1      -0.961  11.997  21.132  0.00  0.00    +0.000 A 
ATOM      2  C   UNL     1       0.101  12.860  20.958  0.00  0.00    +0.000 A 
ATOM      3  C   UNL     1       1.339  12.296  20.788  0.00  0.00    +0.000 A 
ATOM      4  N   UNL     1       1.542  10.967  20.771  0.00  0.00    +0.000 NA
ATOM      5  C   UNL     1       0.465  10.180  20.931  0.00  0.00    +0.000 A 
ATOM      6  N   UNL     1       0.620   8.786  20.859  0.00  0.00    +0.000 N 
ATOM      7  N   UNL     1      -0.774  10.655  21.143  0.00  0.00    +0.000 NA
ATOM      8  H   UNL     1      -0.303   8.376  20.928  0.00  0.00    +0.000 HD
ENDROOT
BRANCH   6   9
ATOM      9  C   UNL     1       1.475   8.074  19.983  0.00  0.00    +0.000 A 
ATOM     10  C   UNL     1       2.117   8.699  18.921  0.00  0.00    +0.000 A 
ATOM     11  C   UNL     1       2.946   7.979  18.066  0.00  0.00    +0.000 A 
ATOM     12  C   UNL     1       3.160   6.603  18.248  0.00  0.00    +0.000 A 
ATOM     13  C   UNL     1       2.511   5.906  19.315  0.00  0.00    +0.000 A 
ATOM     14  C   UNL     1       1.671   6.686  20.157  0.00  0.00    +0.000 A 
ATOM     15  N   UNL     1       2.754   4.506  19.530  0.00  0.00    +0.000 N 
ATOM     16  C   UNL     1       3.155   3.833  18.257  0.00  0.00    +0.000 C 
ATOM     17  C   UNL     1       3.546   2.361  18.333  0.00  0.00    +0.000 C 
ATOM     18  C   UNL     1       4.321   4.577  17.576  0.00  0.00    +0.000 C 
ATOM     19  O   UNL     1       5.313   4.010  17.114  0.00  0.00    +0.000 OA
ATOM     20  N   UNL     1       4.080   5.928  17.393  0.00  0.00    +0.000 N 
ATOM     21  C   UNL     1       4.813   6.628  16.355  0.00  0.00    +0.000 C 
BRANCH  15  22
ATOM     22  C   UNL     1       2.024   3.798  20.615  0.00  0.00    +0.000 C 
ATOM     23  C   UNL     1       0.751   3.107  20.127  0.00  0.00    +0.000 C 
ATOM     24  C   UNL     1       2.889   2.826  21.424  0.00  0.00    +0.000 C 
ENDBRANCH  15  22
ENDBRANCH   6   9
BRANCH   1  31
ATOM     25  C   UNL     1      -2.960  12.062  18.870  0.00  0.00    +0.000 C 
ATOM     26  C   UNL     1      -3.300  12.621  20.233  0.00  0.00    +0.000 A 
ATOM     27  C   UNL     1      -4.553  13.253  20.457  0.00  0.00    +0.000 A 
ATOM     28  C   UNL     1      -4.823  13.826  21.706  0.00  0.00    +0.000 A 
ATOM     29  C   UNL     1      -3.937  13.691  22.764  0.00  0.00    +0.000 A 
ATOM     30  C   UNL     1      -2.726  13.039  22.562  0.00  0.00    +0.000 A 
ATOM     31  C   UNL     1      -2.348  12.526  21.297  0.00  0.00    +0.000 A 
BRANCH  27  32
ATOM     32  N   UNL     1      -5.449  13.555  19.413  0.00  0.00    +0.000 N 
ATOM     33  H   UNL     1      -5.057  13.492  18.483  0.00  0.00    +0.000 HD
ATOM     34  H   UNL     1      -6.326  13.046  19.474  0.00  0.00    +0.000 HD
ENDBRANCH  27  32
ENDBRANCH   1  31
TORSDOF 4
ENDMDL
