MODEL 1
REMARK VINA RESULT:      -8.4      0.000      0.000
REMARK  Name = 
REMARK  6 active torsions:
REMARK  status: ('A' for Active; 'I' for Inactive)
REMARK    1  A    between atoms: C_1  and  N_2
REMARK    2  A    between atoms: C_6  and  C_8
REMARK    3  A    between atoms: C_8  and  N_9
REMARK    4  A    between atoms: C_13  and  N_14
REMARK    5  A    between atoms: N_14  and  S_15
REMARK    6  A    between atoms: S_15  and  C_18
REMARK                            x       y       z     vdW  Elec       q    Type
REMARK                         _______ _______ _______ _____ _____    ______ ____
ROOT
ATOM      1  N   UNL     1       1.631   8.747  19.038  0.00  0.00    +0.000 N 
ATOM      2  C   UNL     1       1.593   8.222  20.400  0.00  0.00    +0.000 C 
ATOM      3  C   UNL     1       0.428   8.751  21.222  0.00  0.00    +0.000 C 
ATOM      4  C   UNL     1       0.388  10.270  21.153  0.00  0.00    +0.000 C 
ATOM      5  C   UNL     1       0.322  10.758  19.704  0.00  0.00    +0.000 C 
ATOM      6  C   UNL     1       1.424  10.116  18.854  0.00  0.00    +0.000 C 
ATOM      7  O   UNL     1       2.030  10.757  17.994  0.00  0.00    +0.000 OA
ENDROOT
BRANCH   5   8
ATOM      8  N   UNL     1      -1.038  10.494  19.179  0.00  0.00    +0.000 NA
ATOM      9  H   UNL     1      -1.655   9.946  19.776  0.00  0.00    +0.000 HD
BRANCH   8  10
ATOM     10  S   UNL     1      -1.915  11.769  18.514  0.00  0.00    +0.000 S 
ATOM     11  O   UNL     1      -0.932  12.801  18.256  0.00  0.00    +0.000 OA
ATOM     12  O   UNL     1      -2.747  11.258  17.450  0.00  0.00    +0.000 OA
BRANCH  10  13
ATOM     13  C   UNL     1      -2.926  12.353  19.848  0.00  0.00    +0.000 A 
ATOM     14  C   UNL     1      -2.345  12.710  21.063  0.00  0.00    +0.000 A 
ATOM     15  C   UNL     1      -3.162  13.037  22.147  0.00  0.00    +0.000 A 
ATOM     16  C   UNL     1      -4.563  12.986  22.037  0.00  0.00    +0.000 A 
ATOM     17  C   UNL     1      -5.390  13.263  23.133  0.00  0.00    +0.000 A 
ATOM     18  C   UNL     1      -6.777  13.180  23.009  0.00  0.00    +0.000 A 
ATOM     19 CL   UNL     1      -7.776  13.498  24.374  0.00  0.00    +0.000 Cl
ATOM     20  C   UNL     1      -7.359  12.828  21.796  0.00  0.00    +0.000 A 
ATOM     21  C   UNL     1      -6.548  12.555  20.693  0.00  0.00    +0.000 A 
ATOM     22  C   UNL     1      -5.148  12.624  20.798  0.00  0.00    +0.000 A 
ATOM     23  C   UNL     1      -4.317  12.315  19.709  0.00  0.00    +0.000 A 
ENDBRANCH  10  13
ENDBRANCH   8  10
ENDBRANCH   5   8
BRANCH   1  24
ATOM     24  C   UNL     1       2.545   8.089  18.093  0.00  0.00    +0.000 C 
BRANCH  24  30
ATOM     25  C   UNL     1       6.213   3.865  14.761  0.00  0.00    +0.000 C 
ATOM     26  N   UNL     1       5.774   4.569  15.965  0.00  0.00    +0.000 NA
ATOM     27  C   UNL     1       4.617   3.878  16.572  0.00  0.00    +0.000 C 
ATOM     28  C   UNL     1       4.138   4.588  17.848  0.00  0.00    +0.000 C 
ATOM     29  N   UNL     1       3.838   6.001  17.605  0.00  0.00    +0.000 N 
ATOM     30  C   UNL     1       2.791   6.584  18.317  0.00  0.00    +0.000 C 
ATOM     31  O   UNL     1       2.076   5.917  19.068  0.00  0.00    +0.000 OA
ATOM     32  C   UNL     1       4.898   6.731  16.901  0.00  0.00    +0.000 C 
ATOM     33  C   UNL     1       5.410   5.966  15.659  0.00  0.00    +0.000 C 
ENDBRANCH  24  30
ENDBRANCH   1  24
TORSDOF 5
ENDMDL
MODEL 2
REMARK VINA RESULT:      -8.4      4.203     10.618
REMARK  Name = 
REMARK  6 active torsions:
REMARK  status: ('A' for Active; 'I' for Inactive)
REMARK    1  A    between atoms: C_1  and  N_2
REMARK    2  A    between atoms: C_6  and  C_8
REMARK    3  A    between atoms: C_8  and  N_9
REMARK    4  A    between atoms: C_13  and  N_14
REMARK    5  A    between atoms: N_14  and  S_15
REMARK    6  A    between atoms: S_15  and  C_18
REMARK                            x       y       z     vdW  Elec       q    Type
REMARK                         _______ _______ _______ _____ _____    ______ ____
ROOT
ATOM      1  N   UNL     1      -0.791  11.494  22.339  0.00  0.00    +0.000 N 
ATOM      2  C   UNL     1      -0.692  10.387  23.284  0.00  0.00    +0.000 C 
ATOM      3  C   UNL     1       0.085   9.197  22.744  0.00  0.00    +0.000 C 
ATOM      4  C   UNL     1      -0.460   8.789  21.384  0.00  0.00    +0.000 C 
ATOM      5  C   UNL     1      -0.440   9.966  20.404  0.00  0.00    +0.000 C 
ATOM      6  C   UNL     1      -1.114  11.202  21.012  0.00  0.00    +0.000 C 
ATOM      7  O   UNL     1      -1.830  11.942  20.336  0.00  0.00    +0.000 OA
ENDROOT
BRANCH   5   8
ATOM      8  N   UNL     1       0.961  10.216  19.996  0.00  0.00    +0.000 NA
ATOM      9  H   UNL     1       1.684   9.891  20.636  0.00  0.00    +0.000 HD
BRANCH   8  10
ATOM     10  S   UNL     1       1.427   9.849  18.419  0.00  0.00    +0.000 S 
ATOM     11  O   UNL     1       0.188   9.575  17.721  0.00  0.00    +0.000 OA
ATOM     12  O   UNL     1       2.328  10.875  17.949  0.00  0.00    +0.000 OA
BRANCH  10  13
ATOM     13  C   UNL     1       2.284   8.305  18.559  0.00  0.00    +0.000 A 
ATOM     14  C   UNL     1       3.190   7.914  17.575  0.00  0.00    +0.000 A 
ATOM     15  C   UNL     1       3.754   6.638  17.625  0.00  0.00    +0.000 A 
ATOM     16  C   UNL     1       3.403   5.733  18.642  0.00  0.00    +0.000 A 
ATOM     17  C   UNL     1       3.925   4.433  18.672  0.00  0.00    +0.000 A 
ATOM     18  C   UNL     1       3.541   3.541  19.674  0.00  0.00    +0.000 A 
ATOM     19 CL   UNL     1       4.174   1.941  19.679  0.00  0.00    +0.000 Cl
ATOM     20  C   UNL     1       2.640   3.931  20.660  0.00  0.00    +0.000 A 
ATOM     21  C   UNL     1       2.117   5.224  20.647  0.00  0.00    +0.000 A 
ATOM     22  C   UNL     1       2.483   6.136  19.641  0.00  0.00    +0.000 A 
ATOM     23  C   UNL     1       1.935   7.428  19.591  0.00  0.00    +0.000 A 
ENDBRANCH  10  13
ENDBRANCH   8  10
ENDBRANCH   5   8
BRANCH   1  24
ATOM     24  C   UNL     1      -1.277  12.780  22.863  0.00  0.00    +0.000 C 
BRANCH  24  30
ATOM     25  C   UNL     1      -5.351  17.859  22.840  0.00  0.00    +0.000 C 
ATOM     26  N   UNL     1      -4.909  16.520  22.454  0.00  0.00    +0.000 NA
ATOM     27  C   UNL     1      -5.330  15.527  23.464  0.00  0.00    +0.000 C 
ATOM     28  C   UNL     1      -4.889  14.106  23.082  0.00  0.00    +0.000 C 
ATOM     29  N   UNL     1      -3.446  14.029  22.840  0.00  0.00    +0.000 N 
ATOM     30  C   UNL     1      -2.780  12.858  23.194  0.00  0.00    +0.000 C 
ATOM     31  O   UNL     1      -3.362  11.938  23.774  0.00  0.00    +0.000 OA
ATOM     32  C   UNL     1      -2.931  15.059  21.930  0.00  0.00    +0.000 C 
ATOM     33  C   UNL     1      -3.442  16.471  22.296  0.00  0.00    +0.000 C 
ENDBRANCH  24  30
ENDBRANCH   1  24
TORSDOF 5
ENDMDL
MODEL 3
REMARK VINA RESULT:      -8.4      1.749      2.661
REMARK  Name = 
REMARK  6 active torsions:
REMARK  status: ('A' for Active; 'I' for Inactive)
REMARK    1  A    between atoms: C_1  and  N_2
REMARK    2  A    between atoms: C_6  and  C_8
REMARK    3  A    between atoms: C_8  and  N_9
REMARK    4  A    between atoms: C_13  and  N_14
REMARK    5  A    between atoms: N_14  and  S_15
REMARK    6  A    between atoms: S_15  and  C_18
REMARK                            x       y       z     vdW  Elec       q    Type
REMARK                         _______ _______ _______ _____ _____    ______ ____
ROOT
ATOM      1  N   UNL     1       2.042   7.860  19.683  0.00  0.00    +0.000 N 
ATOM      2  C   UNL     1       2.126   8.052  18.239  0.00  0.00    +0.000 C 
ATOM      3  C   UNL     1       1.840   9.479  17.799  0.00  0.00    +0.000 C 
ATOM      4  C   UNL     1       0.529   9.959  18.402  0.00  0.00    +0.000 C 
ATOM      5  C   UNL     1       0.541   9.832  19.928  0.00  0.00    +0.000 C 
ATOM      6  C   UNL     1       0.958   8.421  20.361  0.00  0.00    +0.000 C 
ATOM      7  O   UNL     1       0.420   7.856  21.313  0.00  0.00    +0.000 OA
ENDROOT
BRANCH   5   8
ATOM      8  N   UNL     1       1.419  10.888  20.482  0.00  0.00    +0.000 NA
ATOM      9  H   UNL     1       2.408  10.827  20.241  0.00  0.00    +0.000 HD
BRANCH   8  10
ATOM     10  S   UNL     1       0.930  12.495  20.370  0.00  0.00    +0.000 S 
ATOM     11  O   UNL     1       1.614  13.169  21.453  0.00  0.00    +0.000 OA
ATOM     12  O   UNL     1       1.093  12.938  19.005  0.00  0.00    +0.000 OA
BRANCH  10  13
ATOM     13  C   UNL     1      -0.790  12.465  20.797  0.00  0.00    +0.000 A 
ATOM     14  C   UNL     1      -1.759  12.693  19.822  0.00  0.00    +0.000 A 
ATOM     15  C   UNL     1      -3.100  12.803  20.195  0.00  0.00    +0.000 A 
ATOM     16  C   UNL     1      -3.483  12.710  21.544  0.00  0.00    +0.000 A 
ATOM     17  C   UNL     1      -4.819  12.869  21.934  0.00  0.00    +0.000 A 
ATOM     18  C   UNL     1      -5.175  12.802  23.281  0.00  0.00    +0.000 A 
ATOM     19 CL   UNL     1      -6.818  13.025  23.743  0.00  0.00    +0.000 Cl
ATOM     20  C   UNL     1      -4.210  12.569  24.257  0.00  0.00    +0.000 A 
ATOM     21  C   UNL     1      -2.875  12.402  23.883  0.00  0.00    +0.000 A 
ATOM     22  C   UNL     1      -2.494  12.476  22.531  0.00  0.00    +0.000 A 
ATOM     23  C   UNL     1      -1.151  12.349  22.143  0.00  0.00    +0.000 A 
ENDBRANCH  10  13
ENDBRANCH   8  10
ENDBRANCH   5   8
BRANCH   1  24
ATOM     24  C   UNL     1       2.568   6.597  20.222  0.00  0.00    +0.000 C 
BRANCH  24  30
ATOM     25  C   UNL     1       6.978   4.551  15.890  0.00  0.00    +0.000 C 
ATOM     26  N   UNL     1       6.091   4.400  17.043  0.00  0.00    +0.000 NA
ATOM     27  C   UNL     1       4.729   4.037  16.600  0.00  0.00    +0.000 C 
ATOM     28  C   UNL     1       3.774   3.860  17.791  0.00  0.00    +0.000 C 
ATOM     29  N   UNL     1       3.748   5.046  18.650  0.00  0.00    +0.000 N 
ATOM     30  C   UNL     1       2.547   5.386  19.268  0.00  0.00    +0.000 C 
ATOM     31  O   UNL     1       1.508   4.764  19.038  0.00  0.00    +0.000 OA
ATOM     32  C   UNL     1       5.075   5.537  19.041  0.00  0.00    +0.000 C 
ATOM     33  C   UNL     1       6.037   5.643  17.837  0.00  0.00    +0.000 C 
ENDBRANCH  24  30
ENDBRANCH   1  24
TORSDOF 5
ENDMDL
MODEL 4
REMARK VINA RESULT:      -8.3      4.666      9.843
REMARK  Name = 
REMARK  6 active torsions:
REMARK  status: ('A' for Active; 'I' for Inactive)
REMARK    1  A    between atoms: C_1  and  N_2
REMARK    2  A    between atoms: C_6  and  C_8
REMARK    3  A    between atoms: C_8  and  N_9
REMARK    4  A    between atoms: C_13  and  N_14
REMARK    5  A    between atoms: N_14  and  S_15
REMARK    6  A    between atoms: S_15  and  C_18
REMARK                            x       y       z     vdW  Elec       q    Type
REMARK                         _______ _______ _______ _____ _____    ______ ____
ROOT
ATOM      1  N   UNL     1      -0.543  12.286  21.562  0.00  0.00    +0.000 N 
ATOM      2  C   UNL     1      -0.712  11.444  22.742  0.00  0.00    +0.000 C 
ATOM      3  C   UNL     1      -0.152  10.041  22.571  0.00  0.00    +0.000 C 
ATOM      4  C   UNL     1      -0.691   9.414  21.294  0.00  0.00    +0.000 C 
ATOM      5  C   UNL     1      -0.390  10.293  20.076  0.00  0.00    +0.000 C 
ATOM      6  C   UNL     1      -0.843  11.739  20.312  0.00  0.00    +0.000 C 
ATOM      7  O   UNL     1      -1.363  12.404  19.417  0.00  0.00    +0.000 OA
ENDROOT
BRANCH   5   8
ATOM      8  N   UNL     1       1.054  10.186  19.763  0.00  0.00    +0.000 NA
ATOM      9  H   UNL     1       1.629   9.689  20.442  0.00  0.00    +0.000 HD
BRANCH   8  10
ATOM     10  S   UNL     1       1.517   9.719  18.213  0.00  0.00    +0.000 S 
ATOM     11  O   UNL     1       0.278   9.396  17.537  0.00  0.00    +0.000 OA
ATOM     12  O   UNL     1       2.414  10.715  17.674  0.00  0.00    +0.000 OA
BRANCH  10  13
ATOM     13  C   UNL     1       2.380   8.190  18.450  0.00  0.00    +0.000 A 
ATOM     14  C   UNL     1       3.352   7.784  17.538  0.00  0.00    +0.000 A 
ATOM     15  C   UNL     1       3.926   6.517  17.660  0.00  0.00    +0.000 A 
ATOM     16  C   UNL     1       3.518   5.635  18.676  0.00  0.00    +0.000 A 
ATOM     17  C   UNL     1       4.051   4.343  18.776  0.00  0.00    +0.000 A 
ATOM     18  C   UNL     1       3.613   3.474  19.775  0.00  0.00    +0.000 A 
ATOM     19 CL   UNL     1       4.261   1.882  19.866  0.00  0.00    +0.000 Cl
ATOM     20  C   UNL     1       2.645   3.878  20.691  0.00  0.00    +0.000 A 
ATOM     21  C   UNL     1       2.110   5.165  20.607  0.00  0.00    +0.000 A 
ATOM     22  C   UNL     1       2.531   6.054  19.603  0.00  0.00    +0.000 A 
ATOM     23  C   UNL     1       1.974   7.337  19.481  0.00  0.00    +0.000 A 
ENDBRANCH  10  13
ENDBRANCH   8  10
ENDBRANCH   5   8
BRANCH   1  24
ATOM     24  C   UNL     1      -0.798  13.725  21.724  0.00  0.00    +0.000 C 
BRANCH  24  30
ATOM     25  C   UNL     1       0.778  18.132  17.198  0.00  0.00    +0.000 C 
ATOM     26  N   UNL     1       0.511  17.679  18.562  0.00  0.00    +0.000 NA
ATOM     27  C   UNL     1       1.730  17.097  19.159  0.00  0.00    +0.000 C 
ATOM     28  C   UNL     1       1.485  16.619  20.599  0.00  0.00    +0.000 C 
ATOM     29  N   UNL     1       0.363  15.682  20.679  0.00  0.00    +0.000 N 
ATOM     30  C   UNL     1       0.429  14.652  21.615  0.00  0.00    +0.000 C 
ATOM     31  O   UNL     1       1.437  14.474  22.303  0.00  0.00    +0.000 OA
ATOM     32  C   UNL     1      -0.858  16.143  20.007  0.00  0.00    +0.000 C 
ATOM     33  C   UNL     1      -0.576  16.680  18.585  0.00  0.00    +0.000 C 
ENDBRANCH  24  30
ENDBRANCH   1  24
TORSDOF 5
ENDMDL
MODEL 5
REMARK VINA RESULT:      -8.3      4.505     10.942
REMARK  Name = 
REMARK  6 active torsions:
REMARK  status: ('A' for Active; 'I' for Inactive)
REMARK    1  A    between atoms: C_1  and  N_2
REMARK    2  A    between atoms: C_6  and  C_8
REMARK    3  A    between atoms: C_8  and  N_9
REMARK    4  A    between atoms: C_13  and  N_14
REMARK    5  A    between atoms: N_14  and  S_15
REMARK    6  A    between atoms: S_15  and  C_18
REMARK                            x       y       z     vdW  Elec       q    Type
REMARK                         _______ _______ _______ _____ _____    ______ ____
ROOT
ATOM      1  N   UNL     1      -1.951  12.176  21.496  0.00  0.00    +0.000 N 
ATOM      2  C   UNL     1      -2.330  12.880  20.275  0.00  0.00    +0.000 C 
ATOM      3  C   UNL     1      -1.452  12.539  19.081  0.00  0.00    +0.000 C 
ATOM      4  C   UNL     1       0.016  12.701  19.447  0.00  0.00    +0.000 C 
ATOM      5  C   UNL     1       0.377  11.856  20.672  0.00  0.00    +0.000 C 
ATOM      6  C   UNL     1      -0.596  12.114  21.828  0.00  0.00    +0.000 C 
ATOM      7  O   UNL     1      -0.207  12.174  22.995  0.00  0.00    +0.000 OA
ENDROOT
BRANCH   5   8
ATOM      8  N   UNL     1       0.424  10.432  20.265  0.00  0.00    +0.000 NA
ATOM      9  H   UNL     1       0.957  10.219  19.423  0.00  0.00    +0.000 HD
BRANCH   8  10
ATOM     10  S   UNL     1       0.761   9.265  21.431  0.00  0.00    +0.000 S 
ATOM     11  O   UNL     1       1.821   9.838  22.235  0.00  0.00    +0.000 OA
ATOM     12  O   UNL     1      -0.478   8.840  22.038  0.00  0.00    +0.000 OA
BRANCH  10  13
ATOM     13  C   UNL     1       1.482   7.926  20.521  0.00  0.00    +0.000 A 
ATOM     14  C   UNL     1       2.033   8.151  19.261  0.00  0.00    +0.000 A 
ATOM     15  C   UNL     1       2.472   7.067  18.497  0.00  0.00    +0.000 A 
ATOM     16  C   UNL     1       2.345   5.751  18.973  0.00  0.00    +0.000 A 
ATOM     17  C   UNL     1       2.737   4.654  18.194  0.00  0.00    +0.000 A 
ATOM     18  C   UNL     1       2.575   3.354  18.673  0.00  0.00    +0.000 A 
ATOM     19 CL   UNL     1       3.039   2.019  17.691  0.00  0.00    +0.000 Cl
ATOM     20  C   UNL     1       2.030   3.127  19.933  0.00  0.00    +0.000 A 
ATOM     21  C   UNL     1       1.642   4.209  20.723  0.00  0.00    +0.000 A 
ATOM     22  C   UNL     1       1.787   5.528  20.256  0.00  0.00    +0.000 A 
ATOM     23  C   UNL     1       1.364   6.625  21.022  0.00  0.00    +0.000 A 
ENDBRANCH  10  13
ENDBRANCH   8  10
ENDBRANCH   5   8
BRANCH   1  24
ATOM     24  C   UNL     1      -2.899  12.226  22.619  0.00  0.00    +0.000 C 
BRANCH  24  30
ATOM     25  C   UNL     1      -5.152  17.749  25.229  0.00  0.00    +0.000 C 
ATOM     26  N   UNL     1      -4.766  16.873  24.124  0.00  0.00    +0.000 NA
ATOM     27  C   UNL     1      -5.887  15.983  23.757  0.00  0.00    +0.000 C 
ATOM     28  C   UNL     1      -5.516  15.055  22.589  0.00  0.00    +0.000 C 
ATOM     29  N   UNL     1      -4.304  14.283  22.871  0.00  0.00    +0.000 N 
ATOM     30  C   UNL     1      -4.216  12.987  22.367  0.00  0.00    +0.000 C 
ATOM     31  O   UNL     1      -5.161  12.464  21.772  0.00  0.00    +0.000 OA
ATOM     32  C   UNL     1      -3.174  15.087  23.352  0.00  0.00    +0.000 C 
ATOM     33  C   UNL     1      -3.586  16.059  24.480  0.00  0.00    +0.000 C 
ENDBRANCH  24  30
ENDBRANCH   1  24
TORSDOF 5
ENDMDL
MODEL 6
REMARK VINA RESULT:      -8.3      4.192     10.796
REMARK  Name = 
REMARK  6 active torsions:
REMARK  status: ('A' for Active; 'I' for Inactive)
REMARK    1  A    between atoms: C_1  and  N_2
REMARK    2  A    between atoms: C_6  and  C_8
REMARK    3  A    between atoms: C_8  and  N_9
REMARK    4  A    between atoms: C_13  and  N_14
REMARK    5  A    between atoms: N_14  and  S_15
REMARK    6  A    between atoms: S_15  and  C_18
REMARK                            x       y       z     vdW  Elec       q    Type
REMARK                         _______ _______ _______ _____ _____    ______ ____
ROOT
ATOM      1  N   UNL     1      -0.898  11.952  21.524  0.00  0.00    +0.000 N 
ATOM      2  C   UNL     1      -0.898  11.266  22.812  0.00  0.00    +0.000 C 
ATOM      3  C   UNL     1      -0.085   9.981  22.815  0.00  0.00    +0.000 C 
ATOM      4  C   UNL     1      -0.506   9.094  21.653  0.00  0.00    +0.000 C 
ATOM      5  C   UNL     1      -0.384   9.834  20.318  0.00  0.00    +0.000 C 
ATOM      6  C   UNL     1      -1.099  11.189  20.371  0.00  0.00    +0.000 C 
ATOM      7  O   UNL     1      -1.742  11.615  19.411  0.00  0.00    +0.000 OA
ENDROOT
BRANCH   5   8
ATOM      8  N   UNL     1       1.052   9.954  19.975  0.00  0.00    +0.000 NA
ATOM      9  H   UNL     1       1.710   9.532  20.629  0.00  0.00    +0.000 HD
BRANCH   8  10
ATOM     10  S   UNL     1       1.544   9.600  18.404  0.00  0.00    +0.000 S 
ATOM     11  O   UNL     1       0.318   9.327  17.683  0.00  0.00    +0.000 OA
ATOM     12  O   UNL     1       2.450  10.631  17.955  0.00  0.00    +0.000 OA
BRANCH  10  13
ATOM     13  C   UNL     1       2.403   8.057  18.546  0.00  0.00    +0.000 A 
ATOM     14  C   UNL     1       3.326   7.676  17.574  0.00  0.00    +0.000 A 
ATOM     15  C   UNL     1       3.893   6.401  17.624  0.00  0.00    +0.000 A 
ATOM     16  C   UNL     1       3.528   5.487  18.628  0.00  0.00    +0.000 A 
ATOM     17  C   UNL     1       4.053   4.189  18.658  0.00  0.00    +0.000 A 
ATOM     18  C   UNL     1       3.656   3.289  19.647  0.00  0.00    +0.000 A 
ATOM     19 CL   UNL     1       4.293   1.690  19.651  0.00  0.00    +0.000 Cl
ATOM     20  C   UNL     1       2.738   3.668  20.622  0.00  0.00    +0.000 A 
ATOM     21  C   UNL     1       2.211   4.961  20.609  0.00  0.00    +0.000 A 
ATOM     22  C   UNL     1       2.591   5.881  19.616  0.00  0.00    +0.000 A 
ATOM     23  C   UNL     1       2.040   7.171  19.566  0.00  0.00    +0.000 A 
ENDBRANCH  10  13
ENDBRANCH   8  10
ENDBRANCH   5   8
BRANCH   1  24
ATOM     24  C   UNL     1      -1.418  13.327  21.498  0.00  0.00    +0.000 C 
BRANCH  24  30
ATOM     25  C   UNL     1      -6.644  16.369  23.913  0.00  0.00    +0.000 C 
ATOM     26  N   UNL     1      -5.578  15.368  23.922  0.00  0.00    +0.000 NA
ATOM     27  C   UNL     1      -4.340  15.939  24.494  0.00  0.00    +0.000 C 
ATOM     28  C   UNL     1      -3.202  14.908  24.527  0.00  0.00    +0.000 C 
ATOM     29  N   UNL     1      -2.951  14.331  23.204  0.00  0.00    +0.000 N 
ATOM     30  C   UNL     1      -1.641  13.999  22.867  0.00  0.00    +0.000 C 
ATOM     31  O   UNL     1      -0.699  14.259  23.620  0.00  0.00    +0.000 OA
ATOM     32  C   UNL     1      -4.155  13.842  22.521  0.00  0.00    +0.000 C 
ATOM     33  C   UNL     1      -5.307  14.870  22.559  0.00  0.00    +0.000 C 
ENDBRANCH  24  30
ENDBRANCH   1  24
TORSDOF 5
ENDMDL
MODEL 7
REMARK VINA RESULT:      -8.2      4.265     10.425
REMARK  Name = 
REMARK  6 active torsions:
REMARK  status: ('A' for Active; 'I' for Inactive)
REMARK    1  A    between atoms: C_1  and  N_2
REMARK    2  A    between atoms: C_6  and  C_8
REMARK    3  A    between atoms: C_8  and  N_9
REMARK    4  A    between atoms: C_13  and  N_14
REMARK    5  A    between atoms: N_14  and  S_15
REMARK    6  A    between atoms: S_15  and  C_18
REMARK                            x       y       z     vdW  Elec       q    Type
REMARK                         _______ _______ _______ _____ _____    ______ ____
ROOT
ATOM      1  N   UNL     1      -0.488  14.048  20.314  0.00  0.00    +0.000 N 
ATOM      2  C   UNL     1       0.218  14.898  19.360  0.00  0.00    +0.000 C 
ATOM      3  C   UNL     1       1.415  14.220  18.712  0.00  0.00    +0.000 C 
ATOM      4  C   UNL     1       2.318  13.622  19.780  0.00  0.00    +0.000 C 
ATOM      5  C   UNL     1       1.545  12.658  20.684  0.00  0.00    +0.000 C 
ATOM      6  C   UNL     1       0.270  13.314  21.228  0.00  0.00    +0.000 C 
ATOM      7  O   UNL     1      -0.106  13.125  22.385  0.00  0.00    +0.000 OA
ENDROOT
BRANCH   5   8
ATOM      8  N   UNL     1       1.275  11.414  19.926  0.00  0.00    +0.000 NA
ATOM      9  H   UNL     1       1.993  11.123  19.264  0.00  0.00    +0.000 HD
BRANCH   8  10
ATOM     10  S   UNL     1       0.720  10.060  20.758  0.00  0.00    +0.000 S 
ATOM     11  O   UNL     1       1.317  10.161  22.073  0.00  0.00    +0.000 OA
ATOM     12  O   UNL     1      -0.713   9.972  20.602  0.00  0.00    +0.000 OA
BRANCH  10  13
ATOM     13  C   UNL     1       1.504   8.692  19.949  0.00  0.00    +0.000 A 
ATOM     14  C   UNL     1       1.880   8.791  18.610  0.00  0.00    +0.000 A 
ATOM     15  C   UNL     1       2.370   7.664  17.947  0.00  0.00    +0.000 A 
ATOM     16  C   UNL     1       2.465   6.425  18.604  0.00  0.00    +0.000 A 
ATOM     17  C   UNL     1       2.908   5.277  17.933  0.00  0.00    +0.000 A 
ATOM     18  C   UNL     1       2.968   4.051  18.595  0.00  0.00    +0.000 A 
ATOM     19 CL   UNL     1       3.490   2.647  17.747  0.00  0.00    +0.000 Cl
ATOM     20  C   UNL     1       2.597   3.950  19.933  0.00  0.00    +0.000 A 
ATOM     21  C   UNL     1       2.160   5.086  20.616  0.00  0.00    +0.000 A 
ATOM     22  C   UNL     1       2.083   6.330  19.965  0.00  0.00    +0.000 A 
ATOM     23  C   UNL     1       1.609   7.473  20.627  0.00  0.00    +0.000 A 
ENDBRANCH  10  13
ENDBRANCH   8  10
ENDBRANCH   5   8
BRANCH   1  24
ATOM     24  C   UNL     1      -1.804  14.512  20.777  0.00  0.00    +0.000 C 
BRANCH  24  30
ATOM     25  C   UNL     1      -7.420  13.941  24.021  0.00  0.00    +0.000 C 
ATOM     26  N   UNL     1      -6.600  14.118  22.824  0.00  0.00    +0.000 NA
ATOM     27  C   UNL     1      -6.179  12.806  22.290  0.00  0.00    +0.000 C 
ATOM     28  C   UNL     1      -5.322  12.957  21.023  0.00  0.00    +0.000 C 
ATOM     29  N   UNL     1      -4.166  13.828  21.248  0.00  0.00    +0.000 N 
ATOM     30  C   UNL     1      -2.981  13.538  20.576  0.00  0.00    +0.000 C 
ATOM     31  O   UNL     1      -2.871  12.529  19.875  0.00  0.00    +0.000 OA
ATOM     32  C   UNL     1      -4.491  15.111  21.883  0.00  0.00    +0.000 C 
ATOM     33  C   UNL     1      -5.407  14.938  23.115  0.00  0.00    +0.000 C 
ENDBRANCH  24  30
ENDBRANCH   1  24
TORSDOF 5
ENDMDL
MODEL 8
REMARK VINA RESULT:      -8.2      4.629      9.484
REMARK  Name = 
REMARK  6 active torsions:
REMARK  status: ('A' for Active; 'I' for Inactive)
REMARK    1  A    between atoms: C_1  and  N_2
REMARK    2  A    between atoms: C_6  and  C_8
REMARK    3  A    between atoms: C_8  and  N_9
REMARK    4  A    between atoms: C_13  and  N_14
REMARK    5  A    between atoms: N_14  and  S_15
REMARK    6  A    between atoms: S_15  and  C_18
REMARK                            x       y       z     vdW  Elec       q    Type
REMARK                         _______ _______ _______ _____ _____    ______ ____
ROOT
ATOM      1  N   UNL     1      -0.551  11.412  21.579  0.00  0.00    +0.000 N 
ATOM      2  C   UNL     1      -0.418  10.608  22.790  0.00  0.00    +0.000 C 
ATOM      3  C   UNL     1       0.426   9.357  22.598  0.00  0.00    +0.000 C 
ATOM      4  C   UNL     1      -0.073   8.570  21.395  0.00  0.00    +0.000 C 
ATOM      5  C   UNL     1      -0.090   9.437  20.133  0.00  0.00    +0.000 C 
ATOM      6  C   UNL     1      -0.833  10.755  20.379  0.00  0.00    +0.000 C 
ATOM      7  O   UNL     1      -1.569  11.247  19.524  0.00  0.00    +0.000 OA
ENDROOT
BRANCH   5   8
ATOM      8  N   UNL     1       1.306   9.638  19.681  0.00  0.00    +0.000 NA
ATOM      9  H   UNL     1       2.036   9.248  20.277  0.00  0.00    +0.000 HD
BRANCH   8  10
ATOM     10  S   UNL     1       1.693   9.325  18.072  0.00  0.00    +0.000 S 
ATOM     11  O   UNL     1       0.417   9.136  17.414  0.00  0.00    +0.000 OA
ATOM     12  O   UNL     1       2.619  10.332  17.611  0.00  0.00    +0.000 OA
BRANCH  10  13
ATOM     13  C   UNL     1       2.485   7.741  18.108  0.00  0.00    +0.000 A 
ATOM     14  C   UNL     1       3.763   7.584  17.574  0.00  0.00    +0.000 A 
ATOM     15  C   UNL     1       4.320   6.307  17.484  0.00  0.00    +0.000 A 
ATOM     16  C   UNL     1       3.600   5.174  17.902  0.00  0.00    +0.000 A 
ATOM     17  C   UNL     1       4.130   3.884  17.769  0.00  0.00    +0.000 A 
ATOM     18  C   UNL     1       3.387   2.771  18.163  0.00  0.00    +0.000 A 
ATOM     19 CL   UNL     1       4.045   1.193  17.968  0.00  0.00    +0.000 Cl
ATOM     20  C   UNL     1       2.113   2.925  18.701  0.00  0.00    +0.000 A 
ATOM     21  C   UNL     1       1.574   4.205  18.846  0.00  0.00    +0.000 A 
ATOM     22  C   UNL     1       2.302   5.339  18.446  0.00  0.00    +0.000 A 
ATOM     23  C   UNL     1       1.759   6.630  18.548  0.00  0.00    +0.000 A 
ENDBRANCH  10  13
ENDBRANCH   8  10
ENDBRANCH   5   8
BRANCH   1  24
ATOM     24  C   UNL     1      -1.107  12.765  21.732  0.00  0.00    +0.000 C 
BRANCH  24  30
ATOM     25  C   UNL     1       3.677  15.242  18.074  0.00  0.00    +0.000 C 
ATOM     26  N   UNL     1       2.464  15.316  18.888  0.00  0.00    +0.000 NA
ATOM     27  C   UNL     1       2.811  15.410  20.321  0.00  0.00    +0.000 C 
ATOM     28  C   UNL     1       1.557  15.500  21.204  0.00  0.00    +0.000 C 
ATOM     29  N   UNL     1       0.637  14.387  20.959  0.00  0.00    +0.000 N 
ATOM     30  C   UNL     1      -0.095  13.888  22.034  0.00  0.00    +0.000 C 
ATOM     31  O   UNL     1       0.081  14.307  23.180  0.00  0.00    +0.000 OA
ATOM     32  C   UNL     1       0.332  14.156  19.542  0.00  0.00    +0.000 C 
ATOM     33  C   UNL     1       1.604  14.136  18.665  0.00  0.00    +0.000 C 
ENDBRANCH  24  30
ENDBRANCH   1  24
TORSDOF 5
ENDMDL
MODEL 9
REMARK VINA RESULT:      -8.1      4.487      9.368
REMARK  Name = 
REMARK  6 active torsions:
REMARK  status: ('A' for Active; 'I' for Inactive)
REMARK    1  A    between atoms: C_1  and  N_2
REMARK    2  A    between atoms: C_6  and  C_8
REMARK    3  A    between atoms: C_8  and  N_9
REMARK    4  A    between atoms: C_13  and  N_14
REMARK    5  A    between atoms: N_14  and  S_15
REMARK    6  A    between atoms: S_15  and  C_18
REMARK                            x       y       z     vdW  Elec       q    Type
REMARK                         _______ _______ _______ _____ _____    ______ ____
ROOT
ATOM      1  N   UNL     1      -1.358  12.552  20.472  0.00  0.00    +0.000 N 
ATOM      2  C   UNL     1      -0.866  13.419  19.405  0.00  0.00    +0.000 C 
ATOM      3  C   UNL     1       0.419  12.920  18.763  0.00  0.00    +0.000 C 
ATOM      4  C   UNL     1       1.457  12.622  19.834  0.00  0.00    +0.000 C 
ATOM      5  C   UNL     1       0.920  11.626  20.865  0.00  0.00    +0.000 C 
ATOM      6  C   UNL     1      -0.441  12.077  21.411  0.00  0.00    +0.000 C 
ATOM      7  O   UNL     1      -0.734  11.941  22.599  0.00  0.00    +0.000 OA
ENDROOT
BRANCH   5   8
ATOM      8  N   UNL     1       0.876  10.282  20.245  0.00  0.00    +0.000 NA
ATOM      9  H   UNL     1       1.534  10.112  19.486  0.00  0.00    +0.000 HD
BRANCH   8  10
ATOM     10  S   UNL     1       0.835   8.927  21.243  0.00  0.00    +0.000 S 
ATOM     11  O   UNL     1       1.762   9.227  22.315  0.00  0.00    +0.000 OA
ATOM     12  O   UNL     1      -0.542   8.599  21.529  0.00  0.00    +0.000 OA
BRANCH  10  13
ATOM     13  C   UNL     1       1.578   7.642  20.275  0.00  0.00    +0.000 A 
ATOM     14  C   UNL     1       1.534   6.320  20.714  0.00  0.00    +0.000 A 
ATOM     15  C   UNL     1       2.239   5.338  20.014  0.00  0.00    +0.000 A 
ATOM     16  C   UNL     1       3.012   5.670  18.888  0.00  0.00    +0.000 A 
ATOM     17  C   UNL     1       3.763   4.700  18.210  0.00  0.00    +0.000 A 
ATOM     18  C   UNL     1       4.546   5.056  17.111  0.00  0.00    +0.000 A 
ATOM     19 CL   UNL     1       5.481   3.856  16.306  0.00  0.00    +0.000 Cl
ATOM     20  C   UNL     1       4.587   6.374  16.668  0.00  0.00    +0.000 A 
ATOM     21  C   UNL     1       3.839   7.349  17.330  0.00  0.00    +0.000 A 
ATOM     22  C   UNL     1       3.051   7.015  18.445  0.00  0.00    +0.000 A 
ATOM     23  C   UNL     1       2.324   7.991  19.145  0.00  0.00    +0.000 A 
ENDBRANCH  10  13
ENDBRANCH   8  10
ENDBRANCH   5   8
BRANCH   1  24
ATOM     24  C   UNL     1      -2.724  12.799  20.957  0.00  0.00    +0.000 C 
BRANCH  24  30
ATOM     25  C   UNL     1      -2.834   9.978  15.090  0.00  0.00    +0.000 C 
ATOM     26  N   UNL     1      -3.324  10.223  16.446  0.00  0.00    +0.000 NA
ATOM     27  C   UNL     1      -4.214  11.402  16.467  0.00  0.00    +0.000 C 
ATOM     28  C   UNL     1      -4.754  11.681  17.878  0.00  0.00    +0.000 C 
ATOM     29  N   UNL     1      -3.674  11.822  18.857  0.00  0.00    +0.000 N 
ATOM     30  C   UNL     1      -3.847  12.724  19.904  0.00  0.00    +0.000 C 
ATOM     31  O   UNL     1      -4.841  13.451  19.967  0.00  0.00    +0.000 OA
ATOM     32  C   UNL     1      -2.681  10.742  18.820  0.00  0.00    +0.000 C 
ATOM     33  C   UNL     1      -2.203  10.435  17.383  0.00  0.00    +0.000 C 
ENDBRANCH  24  30
ENDBRANCH   1  24
TORSDOF 5
ENDMDL
