MODEL 1
REMARK VINA RESULT:      -7.1      0.000      0.000
REMARK  Name = 
REMARK  7 active torsions:
REMARK  status: ('A' for Active; 'I' for Inactive)
REMARK    1  A    between atoms: C_1  and  C_2
REMARK    2  A    between atoms: C_5  and  N_6
REMARK    3  A    between atoms: C_7  and  C_9
REMARK    4  A    between atoms: C_9  and  O_10
REMARK    5  A    between atoms: O_10  and  C_11
REMARK    6  A    between atoms: C_11  and  C_12
REMARK    7  A    between atoms: C_14  and  C_15
REMARK                            x       y       z     vdW  Elec       q    Type
REMARK                         _______ _______ _______ _____ _____    ______ ____
ROOT
ATOM      1  C   UNL     1       2.648   3.345  20.899  0.00  0.00    +0.000 C 
ENDROOT
BRANCH   1   3
ATOM      2  N   UNL     1       2.514   5.736  20.454  0.00  0.00    +0.000 N 
ATOM      3  C   UNL     1       1.802   4.548  20.476  0.00  0.00    +0.000 C 
ATOM      4  O   UNL     1       0.615   4.397  20.200  0.00  0.00    +0.000 OA
ATOM      5  H   UNL     1       3.494   5.645  20.712  0.00  0.00    +0.000 HD
BRANCH   2  10
ATOM      6  C   UNL     1       0.522  10.972  19.173  0.00  0.00    +0.000 C 
ATOM      7  C   UNL     1       1.031   9.604  19.532  0.00  0.00    +0.000 A 
ATOM      8  C   UNL     1       1.764   8.883  18.581  0.00  0.00    +0.000 A 
ATOM      9  C   UNL     1       2.258   7.609  18.871  0.00  0.00    +0.000 A 
ATOM     10  C   UNL     1       2.034   7.019  20.114  0.00  0.00    +0.000 A 
ATOM     11  C   UNL     1       1.301   7.731  21.071  0.00  0.00    +0.000 A 
ATOM     12  C   UNL     1       0.806   9.012  20.780  0.00  0.00    +0.000 A 
ATOM     13 CL   UNL     1      -0.091   9.833  22.011  0.00  0.00    +0.000 Cl
ENDBRANCH   2  10
ENDBRANCH   1   3
BRANCH   1  14
ATOM     14  O   UNL     1       2.417   2.223  20.058  0.00  0.00    +0.000 OA
BRANCH  14  15
ATOM     15  C   UNL     1       3.611   1.816  19.376  0.00  0.00    +0.000 C 
BRANCH  15  16
ATOM     16  C   UNL     1       4.189   2.974  18.644  0.00  0.00    +0.000 A 
ATOM     17  C   UNL     1       5.210   3.835  19.097  0.00  0.00    +0.000 A 
ATOM     18  C   UNL     1       5.398   4.752  18.085  0.00  0.00    +0.000 A 
ATOM     19  O   UNL     1       4.518   4.438  17.080  0.00  0.00    +0.000 OA
ATOM     20  N   UNL     1       3.768   3.324  17.425  0.00  0.00    +0.000 NA
BRANCH  18  21
ATOM     21  C   UNL     1       6.326   5.845  18.010  0.00  0.00    +0.000 A 
ATOM     22  C   UNL     1       7.520   5.968  18.694  0.00  0.00    +0.000 A 
ATOM     23  C   UNL     1       8.181   7.202  18.420  0.00  0.00    +0.000 A 
ATOM     24  C   UNL     1       7.477   7.977  17.528  0.00  0.00    +0.000 A 
ATOM     25  S   UNL     1       6.038   7.215  17.017  0.00  0.00    +0.000 S 
ENDBRANCH  18  21
ENDBRANCH  15  16
ENDBRANCH  14  15
ENDBRANCH   1  14
TORSDOF 6
ENDMDL
MODEL 2
REMARK VINA RESULT:      -7.1      5.252      8.052
REMARK  Name = 
REMARK  7 active torsions:
REMARK  status: ('A' for Active; 'I' for Inactive)
REMARK    1  A    between atoms: C_1  and  C_2
REMARK    2  A    between atoms: C_5  and  N_6
REMARK    3  A    between atoms: C_7  and  C_9
REMARK    4  A    between atoms: C_9  and  O_10
REMARK    5  A    between atoms: O_10  and  C_11
REMARK    6  A    between atoms: C_11  and  C_12
REMARK    7  A    between atoms: C_14  and  C_15
REMARK                            x       y       z     vdW  Elec       q    Type
REMARK                         _______ _______ _______ _____ _____    ______ ____
ROOT
ATOM      1  C   UNL     1       8.278   7.815  18.278  0.00  0.00    +0.000 C 
ENDROOT
BRANCH   1   3
ATOM      2  N   UNL     1       9.420   9.701  19.313  0.00  0.00    +0.000 N 
ATOM      3  C   UNL     1       8.528   9.325  18.324  0.00  0.00    +0.000 C 
ATOM      4  O   UNL     1       7.955  10.066  17.530  0.00  0.00    +0.000 OA
ATOM      5  H   UNL     1       9.790   8.929  19.864  0.00  0.00    +0.000 HD
BRANCH   2  10
ATOM      6  C   UNL     1      11.267  15.016  20.481  0.00  0.00    +0.000 C 
ATOM      7  C   UNL     1      10.800  13.625  20.154  0.00  0.00    +0.000 A 
ATOM      8  C   UNL     1       9.906  12.989  21.024  0.00  0.00    +0.000 A 
ATOM      9  C   UNL     1       9.444  11.698  20.759  0.00  0.00    +0.000 A 
ATOM     10  C   UNL     1       9.860  11.005  19.623  0.00  0.00    +0.000 A 
ATOM     11  C   UNL     1      10.755  11.633  18.747  0.00  0.00    +0.000 A 
ATOM     12  C   UNL     1      11.218  12.931  19.012  0.00  0.00    +0.000 A 
ATOM     13 CL   UNL     1      12.322  13.643  17.886  0.00  0.00    +0.000 Cl
ENDBRANCH   2  10
ENDBRANCH   1   3
BRANCH   1  14
ATOM     14  O   UNL     1       6.928   7.520  17.947  0.00  0.00    +0.000 OA
BRANCH  14  15
ATOM     15  C   UNL     1       6.823   6.333  17.149  0.00  0.00    +0.000 C 
BRANCH  15  16
ATOM     16  C   UNL     1       5.975   5.332  17.849  0.00  0.00    +0.000 A 
ATOM     17  C   UNL     1       4.575   5.199  17.754  0.00  0.00    +0.000 A 
ATOM     18  C   UNL     1       4.245   4.148  18.583  0.00  0.00    +0.000 A 
ATOM     19  O   UNL     1       5.411   3.688  19.142  0.00  0.00    +0.000 OA
ATOM     20  N   UNL     1       6.492   4.422  18.679  0.00  0.00    +0.000 NA
BRANCH  18  21
ATOM     21  C   UNL     1       2.958   3.573  18.854  0.00  0.00    +0.000 A 
ATOM     22  C   UNL     1       2.436   2.415  18.309  0.00  0.00    +0.000 A 
ATOM     23  C   UNL     1       1.110   2.149  18.763  0.00  0.00    +0.000 A 
ATOM     24  C   UNL     1       0.666   3.105  19.648  0.00  0.00    +0.000 A 
ATOM     25  S   UNL     1       1.845   4.304  19.936  0.00  0.00    +0.000 S 
ENDBRANCH  18  21
ENDBRANCH  15  16
ENDBRANCH  14  15
ENDBRANCH   1  14
TORSDOF 6
ENDMDL
MODEL 3
REMARK VINA RESULT:      -7.0      3.068      3.741
REMARK  Name = 
REMARK  7 active torsions:
REMARK  status: ('A' for Active; 'I' for Inactive)
REMARK    1  A    between atoms: C_1  and  C_2
REMARK    2  A    between atoms: C_5  and  N_6
REMARK    3  A    between atoms: C_7  and  C_9
REMARK    4  A    between atoms: C_9  and  O_10
REMARK    5  A    between atoms: O_10  and  C_11
REMARK    6  A    between atoms: C_11  and  C_12
REMARK    7  A    between atoms: C_14  and  C_15
REMARK                            x       y       z     vdW  Elec       q    Type
REMARK                         _______ _______ _______ _____ _____    ______ ____
ROOT
ATOM      1  C   UNL     1       3.470   5.068  19.487  0.00  0.00    +0.000 C 
ENDROOT
BRANCH   1   3
ATOM      2  N   UNL     1       2.485   7.248  19.947  0.00  0.00    +0.000 N 
ATOM      3  C   UNL     1       2.325   5.881  20.098  0.00  0.00    +0.000 C 
ATOM      4  O   UNL     1       1.392   5.305  20.651  0.00  0.00    +0.000 OA
ATOM      5  H   UNL     1       3.329   7.522  19.450  0.00  0.00    +0.000 HD
BRANCH   2  10
ATOM      6  C   UNL     1      -1.058  11.432  21.669  0.00  0.00    +0.000 C 
ATOM      7  C   UNL     1      -0.134  10.346  21.193  0.00  0.00    +0.000 A 
ATOM      8  C   UNL     1       0.439   9.484  22.136  0.00  0.00    +0.000 A 
ATOM      9  C   UNL     1       1.302   8.460  21.740  0.00  0.00    +0.000 A 
ATOM     10  C   UNL     1       1.619   8.268  20.396  0.00  0.00    +0.000 A 
ATOM     11  C   UNL     1       1.052   9.126  19.445  0.00  0.00    +0.000 A 
ATOM     12  C   UNL     1       0.183  10.155  19.843  0.00  0.00    +0.000 A 
ATOM     13 CL   UNL     1      -0.480  11.176  18.615  0.00  0.00    +0.000 Cl
ENDBRANCH   2  10
ENDBRANCH   1   3
BRANCH   1  14
ATOM     14  O   UNL     1       4.680   5.813  19.458  0.00  0.00    +0.000 OA
BRANCH  14  15
ATOM     15  C   UNL     1       5.817   4.970  19.227  0.00  0.00    +0.000 C 
BRANCH  15  16
ATOM     16  C   UNL     1       6.298   5.149  17.831  0.00  0.00    +0.000 A 
ATOM     17  C   UNL     1       5.932   4.380  16.707  0.00  0.00    +0.000 A 
ATOM     18  C   UNL     1       6.636   4.912  15.649  0.00  0.00    +0.000 A 
ATOM     19  O   UNL     1       7.386   5.952  16.138  0.00  0.00    +0.000 OA
ATOM     20  N   UNL     1       7.170   6.105  17.499  0.00  0.00    +0.000 NA
BRANCH  18  21
ATOM     21  C   UNL     1       6.631   4.524  14.267  0.00  0.00    +0.000 A 
ATOM     22  C   UNL     1       5.725   3.688  13.643  0.00  0.00    +0.000 A 
ATOM     23  C   UNL     1       6.035   3.478  12.267  0.00  0.00    +0.000 A 
ATOM     24  C   UNL     1       7.161   4.168  11.880  0.00  0.00    +0.000 A 
ATOM     25  S   UNL     1       7.828   5.071  13.164  0.00  0.00    +0.000 S 
ENDBRANCH  18  21
ENDBRANCH  15  16
ENDBRANCH  14  15
ENDBRANCH   1  14
TORSDOF 6
ENDMDL
MODEL 4
REMARK VINA RESULT:      -7.0      0.967      1.111
REMARK  Name = 
REMARK  7 active torsions:
REMARK  status: ('A' for Active; 'I' for Inactive)
REMARK    1  A    between atoms: C_1  and  C_2
REMARK    2  A    between atoms: C_5  and  N_6
REMARK    3  A    between atoms: C_7  and  C_9
REMARK    4  A    between atoms: C_9  and  O_10
REMARK    5  A    between atoms: O_10  and  C_11
REMARK    6  A    between atoms: C_11  and  C_12
REMARK    7  A    between atoms: C_14  and  C_15
REMARK                            x       y       z     vdW  Elec       q    Type
REMARK                         _______ _______ _______ _____ _____    ______ ____
ROOT
ATOM      1  C   UNL     1       2.778   3.028  20.025  0.00  0.00    +0.000 C 
ENDROOT
BRANCH   1   3
ATOM      2  N   UNL     1       2.717   5.415  19.545  0.00  0.00    +0.000 N 
ATOM      3  C   UNL     1       1.967   4.324  19.951  0.00  0.00    +0.000 C 
ATOM      4  O   UNL     1       0.774   4.317  20.241  0.00  0.00    +0.000 OA
ATOM      5  H   UNL     1       3.692   5.206  19.346  0.00  0.00    +0.000 HD
BRANCH   2  10
ATOM      6  C   UNL     1       0.892  10.834  18.974  0.00  0.00    +0.000 C 
ATOM      7  C   UNL     1       1.358   9.416  19.148  0.00  0.00    +0.000 A 
ATOM      8  C   UNL     1       2.014   8.783  18.084  0.00  0.00    +0.000 A 
ATOM      9  C   UNL     1       2.466   7.467  18.202  0.00  0.00    +0.000 A 
ATOM     10  C   UNL     1       2.277   6.745  19.379  0.00  0.00    +0.000 A 
ATOM     11  C   UNL     1       1.621   7.369  20.448  0.00  0.00    +0.000 A 
ATOM     12  C   UNL     1       1.168   8.693  20.331  0.00  0.00    +0.000 A 
ATOM     13 CL   UNL     1       0.366   9.398  21.692  0.00  0.00    +0.000 Cl
ENDBRANCH   2  10
ENDBRANCH   1   3
BRANCH   1  14
ATOM     14  O   UNL     1       2.479   2.162  18.938  0.00  0.00    +0.000 OA
BRANCH  14  15
ATOM     15  C   UNL     1       3.619   1.955  18.094  0.00  0.00    +0.000 C 
BRANCH  15  16
ATOM     16  C   UNL     1       4.211   3.267  17.720  0.00  0.00    +0.000 A 
ATOM     17  C   UNL     1       5.322   3.893  18.322  0.00  0.00    +0.000 A 
ATOM     18  C   UNL     1       5.487   5.083  17.647  0.00  0.00    +0.000 A 
ATOM     19  O   UNL     1       4.507   5.149  16.689  0.00  0.00    +0.000 OA
ATOM     20  N   UNL     1       3.715   4.012  16.729  0.00  0.00    +0.000 NA
BRANCH  18  21
ATOM     21  C   UNL     1       6.477   6.106  17.836  0.00  0.00    +0.000 A 
ATOM     22  C   UNL     1       6.632   7.259  17.091  0.00  0.00    +0.000 A 
ATOM     23  C   UNL     1       7.744   8.041  17.521  0.00  0.00    +0.000 A 
ATOM     24  C   UNL     1       8.397   7.467  18.587  0.00  0.00    +0.000 A 
ATOM     25  S   UNL     1       7.664   6.004  19.072  0.00  0.00    +0.000 S 
ENDBRANCH  18  21
ENDBRANCH  15  16
ENDBRANCH  14  15
ENDBRANCH   1  14
TORSDOF 6
ENDMDL
MODEL 5
REMARK VINA RESULT:      -6.9      5.977      8.412
REMARK  Name = 
REMARK  7 active torsions:
REMARK  status: ('A' for Active; 'I' for Inactive)
REMARK    1  A    between atoms: C_1  and  C_2
REMARK    2  A    between atoms: C_5  and  N_6
REMARK    3  A    between atoms: C_7  and  C_9
REMARK    4  A    between atoms: C_9  and  O_10
REMARK    5  A    between atoms: O_10  and  C_11
REMARK    6  A    between atoms: C_11  and  C_12
REMARK    7  A    between atoms: C_14  and  C_15
REMARK                            x       y       z     vdW  Elec       q    Type
REMARK                         _______ _______ _______ _____ _____    ______ ____
ROOT
ATOM      1  C   UNL     1       8.289   8.670  17.371  0.00  0.00    +0.000 C 
ENDROOT
BRANCH   1   3
ATOM      2  N   UNL     1       6.391   7.198  16.964  0.00  0.00    +0.000 N 
ATOM      3  C   UNL     1       7.516   7.402  17.745  0.00  0.00    +0.000 C 
ATOM      4  O   UNL     1       7.916   6.688  18.660  0.00  0.00    +0.000 OA
ATOM      5  H   UNL     1       6.238   7.908  16.251  0.00  0.00    +0.000 HD
BRANCH   2  10
ATOM      6  C   UNL     1       2.566   2.930  17.387  0.00  0.00    +0.000 C 
ATOM      7  C   UNL     1       3.553   4.060  17.295  0.00  0.00    +0.000 A 
ATOM      8  C   UNL     1       4.637   3.942  16.416  0.00  0.00    +0.000 A 
ATOM      9  C   UNL     1       5.578   4.968  16.298  0.00  0.00    +0.000 A 
ATOM     10  C   UNL     1       5.466   6.135  17.051  0.00  0.00    +0.000 A 
ATOM     11  C   UNL     1       4.386   6.262  17.933  0.00  0.00    +0.000 A 
ATOM     12  C   UNL     1       3.439   5.232  18.052  0.00  0.00    +0.000 A 
ATOM     13 CL   UNL     1       2.132   5.458  19.162  0.00  0.00    +0.000 Cl
ENDBRANCH   2  10
ENDBRANCH   1   3
BRANCH   1  14
ATOM     14  O   UNL     1       8.028   9.727  18.283  0.00  0.00    +0.000 OA
BRANCH  14  15
ATOM     15  C   UNL     1       9.211  10.124  18.990  0.00  0.00    +0.000 C 
BRANCH  15  16
ATOM     16  C   UNL     1       9.722  11.404  18.433  0.00  0.00    +0.000 A 
ATOM     17  C   UNL     1       9.223  12.697  18.694  0.00  0.00    +0.000 A 
ATOM     18  C   UNL     1      10.006  13.553  17.951  0.00  0.00    +0.000 A 
ATOM     19  O   UNL     1      10.926  12.788  17.280  0.00  0.00    +0.000 OA
ATOM     20  N   UNL     1      10.755  11.446  17.586  0.00  0.00    +0.000 NA
BRANCH  18  21
ATOM     21  C   UNL     1       9.948  14.985  17.853  0.00  0.00    +0.000 A 
ATOM     22  C   UNL     1       8.975  15.813  18.378  0.00  0.00    +0.000 A 
ATOM     23  C   UNL     1       9.199  17.186  18.062  0.00  0.00    +0.000 A 
ATOM     24  C   UNL     1      10.341  17.364  17.316  0.00  0.00    +0.000 A 
ATOM     25  S   UNL     1      11.142  15.888  17.013  0.00  0.00    +0.000 S 
ENDBRANCH  18  21
ENDBRANCH  15  16
ENDBRANCH  14  15
ENDBRANCH   1  14
TORSDOF 6
ENDMDL
MODEL 6
REMARK VINA RESULT:      -6.9      3.639      6.386
REMARK  Name = 
REMARK  7 active torsions:
REMARK  status: ('A' for Active; 'I' for Inactive)
REMARK    1  A    between atoms: C_1  and  C_2
REMARK    2  A    between atoms: C_5  and  N_6
REMARK    3  A    between atoms: C_7  and  C_9
REMARK    4  A    between atoms: C_9  and  O_10
REMARK    5  A    between atoms: O_10  and  C_11
REMARK    6  A    between atoms: C_11  and  C_12
REMARK    7  A    between atoms: C_14  and  C_15
REMARK                            x       y       z     vdW  Elec       q    Type
REMARK                         _______ _______ _______ _____ _____    ______ ____
ROOT
ATOM      1  C   UNL     1       2.515   2.236  18.556  0.00  0.00    +0.000 C 
ENDROOT
BRANCH   1   3
ATOM      2  N   UNL     1       4.478   3.046  17.364  0.00  0.00    +0.000 N 
ATOM      3  C   UNL     1       3.096   2.966  17.343  0.00  0.00    +0.000 C 
ATOM      4  O   UNL     1       2.346   3.412  16.479  0.00  0.00    +0.000 OA
ATOM      5  H   UNL     1       4.914   2.606  18.171  0.00  0.00    +0.000 HD
BRANCH   2  10
ATOM      6  C   UNL     1       7.848   5.462  13.385  0.00  0.00    +0.000 C 
ATOM      7  C   UNL     1       6.955   4.815  14.407  0.00  0.00    +0.000 A 
ATOM      8  C   UNL     1       7.090   5.180  15.752  0.00  0.00    +0.000 A 
ATOM      9  C   UNL     1       6.281   4.606  16.735  0.00  0.00    +0.000 A 
ATOM     10  C   UNL     1       5.319   3.652  16.406  0.00  0.00    +0.000 A 
ATOM     11  C   UNL     1       5.177   3.279  15.064  0.00  0.00    +0.000 A 
ATOM     12  C   UNL     1       5.989   3.857  14.075  0.00  0.00    +0.000 A 
ATOM     13 CL   UNL     1       5.759   3.348  12.438  0.00  0.00    +0.000 Cl
ENDBRANCH   2  10
ENDBRANCH   1   3
BRANCH   1  14
ATOM     14  O   UNL     1       3.395   2.293  19.670  0.00  0.00    +0.000 OA
BRANCH  14  15
ATOM     15  C   UNL     1       2.925   3.206  20.672  0.00  0.00    +0.000 C 
BRANCH  15  16
ATOM     16  C   UNL     1       3.037   4.601  20.171  0.00  0.00    +0.000 A 
ATOM     17  C   UNL     1       1.993   5.540  20.047  0.00  0.00    +0.000 A 
ATOM     18  C   UNL     1       2.577   6.678  19.534  0.00  0.00    +0.000 A 
ATOM     19  O   UNL     1       3.912   6.412  19.364  0.00  0.00    +0.000 OA
ATOM     20  N   UNL     1       4.202   5.118  19.768  0.00  0.00    +0.000 NA
BRANCH  18  21
ATOM     21  C   UNL     1       1.978   7.946  19.224  0.00  0.00    +0.000 A 
ATOM     22  C   UNL     1       1.984   8.590  18.002  0.00  0.00    +0.000 A 
ATOM     23  C   UNL     1       1.332   9.857  18.050  0.00  0.00    +0.000 A 
ATOM     24  C   UNL     1       0.838  10.137  19.303  0.00  0.00    +0.000 A 
ATOM     25  S   UNL     1       1.149   8.873  20.407  0.00  0.00    +0.000 S 
ENDBRANCH  18  21
ENDBRANCH  15  16
ENDBRANCH  14  15
ENDBRANCH   1  14
TORSDOF 6
ENDMDL
MODEL 7
REMARK VINA RESULT:      -6.9      3.028      3.712
REMARK  Name = 
REMARK  7 active torsions:
REMARK  status: ('A' for Active; 'I' for Inactive)
REMARK    1  A    between atoms: C_1  and  C_2
REMARK    2  A    between atoms: C_5  and  N_6
REMARK    3  A    between atoms: C_7  and  C_9
REMARK    4  A    between atoms: C_9  and  O_10
REMARK    5  A    between atoms: O_10  and  C_11
REMARK    6  A    between atoms: C_11  and  C_12
REMARK    7  A    between atoms: C_14  and  C_15
REMARK                            x       y       z     vdW  Elec       q    Type
REMARK                         _______ _______ _______ _____ _____    ______ ____
ROOT
ATOM      1  C   UNL     1       3.152   6.020  19.038  0.00  0.00    +0.000 C 
ENDROOT
BRANCH   1   3
ATOM      2  N   UNL     1       1.987   7.977  19.901  0.00  0.00    +0.000 N 
ATOM      3  C   UNL     1       2.162   6.611  20.044  0.00  0.00    +0.000 C 
ATOM      4  O   UNL     1       1.618   5.882  20.869  0.00  0.00    +0.000 OA
ATOM      5  H   UNL     1       2.529   8.395  19.148  0.00  0.00    +0.000 HD
BRANCH   2  10
ATOM      6  C   UNL     1      -1.450  11.453  22.923  0.00  0.00    +0.000 C 
ATOM      7  C   UNL     1      -0.561  10.554  22.110  0.00  0.00    +0.000 A 
ATOM      8  C   UNL     1       0.302   9.674  22.774  0.00  0.00    +0.000 A 
ATOM      9  C   UNL     1       1.145   8.820  22.059  0.00  0.00    +0.000 A 
ATOM     10  C   UNL     1       1.154   8.821  20.665  0.00  0.00    +0.000 A 
ATOM     11  C   UNL     1       0.295   9.699  19.991  0.00  0.00    +0.000 A 
ATOM     12  C   UNL     1      -0.553  10.557  20.710  0.00  0.00    +0.000 A 
ATOM     13 CL   UNL     1      -1.586  11.614  19.810  0.00  0.00    +0.000 Cl
ENDBRANCH   2  10
ENDBRANCH   1   3
BRANCH   1  14
ATOM     14  O   UNL     1       4.184   5.291  19.688  0.00  0.00    +0.000 OA
BRANCH  14  15
ATOM     15  C   UNL     1       4.391   4.008  19.083  0.00  0.00    +0.000 C 
BRANCH  15  16
ATOM     16  C   UNL     1       5.296   4.145  17.911  0.00  0.00    +0.000 A 
ATOM     17  C   UNL     1       4.958   3.953  16.556  0.00  0.00    +0.000 A 
ATOM     18  C   UNL     1       6.118   4.182  15.848  0.00  0.00    +0.000 A 
ATOM     19  O   UNL     1       7.096   4.495  16.758  0.00  0.00    +0.000 OA
ATOM     20  N   UNL     1       6.583   4.479  18.046  0.00  0.00    +0.000 NA
BRANCH  18  21
ATOM     21  C   UNL     1       6.341   4.139  14.431  0.00  0.00    +0.000 A 
ATOM     22  C   UNL     1       5.616   3.423  13.498  0.00  0.00    +0.000 A 
ATOM     23  C   UNL     1       6.132   3.571  12.176  0.00  0.00    +0.000 A 
ATOM     24  C   UNL     1       7.227   4.403  12.139  0.00  0.00    +0.000 A 
ATOM     25  S   UNL     1       7.618   5.010  13.685  0.00  0.00    +0.000 S 
ENDBRANCH  18  21
ENDBRANCH  15  16
ENDBRANCH  14  15
ENDBRANCH   1  14
TORSDOF 6
ENDMDL
MODEL 8
REMARK VINA RESULT:      -6.8      2.699      4.797
REMARK  Name = 
REMARK  7 active torsions:
REMARK  status: ('A' for Active; 'I' for Inactive)
REMARK    1  A    between atoms: C_1  and  C_2
REMARK    2  A    between atoms: C_5  and  N_6
REMARK    3  A    between atoms: C_7  and  C_9
REMARK    4  A    between atoms: C_9  and  O_10
REMARK    5  A    between atoms: O_10  and  C_11
REMARK    6  A    between atoms: C_11  and  C_12
REMARK    7  A    between atoms: C_14  and  C_15
REMARK                            x       y       z     vdW  Elec       q    Type
REMARK                         _______ _______ _______ _____ _____    ______ ____
ROOT
ATOM      1  C   UNL     1       5.610   6.575  15.465  0.00  0.00    +0.000 C 
ENDROOT
BRANCH   1   3
ATOM      2  N   UNL     1       3.706   7.178  16.860  0.00  0.00    +0.000 N 
ATOM      3  C   UNL     1       5.087   7.098  16.806  0.00  0.00    +0.000 C 
ATOM      4  O   UNL     1       5.877   7.397  17.696  0.00  0.00    +0.000 OA
ATOM      5  H   UNL     1       3.232   6.876  16.012  0.00  0.00    +0.000 HD
BRANCH   2  10
ATOM      6  C   UNL     1       0.442   9.060  21.199  0.00  0.00    +0.000 C 
ATOM      7  C   UNL     1       1.289   8.590  20.050  0.00  0.00    +0.000 A 
ATOM      8  C   UNL     1       2.015   7.400  20.186  0.00  0.00    +0.000 A 
ATOM      9  C   UNL     1       2.814   6.924  19.144  0.00  0.00    +0.000 A 
ATOM     10  C   UNL     1       2.913   7.620  17.940  0.00  0.00    +0.000 A 
ATOM     11  C   UNL     1       2.192   8.812  17.795  0.00  0.00    +0.000 A 
ATOM     12  C   UNL     1       1.388   9.289  18.841  0.00  0.00    +0.000 A 
ATOM     13 CL   UNL     1       0.526  10.768  18.590  0.00  0.00    +0.000 Cl
ENDBRANCH   2  10
ENDBRANCH   1   3
BRANCH   1  14
ATOM     14  O   UNL     1       5.190   5.239  15.226  0.00  0.00    +0.000 OA
BRANCH  14  15
ATOM     15  C   UNL     1       6.006   4.292  15.927  0.00  0.00    +0.000 C 
BRANCH  15  16
ATOM     16  C   UNL     1       5.421   4.019  17.266  0.00  0.00    +0.000 A 
ATOM     17  C   UNL     1       4.067   3.755  17.558  0.00  0.00    +0.000 A 
ATOM     18  C   UNL     1       4.010   3.577  18.923  0.00  0.00    +0.000 A 
ATOM     19  O   UNL     1       5.284   3.732  19.410  0.00  0.00    +0.000 OA
ATOM     20  N   UNL     1       6.167   4.001  18.375  0.00  0.00    +0.000 NA
BRANCH  18  21
ATOM     21  C   UNL     1       2.880   3.268  19.753  0.00  0.00    +0.000 A 
ATOM     22  C   UNL     1       1.548   3.486  19.456  0.00  0.00    +0.000 A 
ATOM     23  C   UNL     1       0.682   3.100  20.521  0.00  0.00    +0.000 A 
ATOM     24  C   UNL     1       1.377   2.590  21.594  0.00  0.00    +0.000 A 
ATOM     25  S   UNL     1       3.060   2.565  21.309  0.00  0.00    +0.000 S 
ENDBRANCH  18  21
ENDBRANCH  15  16
ENDBRANCH  14  15
ENDBRANCH   1  14
TORSDOF 6
ENDMDL
MODEL 9
REMARK VINA RESULT:      -6.8      4.540      8.433
REMARK  Name = 
REMARK  7 active torsions:
REMARK  status: ('A' for Active; 'I' for Inactive)
REMARK    1  A    between atoms: C_1  and  C_2
REMARK    2  A    between atoms: C_5  and  N_6
REMARK    3  A    between atoms: C_7  and  C_9
REMARK    4  A    between atoms: C_9  and  O_10
REMARK    5  A    between atoms: O_10  and  C_11
REMARK    6  A    between atoms: C_11  and  C_12
REMARK    7  A    between atoms: C_14  and  C_15
REMARK                            x       y       z     vdW  Elec       q    Type
REMARK                         _______ _______ _______ _____ _____    ______ ____
ROOT
ATOM      1  C   UNL     1       1.202   9.488  22.652  0.00  0.00    +0.000 C 
ENDROOT
BRANCH   1   3
ATOM      2  N   UNL     1       2.000   7.751  21.142  0.00  0.00    +0.000 N 
ATOM      3  C   UNL     1       0.874   8.379  21.649  0.00  0.00    +0.000 C 
ATOM      4  O   UNL     1      -0.295   8.130  21.370  0.00  0.00    +0.000 OA
ATOM      5  H   UNL     1       2.881   8.104  21.508  0.00  0.00    +0.000 HD
BRANCH   2  10
ATOM      6  C   UNL     1       2.145   3.404  17.386  0.00  0.00    +0.000 C 
ATOM      7  C   UNL     1       2.098   4.524  18.387  0.00  0.00    +0.000 A 
ATOM      8  C   UNL     1       2.531   5.798  17.999  0.00  0.00    +0.000 A 
ATOM      9  C   UNL     1       2.503   6.869  18.895  0.00  0.00    +0.000 A 
ATOM     10  C   UNL     1       2.047   6.700  20.202  0.00  0.00    +0.000 A 
ATOM     11  C   UNL     1       1.613   5.429  20.600  0.00  0.00    +0.000 A 
ATOM     12  C   UNL     1       1.639   4.353  19.699  0.00  0.00    +0.000 A 
ATOM     13 CL   UNL     1       1.089   2.812  20.261  0.00  0.00    +0.000 Cl
ENDBRANCH   2  10
ENDBRANCH   1   3
BRANCH   1  14
ATOM     14  O   UNL     1       0.457  10.668  22.386  0.00  0.00    +0.000 OA
BRANCH  14  15
ATOM     15  C   UNL     1       0.848  11.275  21.147  0.00  0.00    +0.000 C 
BRANCH  15  16
ATOM     16  C   UNL     1      -0.362  11.682  20.385  0.00  0.00    +0.000 A 
ATOM     17  C   UNL     1      -0.936  11.007  19.289  0.00  0.00    +0.000 A 
ATOM     18  C   UNL     1      -2.026  11.763  18.916  0.00  0.00    +0.000 A 
ATOM     19  O   UNL     1      -2.084  12.842  19.763  0.00  0.00    +0.000 OA
ATOM     20  N   UNL     1      -1.049  12.788  20.685  0.00  0.00    +0.000 NA
BRANCH  18  21
ATOM     21  C   UNL     1      -2.978  11.531  17.868  0.00  0.00    +0.000 A 
ATOM     22  C   UNL     1      -4.335  11.788  17.907  0.00  0.00    +0.000 A 
ATOM     23  C   UNL     1      -4.999  11.400  16.706  0.00  0.00    +0.000 A 
ATOM     24  C   UNL     1      -4.127  10.869  15.783  0.00  0.00    +0.000 A 
ATOM     25  S   UNL     1      -2.521  10.853  16.358  0.00  0.00    +0.000 S 
ENDBRANCH  18  21
ENDBRANCH  15  16
ENDBRANCH  14  15
ENDBRANCH   1  14
TORSDOF 6
ENDMDL
