MODEL 1
REMARK VINA RESULT:      -5.0      0.000      0.000
REMARK  Name = 
REMARK  11 active torsions:
REMARK  status: ('A' for Active; 'I' for Inactive)
REMARK    1  A    between atoms: C_1  and  N_2
REMARK    2  A    between atoms: N_2  and  C_3
REMARK    3  A    between atoms: N_2  and  C_4
REMARK    4  A    between atoms: N_2  and  C_5
REMARK    5  A    between atoms: C_5  and  C_6
REMARK    6  A    between atoms: C_9  and  C_10
REMARK    7  A    between atoms: C_10  and  N_11
REMARK    8  A    between atoms: N_11  and  C_12
REMARK    9  A    between atoms: N_11  and  C_13
REMARK   10  A    between atoms: N_11  and  C_14
REMARK   11  A    between atoms: N_16  and  O_17
REMARK                            x       y       z     vdW  Elec       q    Type
REMARK                         _______ _______ _______ _____ _____    ______ ____
ROOT
ATOM      1  C   UNL     1       1.428   8.972  19.843  0.00  0.00    +0.000 C 
ATOM      2  C   UNL     1       1.279   7.693  20.665  0.00  0.00    +0.000 C 
ATOM      3  C   UNL     1       2.331   6.729  20.182  0.00  0.00    +0.000 C 
ATOM      4  C   UNL     1       2.405   6.908  18.677  0.00  0.00    +0.000 C 
ATOM      5  C   UNL     1       1.976   8.374  18.533  0.00  0.00    +0.000 C 
ATOM      6  N   UNL     1       2.158   8.968  17.394  0.00  0.00    +0.000 NA
ENDROOT
BRANCH   6   7
ATOM      7  O   UNL     1       1.823  10.309  17.422  0.00  0.00    +0.000 OA
ATOM      8  H   UNL     1       2.699  10.751  17.364  0.00  0.00    +0.000 HD
ENDBRANCH   6   7
BRANCH   1   9
ATOM      9  C   UNL     1       0.102   9.752  19.770  0.00  0.00    +0.000 C 
BRANCH   9  11
ATOM     10  C   UNL     1      -0.245  10.669  22.212  0.00  0.00    +0.000 C 
ATOM     11  N   UNL     1      -0.007  10.993  20.736  0.00  0.00    +0.000 N 
ATOM     12  C   UNL     1      -1.243  11.811  20.300  0.00  0.00    +0.000 C 
ATOM     13  C   UNL     1       1.228  11.883  20.613  0.00  0.00    +0.000 C 
ENDBRANCH   9  11
ENDBRANCH   1   9
BRANCH   4  14
ATOM     14  C   UNL     1       3.810   6.659  18.098  0.00  0.00    +0.000 C 
BRANCH  14  15
ATOM     15  N   UNL     1       4.192   5.180  17.802  0.00  0.00    +0.000 N 
ATOM     16  C   UNL     1       4.988   5.175  16.478  0.00  0.00    +0.000 C 
ATOM     17  C   UNL     1       5.104   4.527  18.836  0.00  0.00    +0.000 C 
ATOM     18  C   UNL     1       2.949   4.319  17.603  0.00  0.00    +0.000 C 
ENDBRANCH  14  15
ENDBRANCH   4  14
TORSDOF 5
ENDMDL
MODEL 2
REMARK VINA RESULT:      -5.0      0.119      1.036
REMARK  Name = 
REMARK  11 active torsions:
REMARK  status: ('A' for Active; 'I' for Inactive)
REMARK    1  A    between atoms: C_1  and  N_2
REMARK    2  A    between atoms: N_2  and  C_3
REMARK    3  A    between atoms: N_2  and  C_4
REMARK    4  A    between atoms: N_2  and  C_5
REMARK    5  A    between atoms: C_5  and  C_6
REMARK    6  A    between atoms: C_9  and  C_10
REMARK    7  A    between atoms: C_10  and  N_11
REMARK    8  A    between atoms: N_11  and  C_12
REMARK    9  A    between atoms: N_11  and  C_13
REMARK   10  A    between atoms: N_11  and  C_14
REMARK   11  A    between atoms: N_16  and  O_17
REMARK                            x       y       z     vdW  Elec       q    Type
REMARK                         _______ _______ _______ _____ _____    ______ ____
ROOT
ATOM      1  C   UNL     1       1.408   9.003  19.852  0.00  0.00    +0.000 C 
ATOM      2  C   UNL     1       1.239   7.746  20.702  0.00  0.00    +0.000 C 
ATOM      3  C   UNL     1       2.288   6.763  20.254  0.00  0.00    +0.000 C 
ATOM      4  C   UNL     1       2.380   6.905  18.746  0.00  0.00    +0.000 C 
ATOM      5  C   UNL     1       1.965   8.370  18.563  0.00  0.00    +0.000 C 
ATOM      6  N   UNL     1       2.165   8.936  17.412  0.00  0.00    +0.000 NA
ENDROOT
BRANCH   6   7
ATOM      7  O   UNL     1       1.840  10.279  17.405  0.00  0.00    +0.000 OA
ATOM      8  H   UNL     1       0.915  10.276  17.072  0.00  0.00    +0.000 HD
ENDBRANCH   6   7
BRANCH   1   9
ATOM      9  C   UNL     1       0.090   9.792  19.745  0.00  0.00    +0.000 C 
BRANCH   9  11
ATOM     10  C   UNL     1      -0.303  10.754  22.163  0.00  0.00    +0.000 C 
ATOM     11  N   UNL     1      -0.025  11.051  20.689  0.00  0.00    +0.000 N 
ATOM     12  C   UNL     1      -1.237  11.879  20.211  0.00  0.00    +0.000 C 
ATOM     13  C   UNL     1       1.226  11.920  20.583  0.00  0.00    +0.000 C 
ENDBRANCH   9  11
ENDBRANCH   1   9
BRANCH   4  14
ATOM     14  C   UNL     1       3.789   6.630  18.189  0.00  0.00    +0.000 C 
BRANCH  14  15
ATOM     15  N   UNL     1       4.123   5.154  17.829  0.00  0.00    +0.000 N 
ATOM     16  C   UNL     1       2.778   4.413  17.666  0.00  0.00    +0.000 C 
ATOM     17  C   UNL     1       4.864   4.962  16.508  0.00  0.00    +0.000 C 
ATOM     18  C   UNL     1       4.898   4.475  18.952  0.00  0.00    +0.000 C 
ENDBRANCH  14  15
ENDBRANCH   4  14
TORSDOF 5
ENDMDL
MODEL 3
REMARK VINA RESULT:      -5.0      0.158      1.025
REMARK  Name = 
REMARK  11 active torsions:
REMARK  status: ('A' for Active; 'I' for Inactive)
REMARK    1  A    between atoms: C_1  and  N_2
REMARK    2  A    between atoms: N_2  and  C_3
REMARK    3  A    between atoms: N_2  and  C_4
REMARK    4  A    between atoms: N_2  and  C_5
REMARK    5  A    between atoms: C_5  and  C_6
REMARK    6  A    between atoms: C_9  and  C_10
REMARK    7  A    between atoms: C_10  and  N_11
REMARK    8  A    between atoms: N_11  and  C_12
REMARK    9  A    between atoms: N_11  and  C_13
REMARK   10  A    between atoms: N_11  and  C_14
REMARK   11  A    between atoms: N_16  and  O_17
REMARK                            x       y       z     vdW  Elec       q    Type
REMARK                         _______ _______ _______ _____ _____    ______ ____
ROOT
ATOM      1  C   UNL     1       1.382   9.047  19.833  0.00  0.00    +0.000 C 
ATOM      2  C   UNL     1       1.226   7.773  20.661  0.00  0.00    +0.000 C 
ATOM      3  C   UNL     1       2.281   6.806  20.190  0.00  0.00    +0.000 C 
ATOM      4  C   UNL     1       2.365   6.977  18.684  0.00  0.00    +0.000 C 
ATOM      5  C   UNL     1       1.938   8.443  18.530  0.00  0.00    +0.000 C 
ATOM      6  N   UNL     1       2.129   9.031  17.389  0.00  0.00    +0.000 NA
ENDROOT
BRANCH   6   7
ATOM      7  O   UNL     1       1.794  10.372  17.408  0.00  0.00    +0.000 OA
ATOM      8  H   UNL     1       1.396  10.508  16.519  0.00  0.00    +0.000 HD
ENDBRANCH   6   7
BRANCH   1   9
ATOM      9  C   UNL     1       0.057   9.828  19.747  0.00  0.00    +0.000 C 
BRANCH   9  11
ATOM     10  C   UNL     1       1.324  11.991  20.548  0.00  0.00    +0.000 C 
ATOM     11  N   UNL     1       0.021  11.190  20.541  0.00  0.00    +0.000 N 
ATOM     12  C   UNL     1      -0.252  10.854  22.023  0.00  0.00    +0.000 C 
ATOM     13  C   UNL     1      -1.109  12.081  20.031  0.00  0.00    +0.000 C 
ENDBRANCH   9  11
ENDBRANCH   1   9
BRANCH   4  14
ATOM     14  C   UNL     1       3.773   6.724  18.116  0.00  0.00    +0.000 C 
BRANCH  14  15
ATOM     15  N   UNL     1       4.160   5.242  17.840  0.00  0.00    +0.000 N 
ATOM     16  C   UNL     1       4.975   5.225  16.528  0.00  0.00    +0.000 C 
ATOM     17  C   UNL     1       5.060   4.601  18.894  0.00  0.00    +0.000 C 
ATOM     18  C   UNL     1       2.921   4.379  17.634  0.00  0.00    +0.000 C 
ENDBRANCH  14  15
ENDBRANCH   4  14
TORSDOF 5
ENDMDL
MODEL 4
REMARK VINA RESULT:      -4.9      0.082      1.470
REMARK  Name = 
REMARK  11 active torsions:
REMARK  status: ('A' for Active; 'I' for Inactive)
REMARK    1  A    between atoms: C_1  and  N_2
REMARK    2  A    between atoms: N_2  and  C_3
REMARK    3  A    between atoms: N_2  and  C_4
REMARK    4  A    between atoms: N_2  and  C_5
REMARK    5  A    between atoms: C_5  and  C_6
REMARK    6  A    between atoms: C_9  and  C_10
REMARK    7  A    between atoms: C_10  and  N_11
REMARK    8  A    between atoms: N_11  and  C_12
REMARK    9  A    between atoms: N_11  and  C_13
REMARK   10  A    between atoms: N_11  and  C_14
REMARK   11  A    between atoms: N_16  and  O_17
REMARK                            x       y       z     vdW  Elec       q    Type
REMARK                         _______ _______ _______ _____ _____    ______ ____
ROOT
ATOM      1  C   UNL     1       1.412   8.940  19.854  0.00  0.00    +0.000 C 
ATOM      2  C   UNL     1       1.278   7.661  20.679  0.00  0.00    +0.000 C 
ATOM      3  C   UNL     1       2.345   6.711  20.203  0.00  0.00    +0.000 C 
ATOM      4  C   UNL     1       2.423   6.887  18.698  0.00  0.00    +0.000 C 
ATOM      5  C   UNL     1       1.974   8.346  18.548  0.00  0.00    +0.000 C 
ATOM      6  N   UNL     1       2.152   8.940  17.408  0.00  0.00    +0.000 NA
ENDROOT
BRANCH   6   7
ATOM      7  O   UNL     1       1.798  10.276  17.431  0.00  0.00    +0.000 OA
ATOM      8  H   UNL     1       2.665  10.730  17.338  0.00  0.00    +0.000 HD
ENDBRANCH   6   7
BRANCH   1   9
ATOM      9  C   UNL     1       0.076   9.701  19.773  0.00  0.00    +0.000 C 
BRANCH   9  11
ATOM     10  C   UNL     1      -1.157  11.950  20.361  0.00  0.00    +0.000 C 
ATOM     11  N   UNL     1      -0.043  10.962  20.712  0.00  0.00    +0.000 N 
ATOM     12  C   UNL     1       1.266  11.768  20.572  0.00  0.00    +0.000 C 
ATOM     13  C   UNL     1      -0.196  10.537  22.170  0.00  0.00    +0.000 C 
ENDBRANCH   9  11
ENDBRANCH   1   9
BRANCH   4  14
ATOM     14  C   UNL     1       3.833   6.656  18.126  0.00  0.00    +0.000 C 
BRANCH  14  15
ATOM     15  N   UNL     1       4.191   5.199  17.714  0.00  0.00    +0.000 N 
ATOM     16  C   UNL     1       5.087   4.620  18.831  0.00  0.00    +0.000 C 
ATOM     17  C   UNL     1       3.003   4.248  17.601  0.00  0.00    +0.000 C 
ATOM     18  C   UNL     1       4.989   5.174  16.415  0.00  0.00    +0.000 C 
ENDBRANCH  14  15
ENDBRANCH   4  14
TORSDOF 5
ENDMDL
MODEL 5
REMARK VINA RESULT:      -4.9      0.372      1.440
REMARK  Name = 
REMARK  11 active torsions:
REMARK  status: ('A' for Active; 'I' for Inactive)
REMARK    1  A    between atoms: C_1  and  N_2
REMARK    2  A    between atoms: N_2  and  C_3
REMARK    3  A    between atoms: N_2  and  C_4
REMARK    4  A    between atoms: N_2  and  C_5
REMARK    5  A    between atoms: C_5  and  C_6
REMARK    6  A    between atoms: C_9  and  C_10
REMARK    7  A    between atoms: C_10  and  N_11
REMARK    8  A    between atoms: N_11  and  C_12
REMARK    9  A    between atoms: N_11  and  C_13
REMARK   10  A    between atoms: N_11  and  C_14
REMARK   11  A    between atoms: N_16  and  O_17
REMARK                            x       y       z     vdW  Elec       q    Type
REMARK                         _______ _______ _______ _____ _____    ______ ____
ROOT
ATOM      1  C   UNL     1       1.337   9.139  19.845  0.00  0.00    +0.000 C 
ATOM      2  C   UNL     1       1.140   7.910  20.730  0.00  0.00    +0.000 C 
ATOM      3  C   UNL     1       2.181   6.899  20.326  0.00  0.00    +0.000 C 
ATOM      4  C   UNL     1       2.296   6.995  18.816  0.00  0.00    +0.000 C 
ATOM      5  C   UNL     1       1.903   8.460  18.583  0.00  0.00    +0.000 C 
ATOM      6  N   UNL     1       2.126   8.988  17.418  0.00  0.00    +0.000 NA
ENDROOT
BRANCH   6   7
ATOM      7  O   UNL     1       1.820  10.335  17.366  0.00  0.00    +0.000 OA
ATOM      8  H   UNL     1       1.253  10.396  16.565  0.00  0.00    +0.000 HD
ENDBRANCH   6   7
BRANCH   1   9
ATOM      9  C   UNL     1       0.032   9.942  19.696  0.00  0.00    +0.000 C 
BRANCH   9  11
ATOM     10  C   UNL     1       1.392  12.042  20.509  0.00  0.00    +0.000 C 
ATOM     11  N   UNL     1       0.028  11.362  20.381  0.00  0.00    +0.000 N 
ATOM     12  C   UNL     1      -0.465  11.174  21.833  0.00  0.00    +0.000 C 
ATOM     13  C   UNL     1      -0.934  12.305  19.662  0.00  0.00    +0.000 C 
ENDBRANCH   9  11
ENDBRANCH   1   9
BRANCH   4  14
ATOM     14  C   UNL     1       3.708   6.685  18.287  0.00  0.00    +0.000 C 
BRANCH  14  15
ATOM     15  N   UNL     1       4.016   5.199  17.945  0.00  0.00    +0.000 N 
ATOM     16  C   UNL     1       2.658   4.491  17.741  0.00  0.00    +0.000 C 
ATOM     17  C   UNL     1       4.796   4.980  16.651  0.00  0.00    +0.000 C 
ATOM     18  C   UNL     1       4.736   4.507  19.097  0.00  0.00    +0.000 C 
ENDBRANCH  14  15
ENDBRANCH   4  14
TORSDOF 5
ENDMDL
MODEL 6
REMARK VINA RESULT:      -4.9      1.925      2.351
REMARK  Name = 
REMARK  11 active torsions:
REMARK  status: ('A' for Active; 'I' for Inactive)
REMARK    1  A    between atoms: C_1  and  N_2
REMARK    2  A    between atoms: N_2  and  C_3
REMARK    3  A    between atoms: N_2  and  C_4
REMARK    4  A    between atoms: N_2  and  C_5
REMARK    5  A    between atoms: C_5  and  C_6
REMARK    6  A    between atoms: C_9  and  C_10
REMARK    7  A    between atoms: C_10  and  N_11
REMARK    8  A    between atoms: N_11  and  C_12
REMARK    9  A    between atoms: N_11  and  C_13
REMARK   10  A    between atoms: N_11  and  C_14
REMARK   11  A    between atoms: N_16  and  O_17
REMARK                            x       y       z     vdW  Elec       q    Type
REMARK                         _______ _______ _______ _____ _____    ______ ____
ROOT
ATOM      1  C   UNL     1       1.089   9.356  19.034  0.00  0.00    +0.000 C 
ATOM      2  C   UNL     1       2.084   9.336  17.876  0.00  0.00    +0.000 C 
ATOM      3  C   UNL     1       2.518   7.906  17.686  0.00  0.00    +0.000 C 
ATOM      4  C   UNL     1       2.643   7.317  19.079  0.00  0.00    +0.000 C 
ATOM      5  C   UNL     1       1.617   8.159  19.848  0.00  0.00    +0.000 C 
ATOM      6  N   UNL     1       1.259   7.775  21.035  0.00  0.00    +0.000 NA
ENDROOT
BRANCH   6   7
ATOM      7  O   UNL     1       0.260   8.561  21.580  0.00  0.00    +0.000 OA
ATOM      8  H   UNL     1      -0.219   8.882  20.784  0.00  0.00    +0.000 HD
ENDBRANCH   6   7
BRANCH   1   9
ATOM      9  C   UNL     1       1.057  10.730  19.726  0.00  0.00    +0.000 C 
BRANCH   9  11
ATOM     10  C   UNL     1      -0.987  11.878  20.921  0.00  0.00    +0.000 C 
ATOM     11  N   UNL     1      -0.301  11.521  19.601  0.00  0.00    +0.000 N 
ATOM     12  C   UNL     1      -1.303  10.607  18.863  0.00  0.00    +0.000 C 
ATOM     13  C   UNL     1      -0.111  12.793  18.778  0.00  0.00    +0.000 C 
ENDBRANCH   9  11
ENDBRANCH   1   9
BRANCH   4  14
ATOM     14  C   UNL     1       2.317   5.814  19.141  0.00  0.00    +0.000 C 
BRANCH  14  15
ATOM     15  N   UNL     1       3.517   4.832  19.002  0.00  0.00    +0.000 N 
ATOM     16  C   UNL     1       3.529   4.338  17.539  0.00  0.00    +0.000 C 
ATOM     17  C   UNL     1       4.891   5.451  19.242  0.00  0.00    +0.000 C 
ATOM     18  C   UNL     1       3.340   3.616  19.905  0.00  0.00    +0.000 C 
ENDBRANCH  14  15
ENDBRANCH   4  14
TORSDOF 5
ENDMDL
MODEL 7
REMARK VINA RESULT:      -4.9      1.966      2.784
REMARK  Name = 
REMARK  11 active torsions:
REMARK  status: ('A' for Active; 'I' for Inactive)
REMARK    1  A    between atoms: C_1  and  N_2
REMARK    2  A    between atoms: N_2  and  C_3
REMARK    3  A    between atoms: N_2  and  C_4
REMARK    4  A    between atoms: N_2  and  C_5
REMARK    5  A    between atoms: C_5  and  C_6
REMARK    6  A    between atoms: C_9  and  C_10
REMARK    7  A    between atoms: C_10  and  N_11
REMARK    8  A    between atoms: N_11  and  C_12
REMARK    9  A    between atoms: N_11  and  C_13
REMARK   10  A    between atoms: N_11  and  C_14
REMARK   11  A    between atoms: N_16  and  O_17
REMARK                            x       y       z     vdW  Elec       q    Type
REMARK                         _______ _______ _______ _____ _____    ______ ____
ROOT
ATOM      1  C   UNL     1       1.020   9.379  19.044  0.00  0.00    +0.000 C 
ATOM      2  C   UNL     1       1.989   9.260  17.870  0.00  0.00    +0.000 C 
ATOM      3  C   UNL     1       2.419   7.818  17.792  0.00  0.00    +0.000 C 
ATOM      4  C   UNL     1       2.575   7.349  19.227  0.00  0.00    +0.000 C 
ATOM      5  C   UNL     1       1.566   8.255  19.945  0.00  0.00    +0.000 C 
ATOM      6  N   UNL     1       1.235   7.973  21.168  0.00  0.00    +0.000 NA
ENDROOT
BRANCH   6   7
ATOM      7  O   UNL     1       0.249   8.804  21.666  0.00  0.00    +0.000 OA
ATOM      8  H   UNL     1       0.638   9.698  21.543  0.00  0.00    +0.000 HD
ENDBRANCH   6   7
BRANCH   1   9
ATOM      9  C   UNL     1       1.004  10.807  19.618  0.00  0.00    +0.000 C 
BRANCH   9  11
ATOM     10  C   UNL     1      -0.238  12.871  18.557  0.00  0.00    +0.000 C 
ATOM     11  N   UNL     1      -0.340  11.606  19.410  0.00  0.00    +0.000 N 
ATOM     12  C   UNL     1      -0.808  12.094  20.799  0.00  0.00    +0.000 C 
ATOM     13  C   UNL     1      -1.422  10.699  18.828  0.00  0.00    +0.000 C 
ENDBRANCH   9  11
ENDBRANCH   1   9
BRANCH   4  14
ATOM     14  C   UNL     1       2.252   5.857  19.423  0.00  0.00    +0.000 C 
BRANCH  14  15
ATOM     15  N   UNL     1       3.365   4.842  19.033  0.00  0.00    +0.000 N 
ATOM     16  C   UNL     1       3.180   3.600  19.932  0.00  0.00    +0.000 C 
ATOM     17  C   UNL     1       3.298   4.329  17.597  0.00  0.00    +0.000 C 
ATOM     18  C   UNL     1       4.752   5.415  19.305  0.00  0.00    +0.000 C 
ENDBRANCH  14  15
ENDBRANCH   4  14
TORSDOF 5
ENDMDL
MODEL 8
REMARK VINA RESULT:      -4.9      1.932      2.673
REMARK  Name = 
REMARK  11 active torsions:
REMARK  status: ('A' for Active; 'I' for Inactive)
REMARK    1  A    between atoms: C_1  and  N_2
REMARK    2  A    between atoms: N_2  and  C_3
REMARK    3  A    between atoms: N_2  and  C_4
REMARK    4  A    between atoms: N_2  and  C_5
REMARK    5  A    between atoms: C_5  and  C_6
REMARK    6  A    between atoms: C_9  and  C_10
REMARK    7  A    between atoms: C_10  and  N_11
REMARK    8  A    between atoms: N_11  and  C_12
REMARK    9  A    between atoms: N_11  and  C_13
REMARK   10  A    between atoms: N_11  and  C_14
REMARK   11  A    between atoms: N_16  and  O_17
REMARK                            x       y       z     vdW  Elec       q    Type
REMARK                         _______ _______ _______ _____ _____    ______ ____
ROOT
ATOM      1  C   UNL     1       1.079   9.331  19.010  0.00  0.00    +0.000 C 
ATOM      2  C   UNL     1       2.079   9.266  17.858  0.00  0.00    +0.000 C 
ATOM      3  C   UNL     1       2.524   7.832  17.737  0.00  0.00    +0.000 C 
ATOM      4  C   UNL     1       2.648   7.309  19.156  0.00  0.00    +0.000 C 
ATOM      5  C   UNL     1       1.612   8.178  19.881  0.00  0.00    +0.000 C 
ATOM      6  N   UNL     1       1.252   7.846  21.083  0.00  0.00    +0.000 NA
ENDROOT
BRANCH   6   7
ATOM      7  O   UNL     1       0.246   8.648  21.588  0.00  0.00    +0.000 OA
ATOM      8  H   UNL     1      -0.039   9.159  20.797  0.00  0.00    +0.000 HD
ENDBRANCH   6   7
BRANCH   1   9
ATOM      9  C   UNL     1       1.034  10.736  19.639  0.00  0.00    +0.000 C 
BRANCH   9  11
ATOM     10  C   UNL     1      -1.439  10.753  18.738  0.00  0.00    +0.000 C 
ATOM     11  N   UNL     1      -0.337  11.501  19.490  0.00  0.00    +0.000 N 
ATOM     12  C   UNL     1      -0.069  12.770  18.651  0.00  0.00    +0.000 C 
ATOM     13  C   UNL     1      -0.867  11.928  20.856  0.00  0.00    +0.000 C 
ENDBRANCH   9  11
ENDBRANCH   1   9
BRANCH   4  14
ATOM     14  C   UNL     1       2.334   5.808  19.286  0.00  0.00    +0.000 C 
BRANCH  14  15
ATOM     15  N   UNL     1       3.482   4.819  18.930  0.00  0.00    +0.000 N 
ATOM     16  C   UNL     1       3.285   3.563  19.807  0.00  0.00    +0.000 C 
ATOM     17  C   UNL     1       3.483   4.321  17.487  0.00  0.00    +0.000 C 
ATOM     18  C   UNL     1       4.845   5.414  19.265  0.00  0.00    +0.000 C 
ENDBRANCH  14  15
ENDBRANCH   4  14
TORSDOF 5
ENDMDL
MODEL 9
REMARK VINA RESULT:      -4.9      2.014      6.600
REMARK  Name = 
REMARK  11 active torsions:
REMARK  status: ('A' for Active; 'I' for Inactive)
REMARK    1  A    between atoms: C_1  and  N_2
REMARK    2  A    between atoms: N_2  and  C_3
REMARK    3  A    between atoms: N_2  and  C_4
REMARK    4  A    between atoms: N_2  and  C_5
REMARK    5  A    between atoms: C_5  and  C_6
REMARK    6  A    between atoms: C_9  and  C_10
REMARK    7  A    between atoms: C_10  and  N_11
REMARK    8  A    between atoms: N_11  and  C_12
REMARK    9  A    between atoms: N_11  and  C_13
REMARK   10  A    between atoms: N_11  and  C_14
REMARK   11  A    between atoms: N_16  and  O_17
REMARK                            x       y       z     vdW  Elec       q    Type
REMARK                         _______ _______ _______ _____ _____    ______ ____
ROOT
ATOM      1  C   UNL     1       3.147   6.694  18.693  0.00  0.00    +0.000 C 
ATOM      2  C   UNL     1       2.906   7.680  17.553  0.00  0.00    +0.000 C 
ATOM      3  C   UNL     1       2.356   8.942  18.166  0.00  0.00    +0.000 C 
ATOM      4  C   UNL     1       1.420   8.498  19.274  0.00  0.00    +0.000 C 
ATOM      5  C   UNL     1       2.050   7.156  19.671  0.00  0.00    +0.000 C 
ATOM      6  N   UNL     1       1.663   6.587  20.772  0.00  0.00    +0.000 NA
ENDROOT
BRANCH   6   7
ATOM      7  O   UNL     1       2.374   5.439  21.067  0.00  0.00    +0.000 OA
ATOM      8  H   UNL     1       3.049   5.761  21.705  0.00  0.00    +0.000 HD
ENDBRANCH   6   7
BRANCH   1   9
ATOM      9  C   UNL     1       3.091   5.236  18.199  0.00  0.00    +0.000 C 
BRANCH   9  11
ATOM     10  C   UNL     1       4.317   3.120  19.169  0.00  0.00    +0.000 C 
ATOM     11  N   UNL     1       4.427   4.414  18.362  0.00  0.00    +0.000 N 
ATOM     12  C   UNL     1       5.420   5.296  19.151  0.00  0.00    +0.000 C 
ATOM     13  C   UNL     1       5.038   4.101  16.998  0.00  0.00    +0.000 C 
ENDBRANCH   9  11
ENDBRANCH   1   9
BRANCH   4  14
ATOM     14  C   UNL     1       1.361   9.480  20.457  0.00  0.00    +0.000 C 
BRANCH  14  15
ATOM     15  N   UNL     1       0.210  10.527  20.440  0.00  0.00    +0.000 N 
ATOM     16  C   UNL     1       0.851  11.898  20.132  0.00  0.00    +0.000 C 
ATOM     17  C   UNL     1      -0.846  10.311  19.360  0.00  0.00    +0.000 C 
ATOM     18  C   UNL     1      -0.467  10.623  21.803  0.00  0.00    +0.000 C 
ENDBRANCH  14  15
ENDBRANCH   4  14
TORSDOF 5
ENDMDL
