MODEL 1
REMARK VINA RESULT:      -9.2      0.000      0.000
REMARK  Name = 
REMARK  5 active torsions:
REMARK  status: ('A' for Active; 'I' for Inactive)
REMARK    1  A    between atoms: C_1  and  S_2
REMARK    2  A    between atoms: S_2  and  N_5
REMARK    3  A    between atoms: N_5  and  C_6
REMARK    4  A    between atoms: C_10  and  C_11
REMARK    5  A    between atoms: C_17  and  C_18
REMARK                            x       y       z     vdW  Elec       q    Type
REMARK                         _______ _______ _______ _____ _____    ______ ____
ROOT
ATOM      1  C   UNL     1       2.371   6.323  19.645  0.00  0.00    +0.000 A 
ATOM      2  C   UNL     1       1.646   5.626  20.753  0.00  0.00    +0.000 A 
ATOM      3  C   UNL     1       1.994   4.370  21.028  0.00  0.00    +0.000 A 
ATOM      4  C   UNL     1       3.008   3.753  20.276  0.00  0.00    +0.000 A 
ATOM      5  N   UNL     1       3.526   2.550  20.363  0.00  0.00    +0.000 NA
ATOM      6  C   UNL     1       4.476   2.503  19.381  0.00  0.00    +0.000 A 
ATOM      7  C   UNL     1       4.553   3.691  18.673  0.00  0.00    +0.000 A 
ATOM      8  N   UNL     1       3.599   4.496  19.266  0.00  0.00    +0.000 N 
ATOM      9  N   UNL     1       3.315   5.792  18.930  0.00  0.00    +0.000 NA
ENDROOT
BRANCH   1  14
ATOM     10  C   UNL     1       1.103   9.810  20.284  0.00  0.00    +0.000 A 
ATOM     11  C   UNL     1       1.093  10.343  18.991  0.00  0.00    +0.000 A 
ATOM     12  C   UNL     1       1.523   9.570  17.909  0.00  0.00    +0.000 A 
ATOM     13  C   UNL     1       1.962   8.268  18.111  0.00  0.00    +0.000 A 
ATOM     14  C   UNL     1       1.975   7.733  19.405  0.00  0.00    +0.000 A 
ATOM     15  C   UNL     1       1.560   8.509  20.497  0.00  0.00    +0.000 A 
BRANCH  10  16
ATOM     16  N   UNL     1       0.593  10.543  21.394  0.00  0.00    +0.000 N 
ATOM     17  H   UNL     1       1.156  11.325  21.732  0.00  0.00    +0.000 HD
BRANCH  16  19
ATOM     18  C   UNL     1      -1.402  10.904  23.150  0.00  0.00    +0.000 C 
ATOM     19  S   UNL     1      -0.185   9.710  22.643  0.00  0.00    +0.000 S 
ATOM     20  O   UNL     1       0.779   9.582  23.712  0.00  0.00    +0.000 OA
ATOM     21  O   UNL     1      -0.869   8.552  22.103  0.00  0.00    +0.000 OA
ENDBRANCH  16  19
ENDBRANCH  10  16
ENDBRANCH   1  14
BRANCH   7  22
ATOM     22  C   UNL     1       5.437   4.084  17.584  0.00  0.00    +0.000 A 
ATOM     23  C   UNL     1       6.700   4.616  17.771  0.00  0.00    +0.000 A 
ATOM     24  N   UNL     1       7.544   4.943  16.767  0.00  0.00    +0.000 NA
ATOM     25  C   UNL     1       7.078   4.727  15.527  0.00  0.00    +0.000 A 
ATOM     26  N   UNL     1       5.869   4.243  15.210  0.00  0.00    +0.000 NA
ATOM     27  C   UNL     1       5.073   3.937  16.258  0.00  0.00    +0.000 A 
ENDBRANCH   7  22
TORSDOF 4
ENDMDL
MODEL 2
REMARK VINA RESULT:      -9.0      0.846      1.318
REMARK  Name = 
REMARK  5 active torsions:
REMARK  status: ('A' for Active; 'I' for Inactive)
REMARK    1  A    between atoms: C_1  and  S_2
REMARK    2  A    between atoms: S_2  and  N_5
REMARK    3  A    between atoms: N_5  and  C_6
REMARK    4  A    between atoms: C_10  and  C_11
REMARK    5  A    between atoms: C_17  and  C_18
REMARK                            x       y       z     vdW  Elec       q    Type
REMARK                         _______ _______ _______ _____ _____    ______ ____
ROOT
ATOM      1  C   UNL     1       2.372   6.380  19.590  0.00  0.00    +0.000 A 
ATOM      2  C   UNL     1       1.666   5.729  20.737  0.00  0.00    +0.000 A 
ATOM      3  C   UNL     1       2.027   4.490  21.066  0.00  0.00    +0.000 A 
ATOM      4  C   UNL     1       3.037   3.847  20.331  0.00  0.00    +0.000 A 
ATOM      5  N   UNL     1       3.565   2.653  20.469  0.00  0.00    +0.000 NA
ATOM      6  C   UNL     1       4.505   2.568  19.479  0.00  0.00    +0.000 A 
ATOM      7  C   UNL     1       4.565   3.722  18.716  0.00  0.00    +0.000 A 
ATOM      8  N   UNL     1       3.612   4.547  19.282  0.00  0.00    +0.000 N 
ATOM      9  N   UNL     1       3.313   5.823  18.889  0.00  0.00    +0.000 NA
ENDROOT
BRANCH   1  14
ATOM     10  C   UNL     1       0.571   9.677  19.826  0.00  0.00    +0.000 A 
ATOM     11  C   UNL     1       1.057  10.340  18.694  0.00  0.00    +0.000 A 
ATOM     12  C   UNL     1       1.993   9.719  17.864  0.00  0.00    +0.000 A 
ATOM     13  C   UNL     1       2.446   8.439  18.156  0.00  0.00    +0.000 A 
ATOM     14  C   UNL     1       1.962   7.773  19.289  0.00  0.00    +0.000 A 
ATOM     15  C   UNL     1       1.034   8.398  20.136  0.00  0.00    +0.000 A 
BRANCH  10  16
ATOM     16  N   UNL     1      -0.445  10.249  20.644  0.00  0.00    +0.000 N 
ATOM     17  H   UNL     1      -1.237  10.682  20.166  0.00  0.00    +0.000 HD
BRANCH  16  19
ATOM     18  C   UNL     1      -1.568  11.728  22.579  0.00  0.00    +0.000 C 
ATOM     19  S   UNL     1       0.000  11.075  22.052  0.00  0.00    +0.000 S 
ATOM     20  O   UNL     1       0.822  12.186  21.633  0.00  0.00    +0.000 OA
ATOM     21  O   UNL     1       0.464  10.126  23.045  0.00  0.00    +0.000 OA
ENDBRANCH  16  19
ENDBRANCH  10  16
ENDBRANCH   1  14
BRANCH   7  22
ATOM     22  C   UNL     1       5.434   4.070  17.600  0.00  0.00    +0.000 A 
ATOM     23  C   UNL     1       5.088   3.901  16.272  0.00  0.00    +0.000 A 
ATOM     24  N   UNL     1       5.871   4.261  15.230  0.00  0.00    +0.000 NA
ATOM     25  C   UNL     1       7.052   4.806  15.557  0.00  0.00    +0.000 A 
ATOM     26  N   UNL     1       7.517   5.000  16.799  0.00  0.00    +0.000 NA
ATOM     27  C   UNL     1       6.689   4.619  17.795  0.00  0.00    +0.000 A 
ENDBRANCH   7  22
TORSDOF 4
ENDMDL
MODEL 3
REMARK VINA RESULT:      -8.8      1.245      1.311
REMARK  Name = 
REMARK  5 active torsions:
REMARK  status: ('A' for Active; 'I' for Inactive)
REMARK    1  A    between atoms: C_1  and  S_2
REMARK    2  A    between atoms: S_2  and  N_5
REMARK    3  A    between atoms: N_5  and  C_6
REMARK    4  A    between atoms: C_10  and  C_11
REMARK    5  A    between atoms: C_17  and  C_18
REMARK                            x       y       z     vdW  Elec       q    Type
REMARK                         _______ _______ _______ _____ _____    ______ ____
ROOT
ATOM      1  C   UNL     1       2.393   6.429  19.570  0.00  0.00    +0.000 A 
ATOM      2  C   UNL     1       1.689   5.778  20.719  0.00  0.00    +0.000 A 
ATOM      3  C   UNL     1       2.044   4.536  21.039  0.00  0.00    +0.000 A 
ATOM      4  C   UNL     1       3.046   3.888  20.296  0.00  0.00    +0.000 A 
ATOM      5  N   UNL     1       3.566   2.690  20.424  0.00  0.00    +0.000 NA
ATOM      6  C   UNL     1       4.499   2.603  19.428  0.00  0.00    +0.000 A 
ATOM      7  C   UNL     1       4.562   3.761  18.670  0.00  0.00    +0.000 A 
ATOM      8  N   UNL     1       3.618   4.589  19.246  0.00  0.00    +0.000 N 
ATOM      9  N   UNL     1       3.326   5.869  18.861  0.00  0.00    +0.000 NA
ENDROOT
BRANCH   1  14
ATOM     10  C   UNL     1       0.684   9.768  19.886  0.00  0.00    +0.000 A 
ATOM     11  C   UNL     1       1.097  10.404  18.711  0.00  0.00    +0.000 A 
ATOM     12  C   UNL     1       1.956   9.751  17.824  0.00  0.00    +0.000 A 
ATOM     13  C   UNL     1       2.403   8.466  18.102  0.00  0.00    +0.000 A 
ATOM     14  C   UNL     1       1.991   7.827  19.278  0.00  0.00    +0.000 A 
ATOM     15  C   UNL     1       1.142   8.485  20.182  0.00  0.00    +0.000 A 
BRANCH  10  16
ATOM     16  N   UNL     1      -0.255  10.375  20.769  0.00  0.00    +0.000 N 
ATOM     17  H   UNL     1      -1.241  10.320  20.507  0.00  0.00    +0.000 HD
BRANCH  16  19
ATOM     18  C   UNL     1      -0.747  12.997  20.495  0.00  0.00    +0.000 C 
ATOM     19  S   UNL     1       0.142  11.840  21.513  0.00  0.00    +0.000 S 
ATOM     20  O   UNL     1       1.553  12.047  21.285  0.00  0.00    +0.000 OA
ATOM     21  O   UNL     1      -0.419  11.874  22.850  0.00  0.00    +0.000 OA
ENDBRANCH  16  19
ENDBRANCH  10  16
ENDBRANCH   1  14
BRANCH   7  22
ATOM     22  C   UNL     1       5.427   4.108  17.551  0.00  0.00    +0.000 A 
ATOM     23  C   UNL     1       6.734   4.538  17.691  0.00  0.00    +0.000 A 
ATOM     24  N   UNL     1       7.557   4.822  16.656  0.00  0.00    +0.000 NA
ATOM     25  C   UNL     1       7.023   4.669  15.435  0.00  0.00    +0.000 A 
ATOM     26  N   UNL     1       5.767   4.286  15.163  0.00  0.00    +0.000 NA
ATOM     27  C   UNL     1       4.996   4.019  16.239  0.00  0.00    +0.000 A 
ENDBRANCH   7  22
TORSDOF 4
ENDMDL
MODEL 4
REMARK VINA RESULT:      -8.5      1.411      1.813
REMARK  Name = 
REMARK  5 active torsions:
REMARK  status: ('A' for Active; 'I' for Inactive)
REMARK    1  A    between atoms: C_1  and  S_2
REMARK    2  A    between atoms: S_2  and  N_5
REMARK    3  A    between atoms: N_5  and  C_6
REMARK    4  A    between atoms: C_10  and  C_11
REMARK    5  A    between atoms: C_17  and  C_18
REMARK                            x       y       z     vdW  Elec       q    Type
REMARK                         _______ _______ _______ _____ _____    ______ ____
ROOT
ATOM      1  C   UNL     1       2.386   6.451  19.563  0.00  0.00    +0.000 A 
ATOM      2  C   UNL     1       1.649   5.800  20.691  0.00  0.00    +0.000 A 
ATOM      3  C   UNL     1       1.968   4.543  20.995  0.00  0.00    +0.000 A 
ATOM      4  C   UNL     1       2.963   3.883  20.254  0.00  0.00    +0.000 A 
ATOM      5  N   UNL     1       3.451   2.670  20.370  0.00  0.00    +0.000 NA
ATOM      6  C   UNL     1       4.395   2.576  19.385  0.00  0.00    +0.000 A 
ATOM      7  C   UNL     1       4.498   3.744  18.648  0.00  0.00    +0.000 A 
ATOM      8  N   UNL     1       3.567   4.586  19.225  0.00  0.00    +0.000 N 
ATOM      9  N   UNL     1       3.313   5.880  18.857  0.00  0.00    +0.000 NA
ENDROOT
BRANCH   1  14
ATOM     10  C   UNL     1       0.951   9.900  20.032  0.00  0.00    +0.000 A 
ATOM     11  C   UNL     1       1.200  10.477  18.782  0.00  0.00    +0.000 A 
ATOM     12  C   UNL     1       1.858   9.746  17.790  0.00  0.00    +0.000 A 
ATOM     13  C   UNL     1       2.270   8.443  18.038  0.00  0.00    +0.000 A 
ATOM     14  C   UNL     1       2.023   7.864  19.290  0.00  0.00    +0.000 A 
ATOM     15  C   UNL     1       1.377   8.599  20.295  0.00  0.00    +0.000 A 
BRANCH  10  16
ATOM     16  N   UNL     1       0.210  10.589  21.033  0.00  0.00    +0.000 N 
ATOM     17  H   UNL     1      -0.160  10.031  21.805  0.00  0.00    +0.000 HD
BRANCH  16  19
ATOM     18  C   UNL     1      -1.793  12.051  22.056  0.00  0.00    +0.000 C 
ATOM     19  S   UNL     1      -0.834  11.838  20.573  0.00  0.00    +0.000 S 
ATOM     20  O   UNL     1      -1.706  11.290  19.560  0.00  0.00    +0.000 OA
ATOM     21  O   UNL     1      -0.071  13.047  20.337  0.00  0.00    +0.000 OA
ENDBRANCH  16  19
ENDBRANCH  10  16
ENDBRANCH   1  14
BRANCH   7  22
ATOM     22  C   UNL     1       5.387   4.087  17.546  0.00  0.00    +0.000 A 
ATOM     23  C   UNL     1       5.017   4.040  16.214  0.00  0.00    +0.000 A 
ATOM     24  N   UNL     1       5.821   4.398  15.188  0.00  0.00    +0.000 NA
ATOM     25  C   UNL     1       7.050   4.811  15.534  0.00  0.00    +0.000 A 
ATOM     26  N   UNL     1       7.539   4.880  16.780  0.00  0.00    +0.000 NA
ATOM     27  C   UNL     1       6.687   4.507  17.760  0.00  0.00    +0.000 A 
ENDBRANCH   7  22
TORSDOF 4
ENDMDL
MODEL 5
REMARK VINA RESULT:      -8.3      1.299      1.340
REMARK  Name = 
REMARK  5 active torsions:
REMARK  status: ('A' for Active; 'I' for Inactive)
REMARK    1  A    between atoms: C_1  and  S_2
REMARK    2  A    between atoms: S_2  and  N_5
REMARK    3  A    between atoms: N_5  and  C_6
REMARK    4  A    between atoms: C_10  and  C_11
REMARK    5  A    between atoms: C_17  and  C_18
REMARK                            x       y       z     vdW  Elec       q    Type
REMARK                         _______ _______ _______ _____ _____    ______ ____
ROOT
ATOM      1  C   UNL     1       2.386   6.407  19.589  0.00  0.00    +0.000 A 
ATOM      2  C   UNL     1       1.660   5.727  20.706  0.00  0.00    +0.000 A 
ATOM      3  C   UNL     1       1.993   4.469  20.987  0.00  0.00    +0.000 A 
ATOM      4  C   UNL     1       2.995   3.834  20.234  0.00  0.00    +0.000 A 
ATOM      5  N   UNL     1       3.498   2.625  20.327  0.00  0.00    +0.000 NA
ATOM      6  C   UNL     1       4.442   2.560  19.339  0.00  0.00    +0.000 A 
ATOM      7  C   UNL     1       4.530   3.742  18.623  0.00  0.00    +0.000 A 
ATOM      8  N   UNL     1       3.590   4.563  19.216  0.00  0.00    +0.000 N 
ATOM      9  N   UNL     1       3.320   5.859  18.872  0.00  0.00    +0.000 NA
ENDROOT
BRANCH   1  14
ATOM     10  C   UNL     1       1.026   9.869  20.170  0.00  0.00    +0.000 A 
ATOM     11  C   UNL     1       1.152  10.434  18.896  0.00  0.00    +0.000 A 
ATOM     12  C   UNL     1       1.704   9.691  17.850  0.00  0.00    +0.000 A 
ATOM     13  C   UNL     1       2.130   8.387  18.067  0.00  0.00    +0.000 A 
ATOM     14  C   UNL     1       2.007   7.820  19.341  0.00  0.00    +0.000 A 
ATOM     15  C   UNL     1       1.469   8.567  20.400  0.00  0.00    +0.000 A 
BRANCH  10  16
ATOM     16  N   UNL     1       0.393  10.571  21.235  0.00  0.00    +0.000 N 
ATOM     17  H   UNL     1       0.294  10.076  22.123  0.00  0.00    +0.000 HD
BRANCH  16  19
ATOM     18  C   UNL     1      -0.121  13.132  20.624  0.00  0.00    +0.000 C 
ATOM     19  S   UNL     1      -0.929  11.569  20.892  0.00  0.00    +0.000 S 
ATOM     20  O   UNL     1      -1.692  11.672  22.114  0.00  0.00    +0.000 OA
ATOM     21  O   UNL     1      -1.547  11.148  19.650  0.00  0.00    +0.000 OA
ENDBRANCH  16  19
ENDBRANCH  10  16
ENDBRANCH   1  14
BRANCH   7  22
ATOM     22  C   UNL     1       5.413   4.116  17.527  0.00  0.00    +0.000 A 
ATOM     23  C   UNL     1       6.716   4.547  17.699  0.00  0.00    +0.000 A 
ATOM     24  N   UNL     1       7.556   4.856  16.686  0.00  0.00    +0.000 NA
ATOM     25  C   UNL     1       7.045   4.726  15.452  0.00  0.00    +0.000 A 
ATOM     26  N   UNL     1       5.796   4.344  15.150  0.00  0.00    +0.000 NA
ATOM     27  C   UNL     1       5.006   4.052  16.206  0.00  0.00    +0.000 A 
ENDBRANCH   7  22
TORSDOF 4
ENDMDL
MODEL 6
REMARK VINA RESULT:      -8.1      0.754      1.304
REMARK  Name = 
REMARK  5 active torsions:
REMARK  status: ('A' for Active; 'I' for Inactive)
REMARK    1  A    between atoms: C_1  and  S_2
REMARK    2  A    between atoms: S_2  and  N_5
REMARK    3  A    between atoms: N_5  and  C_6
REMARK    4  A    between atoms: C_10  and  C_11
REMARK    5  A    between atoms: C_17  and  C_18
REMARK                            x       y       z     vdW  Elec       q    Type
REMARK                         _______ _______ _______ _____ _____    ______ ____
ROOT
ATOM      1  C   UNL     1       2.407   6.333  19.606  0.00  0.00    +0.000 A 
ATOM      2  C   UNL     1       1.691   5.673  20.741  0.00  0.00    +0.000 A 
ATOM      3  C   UNL     1       2.035   4.424  21.050  0.00  0.00    +0.000 A 
ATOM      4  C   UNL     1       3.039   3.780  20.306  0.00  0.00    +0.000 A 
ATOM      5  N   UNL     1       3.551   2.577  20.424  0.00  0.00    +0.000 NA
ATOM      6  C   UNL     1       4.491   2.496  19.434  0.00  0.00    +0.000 A 
ATOM      7  C   UNL     1       4.566   3.662  18.690  0.00  0.00    +0.000 A 
ATOM      8  N   UNL     1       3.623   4.490  19.269  0.00  0.00    +0.000 N 
ATOM      9  N   UNL     1       3.341   5.776  18.897  0.00  0.00    +0.000 NA
ENDROOT
BRANCH   1  14
ATOM     10  C   UNL     1       0.953   9.772  20.087  0.00  0.00    +0.000 A 
ATOM     11  C   UNL     1       1.137  10.331  18.818  0.00  0.00    +0.000 A 
ATOM     12  C   UNL     1       1.759   9.593  17.809  0.00  0.00    +0.000 A 
ATOM     13  C   UNL     1       2.197   8.298  18.058  0.00  0.00    +0.000 A 
ATOM     14  C   UNL     1       2.015   7.736  19.328  0.00  0.00    +0.000 A 
ATOM     15  C   UNL     1       1.406   8.479  20.350  0.00  0.00    +0.000 A 
BRANCH  10  16
ATOM     16  N   UNL     1       0.249  10.468  21.111  0.00  0.00    +0.000 N 
ATOM     17  H   UNL     1       0.609  11.385  21.381  0.00  0.00    +0.000 HD
BRANCH  16  19
ATOM     18  C   UNL     1       1.107   9.284  23.359  0.00  0.00    +0.000 C 
ATOM     19  S   UNL     1      -0.372   9.598  22.421  0.00  0.00    +0.000 S 
ATOM     20  O   UNL     1      -0.835   8.336  21.893  0.00  0.00    +0.000 OA
ATOM     21  O   UNL     1      -1.244  10.453  23.203  0.00  0.00    +0.000 OA
ENDBRANCH  16  19
ENDBRANCH  10  16
ENDBRANCH   1  14
BRANCH   7  22
ATOM     22  C   UNL     1       5.440   4.018  17.581  0.00  0.00    +0.000 A 
ATOM     23  C   UNL     1       5.099   3.861  16.250  0.00  0.00    +0.000 A 
ATOM     24  N   UNL     1       5.887   4.228  15.214  0.00  0.00    +0.000 NA
ATOM     25  C   UNL     1       7.069   4.766  15.550  0.00  0.00    +0.000 A 
ATOM     26  N   UNL     1       7.529   4.948  16.795  0.00  0.00    +0.000 NA
ATOM     27  C   UNL     1       6.696   4.561  17.785  0.00  0.00    +0.000 A 
ENDBRANCH   7  22
TORSDOF 4
ENDMDL
MODEL 7
REMARK VINA RESULT:      -7.8      3.283      8.325
REMARK  Name = 
REMARK  5 active torsions:
REMARK  status: ('A' for Active; 'I' for Inactive)
REMARK    1  A    between atoms: C_1  and  S_2
REMARK    2  A    between atoms: S_2  and  N_5
REMARK    3  A    between atoms: N_5  and  C_6
REMARK    4  A    between atoms: C_10  and  C_11
REMARK    5  A    between atoms: C_17  and  C_18
REMARK                            x       y       z     vdW  Elec       q    Type
REMARK                         _______ _______ _______ _____ _____    ______ ____
ROOT
ATOM      1  C   UNL     1       0.741   9.498  20.869  0.00  0.00    +0.000 A 
ATOM      2  C   UNL     1       0.065   8.769  21.987  0.00  0.00    +0.000 A 
ATOM      3  C   UNL     1      -0.628   9.489  22.867  0.00  0.00    +0.000 A 
ATOM      4  C   UNL     1      -0.695  10.885  22.719  0.00  0.00    +0.000 A 
ATOM      5  N   UNL     1      -1.315  11.792  23.438  0.00  0.00    +0.000 NA
ATOM      6  C   UNL     1      -1.030  12.981  22.825  0.00  0.00    +0.000 A 
ATOM      7  C   UNL     1      -0.225  12.814  21.710  0.00  0.00    +0.000 A 
ATOM      8  N   UNL     1      -0.018  11.449  21.649  0.00  0.00    +0.000 N 
ATOM      9  N   UNL     1       0.701  10.784  20.693  0.00  0.00    +0.000 NA
ENDROOT
BRANCH   1  14
ATOM     10  C   UNL     1       2.764   6.655  19.457  0.00  0.00    +0.000 A 
ATOM     11  C   UNL     1       2.955   7.078  18.137  0.00  0.00    +0.000 A 
ATOM     12  C   UNL     1       2.401   8.284  17.700  0.00  0.00    +0.000 A 
ATOM     13  C   UNL     1       1.660   9.070  18.572  0.00  0.00    +0.000 A 
ATOM     14  C   UNL     1       1.467   8.648  19.893  0.00  0.00    +0.000 A 
ATOM     15  C   UNL     1       2.006   7.430  20.334  0.00  0.00    +0.000 A 
BRANCH  10  16
ATOM     16  N   UNL     1       3.384   5.474  19.955  0.00  0.00    +0.000 N 
ATOM     17  H   UNL     1       4.309   5.243  19.586  0.00  0.00    +0.000 HD
BRANCH  16  19
ATOM     18  C   UNL     1       3.550   2.804  19.759  0.00  0.00    +0.000 C 
ATOM     19  S   UNL     1       2.435   4.103  20.241  0.00  0.00    +0.000 S 
ATOM     20  O   UNL     1       1.360   4.141  19.278  0.00  0.00    +0.000 OA
ATOM     21  O   UNL     1       2.172   3.983  21.662  0.00  0.00    +0.000 OA
ENDBRANCH  16  19
ENDBRANCH  10  16
ENDBRANCH   1  14
BRANCH   7  22
ATOM     22  C   UNL     1       0.281  13.792  20.758  0.00  0.00    +0.000 A 
ATOM     23  C   UNL     1       1.492  14.445  20.894  0.00  0.00    +0.000 A 
ATOM     24  N   UNL     1       1.989  15.323  19.993  0.00  0.00    +0.000 NA
ATOM     25  C   UNL     1       1.217  15.548  18.919  0.00  0.00    +0.000 A 
ATOM     26  N   UNL     1       0.016  15.002  18.680  0.00  0.00    +0.000 NA
ATOM     27  C   UNL     1      -0.424  14.135  19.618  0.00  0.00    +0.000 A 
ENDBRANCH   7  22
TORSDOF 4
ENDMDL
MODEL 8
REMARK VINA RESULT:      -7.8      3.536      8.478
REMARK  Name = 
REMARK  5 active torsions:
REMARK  status: ('A' for Active; 'I' for Inactive)
REMARK    1  A    between atoms: C_1  and  S_2
REMARK    2  A    between atoms: S_2  and  N_5
REMARK    3  A    between atoms: N_5  and  C_6
REMARK    4  A    between atoms: C_10  and  C_11
REMARK    5  A    between atoms: C_17  and  C_18
REMARK                            x       y       z     vdW  Elec       q    Type
REMARK                         _______ _______ _______ _____ _____    ______ ____
ROOT
ATOM      1  C   UNL     1       0.692   9.584  20.879  0.00  0.00    +0.000 A 
ATOM      2  C   UNL     1       0.023   8.892  22.025  0.00  0.00    +0.000 A 
ATOM      3  C   UNL     1      -0.653   9.642  22.893  0.00  0.00    +0.000 A 
ATOM      4  C   UNL     1      -0.709  11.034  22.708  0.00  0.00    +0.000 A 
ATOM      5  N   UNL     1      -1.311  11.966  23.409  0.00  0.00    +0.000 NA
ATOM      6  C   UNL     1      -1.023  13.135  22.760  0.00  0.00    +0.000 A 
ATOM      7  C   UNL     1      -0.233  12.930  21.641  0.00  0.00    +0.000 A 
ATOM      8  N   UNL     1      -0.040  11.562  21.615  0.00  0.00    +0.000 N 
ATOM      9  N   UNL     1       0.661  10.865  20.669  0.00  0.00    +0.000 NA
ENDROOT
BRANCH   1  14
ATOM     10  C   UNL     1       2.622   6.656  19.511  0.00  0.00    +0.000 A 
ATOM     11  C   UNL     1       2.848   7.065  18.192  0.00  0.00    +0.000 A 
ATOM     12  C   UNL     1       2.350   8.289  17.741  0.00  0.00    +0.000 A 
ATOM     13  C   UNL     1       1.627   9.108  18.598  0.00  0.00    +0.000 A 
ATOM     14  C   UNL     1       1.398   8.701  19.919  0.00  0.00    +0.000 A 
ATOM     15  C   UNL     1       1.882   7.465  20.373  0.00  0.00    +0.000 A 
BRANCH  10  16
ATOM     16  N   UNL     1       3.187   5.454  20.024  0.00  0.00    +0.000 N 
ATOM     17  H   UNL     1       4.185   5.466  20.242  0.00  0.00    +0.000 HD
BRANCH  16  19
ATOM     18  C   UNL     1       2.912   2.901  20.800  0.00  0.00    +0.000 C 
ATOM     19  S   UNL     1       2.674   3.969  19.397  0.00  0.00    +0.000 S 
ATOM     20  O   UNL     1       3.638   3.595  18.389  0.00  0.00    +0.000 OA
ATOM     21  O   UNL     1       1.256   4.032  19.099  0.00  0.00    +0.000 OA
ENDBRANCH  16  19
ENDBRANCH  10  16
ENDBRANCH   1  14
BRANCH   7  22
ATOM     22  C   UNL     1       0.270  13.878  20.656  0.00  0.00    +0.000 A 
ATOM     23  C   UNL     1      -0.454  14.306  19.559  0.00  0.00    +0.000 A 
ATOM     24  N   UNL     1      -0.012  15.217  18.663  0.00  0.00    +0.000 NA
ATOM     25  C   UNL     1       1.217  15.703  18.893  0.00  0.00    +0.000 A 
ATOM     26  N   UNL     1       2.030  15.354  19.900  0.00  0.00    +0.000 NA
ATOM     27  C   UNL     1       1.530  14.439  20.759  0.00  0.00    +0.000 A 
ENDBRANCH   7  22
TORSDOF 4
ENDMDL
MODEL 9
REMARK VINA RESULT:      -7.8      3.739      8.288
REMARK  Name = 
REMARK  5 active torsions:
REMARK  status: ('A' for Active; 'I' for Inactive)
REMARK    1  A    between atoms: C_1  and  S_2
REMARK    2  A    between atoms: S_2  and  N_5
REMARK    3  A    between atoms: N_5  and  C_6
REMARK    4  A    between atoms: C_10  and  C_11
REMARK    5  A    between atoms: C_17  and  C_18
REMARK                            x       y       z     vdW  Elec       q    Type
REMARK                         _______ _______ _______ _____ _____    ______ ____
ROOT
ATOM      1  C   UNL     1       0.552   9.591  20.014  0.00  0.00    +0.000 A 
ATOM      2  C   UNL     1       0.879  10.082  21.390  0.00  0.00    +0.000 A 
ATOM      3  C   UNL     1       0.116  11.046  21.902  0.00  0.00    +0.000 A 
ATOM      4  C   UNL     1      -0.947  11.563  21.142  0.00  0.00    +0.000 A 
ATOM      5  N   UNL     1      -1.831  12.490  21.430  0.00  0.00    +0.000 NA
ATOM      6  C   UNL     1      -2.624  12.577  20.319  0.00  0.00    +0.000 A 
ATOM      7  C   UNL     1      -2.231  11.692  19.328  0.00  0.00    +0.000 A 
ATOM      8  N   UNL     1      -1.146  11.036  19.876  0.00  0.00    +0.000 N 
ATOM      9  N   UNL     1      -0.422  10.038  19.282  0.00  0.00    +0.000 NA
ENDROOT
BRANCH   1  14
ATOM     10  C   UNL     1       2.541   6.396  19.923  0.00  0.00    +0.000 A 
ATOM     11  C   UNL     1       3.112   6.461  18.647  0.00  0.00    +0.000 A 
ATOM     12  C   UNL     1       2.829   7.539  17.805  0.00  0.00    +0.000 A 
ATOM     13  C   UNL     1       1.980   8.554  18.229  0.00  0.00    +0.000 A 
ATOM     14  C   UNL     1       1.406   8.490  19.505  0.00  0.00    +0.000 A 
ATOM     15  C   UNL     1       1.674   7.402  20.349  0.00  0.00    +0.000 A 
BRANCH  10  16
ATOM     16  N   UNL     1       2.875   5.355  20.834  0.00  0.00    +0.000 N 
ATOM     17  H   UNL     1       3.868   5.196  21.015  0.00  0.00    +0.000 HD
BRANCH  16  19
ATOM     18  C   UNL     1       2.918   2.944  19.657  0.00  0.00    +0.000 C 
ATOM     19  S   UNL     1       1.979   3.921  20.811  0.00  0.00    +0.000 S 
ATOM     20  O   UNL     1       0.714   4.239  20.191  0.00  0.00    +0.000 OA
ATOM     21  O   UNL     1       2.043   3.287  22.113  0.00  0.00    +0.000 OA
ENDBRANCH  16  19
ENDBRANCH  10  16
ENDBRANCH   1  14
BRANCH   7  22
ATOM     22  C   UNL     1      -2.808  11.430  18.017  0.00  0.00    +0.000 A 
ATOM     23  C   UNL     1      -2.090  10.934  16.944  0.00  0.00    +0.000 A 
ATOM     24  N   UNL     1      -2.627  10.647  15.736  0.00  0.00    +0.000 NA
ATOM     25  C   UNL     1      -3.942  10.882  15.618  0.00  0.00    +0.000 A 
ATOM     26  N   UNL     1      -4.744  11.383  16.568  0.00  0.00    +0.000 NA
ATOM     27  C   UNL     1      -4.148  11.650  17.750  0.00  0.00    +0.000 A 
ENDBRANCH   7  22
TORSDOF 4
ENDMDL
