MODEL 1
REMARK VINA RESULT:      -7.5      0.000      0.000
REMARK  Name = 
REMARK  13 active torsions:
REMARK  status: ('A' for Active; 'I' for Inactive)
REMARK    1  A    between atoms: C_1  and  O_2
REMARK    2  A    between atoms: O_2  and  C_3
REMARK    3  A    between atoms: C_6  and  C_7
REMARK    4  A    between atoms: C_8  and  C_9
REMARK    5  A    between atoms: C_9  and  C_11
REMARK    6  A    between atoms: C_13  and  C_14
REMARK    7  A    between atoms: C_14  and  O_16
REMARK    8  A    between atoms: C_17  and  O_18
REMARK    9  A    between atoms: O_18  and  C_19
REMARK   10  A    between atoms: C_21  and  O_22
REMARK   11  A    between atoms: O_22  and  C_23
REMARK   12  A    between atoms: C_25  and  O_26
REMARK   13  A    between atoms: O_26  and  C_27
REMARK                            x       y       z     vdW  Elec       q    Type
REMARK                         _______ _______ _______ _____ _____    ______ ____
ROOT
ATOM      1  C   UNL     1       2.879   4.798  20.187  0.00  0.00    +0.000 C 
ATOM      2  O   UNL     1       2.829   4.001  21.114  0.00  0.00    +0.000 OA
ENDROOT
BRANCH   1   3
ATOM      3  C   UNL     1       3.696   4.545  18.961  0.00  0.00    +0.000 A 
ATOM      4  C   UNL     1       5.070   4.835  19.022  0.00  0.00    +0.000 A 
ATOM      5  C   UNL     1       5.919   4.672  17.911  0.00  0.00    +0.000 A 
ATOM      6  C   UNL     1       5.421   4.099  16.739  0.00  0.00    +0.000 A 
ATOM      7  C   UNL     1       4.066   3.751  16.694  0.00  0.00    +0.000 A 
ATOM      8  C   UNL     1       3.193   3.980  17.777  0.00  0.00    +0.000 A 
BRANCH   5   9
ATOM      9  C   UNL     1       7.344   5.058  18.065  0.00  0.00    +0.000 C 
ATOM     10  O   UNL     1       7.726   6.170  18.391  0.00  0.00    +0.000 OA
BRANCH   9  11
ATOM     11  O   UNL     1       8.207   4.061  17.753  0.00  0.00    +0.000 OA
ATOM     12  H   UNL     1       8.945   3.927  18.373  0.00  0.00    +0.000 HD
ENDBRANCH   9  11
ENDBRANCH   5   9
BRANCH   6  13
ATOM     13  O   UNL     1       6.296   3.926  15.704  0.00  0.00    +0.000 OA
ATOM     14  C   UNL     1       5.909   4.390  14.415  0.00  0.00    +0.000 C 
ENDBRANCH   6  13
BRANCH   8  15
ATOM     15  O   UNL     1       1.934   3.506  17.522  0.00  0.00    +0.000 OA
ATOM     16  C   UNL     1       1.474   2.370  18.243  0.00  0.00    +0.000 C 
ENDBRANCH   8  15
ENDBRANCH   1   3
BRANCH   1  18
ATOM     17  C   UNL     1       2.446   7.130  19.474  0.00  0.00    +0.000 C 
ATOM     18  C   UNL     1       2.130   6.091  20.259  0.00  0.00    +0.000 C 
BRANCH  17  22
ATOM     19  C   UNL     1       0.118  10.752  19.491  0.00  0.00    +0.000 A 
ATOM     20  C   UNL     1       0.790  10.357  18.326  0.00  0.00    +0.000 A 
ATOM     21  C   UNL     1       1.532   9.175  18.290  0.00  0.00    +0.000 A 
ATOM     22  C   UNL     1       1.679   8.389  19.435  0.00  0.00    +0.000 A 
ATOM     23  C   UNL     1       1.067   8.829  20.615  0.00  0.00    +0.000 A 
ATOM     24  C   UNL     1       0.293  10.002  20.662  0.00  0.00    +0.000 A 
BRANCH  19  26
ATOM     25  C   UNL     1      -1.262  12.223  18.250  0.00  0.00    +0.000 C 
ATOM     26  O   UNL     1      -0.669  11.871  19.500  0.00  0.00    +0.000 OA
ENDBRANCH  19  26
BRANCH  24  27
ATOM     27  O   UNL     1      -0.204  10.233  21.916  0.00  0.00    +0.000 OA
ATOM     28  C   UNL     1       0.231   9.418  22.992  0.00  0.00    +0.000 C 
ENDBRANCH  24  27
ENDBRANCH  17  22
ENDBRANCH   1  18
TORSDOF 9
ENDMDL
MODEL 2
REMARK VINA RESULT:      -7.3      1.051      1.217
REMARK  Name = 
REMARK  13 active torsions:
REMARK  status: ('A' for Active; 'I' for Inactive)
REMARK    1  A    between atoms: C_1  and  O_2
REMARK    2  A    between atoms: O_2  and  C_3
REMARK    3  A    between atoms: C_6  and  C_7
REMARK    4  A    between atoms: C_8  and  C_9
REMARK    5  A    between atoms: C_9  and  C_11
REMARK    6  A    between atoms: C_13  and  C_14
REMARK    7  A    between atoms: C_14  and  O_16
REMARK    8  A    between atoms: C_17  and  O_18
REMARK    9  A    between atoms: O_18  and  C_19
REMARK   10  A    between atoms: C_21  and  O_22
REMARK   11  A    between atoms: O_22  and  C_23
REMARK   12  A    between atoms: C_25  and  O_26
REMARK   13  A    between atoms: O_26  and  C_27
REMARK                            x       y       z     vdW  Elec       q    Type
REMARK                         _______ _______ _______ _____ _____    ______ ____
ROOT
ATOM      1  C   UNL     1       2.801   5.611  19.811  0.00  0.00    +0.000 C 
ATOM      2  O   UNL     1       2.629   5.010  20.863  0.00  0.00    +0.000 OA
ENDROOT
BRANCH   1   3
ATOM      3  C   UNL     1       3.570   5.022  18.673  0.00  0.00    +0.000 A 
ATOM      4  C   UNL     1       4.964   5.203  18.666  0.00  0.00    +0.000 A 
ATOM      5  C   UNL     1       5.777   4.725  17.621  0.00  0.00    +0.000 A 
ATOM      6  C   UNL     1       5.211   3.949  16.607  0.00  0.00    +0.000 A 
ATOM      7  C   UNL     1       3.832   3.712  16.643  0.00  0.00    +0.000 A 
ATOM      8  C   UNL     1       3.001   4.251  17.646  0.00  0.00    +0.000 A 
BRANCH   5   9
ATOM      9  C   UNL     1       7.231   5.017  17.683  0.00  0.00    +0.000 C 
ATOM     10  O   UNL     1       8.008   4.486  18.459  0.00  0.00    +0.000 OA
BRANCH   9  11
ATOM     11  O   UNL     1       7.621   5.984  16.818  0.00  0.00    +0.000 OA
ATOM     12  H   UNL     1       7.483   6.900  17.113  0.00  0.00    +0.000 HD
ENDBRANCH   9  11
ENDBRANCH   5   9
BRANCH   6  13
ATOM     13  O   UNL     1       6.049   3.476  15.637  0.00  0.00    +0.000 OA
ATOM     14  C   UNL     1       5.983   4.071  14.347  0.00  0.00    +0.000 C 
ENDBRANCH   6  13
BRANCH   8  15
ATOM     15  O   UNL     1       1.704   3.838  17.505  0.00  0.00    +0.000 OA
ATOM     16  C   UNL     1       1.209   2.829  18.377  0.00  0.00    +0.000 C 
ENDBRANCH   8  15
ENDBRANCH   1   3
BRANCH   1  18
ATOM     17  C   UNL     1       1.481   7.567  20.560  0.00  0.00    +0.000 C 
ATOM     18  C   UNL     1       2.256   6.992  19.631  0.00  0.00    +0.000 C 
BRANCH  17  22
ATOM     19  C   UNL     1      -0.016  11.603  20.452  0.00  0.00    +0.000 A 
ATOM     20  C   UNL     1       0.492  11.013  19.286  0.00  0.00    +0.000 A 
ATOM     21  C   UNL     1       0.961   9.698  19.292  0.00  0.00    +0.000 A 
ATOM     22  C   UNL     1       0.999   8.958  20.476  0.00  0.00    +0.000 A 
ATOM     23  C   UNL     1       0.560   9.580  21.652  0.00  0.00    +0.000 A 
ATOM     24  C   UNL     1       0.058  10.893  21.658  0.00  0.00    +0.000 A 
BRANCH  19  26
ATOM     25  C   UNL     1      -0.555  13.506  19.150  0.00  0.00    +0.000 C 
ATOM     26  O   UNL     1      -0.544  12.864  20.425  0.00  0.00    +0.000 OA
ENDBRANCH  19  26
BRANCH  24  27
ATOM     27  O   UNL     1      -0.309  11.290  22.916  0.00  0.00    +0.000 OA
ATOM     28  C   UNL     1      -1.686  11.342  23.249  0.00  0.00    +0.000 C 
ENDBRANCH  24  27
ENDBRANCH  17  22
ENDBRANCH   1  18
TORSDOF 9
ENDMDL
MODEL 3
REMARK VINA RESULT:      -7.2      4.627      7.153
REMARK  Name = 
REMARK  13 active torsions:
REMARK  status: ('A' for Active; 'I' for Inactive)
REMARK    1  A    between atoms: C_1  and  O_2
REMARK    2  A    between atoms: O_2  and  C_3
REMARK    3  A    between atoms: C_6  and  C_7
REMARK    4  A    between atoms: C_8  and  C_9
REMARK    5  A    between atoms: C_9  and  C_11
REMARK    6  A    between atoms: C_13  and  C_14
REMARK    7  A    between atoms: C_14  and  O_16
REMARK    8  A    between atoms: C_17  and  O_18
REMARK    9  A    between atoms: O_18  and  C_19
REMARK   10  A    between atoms: C_21  and  O_22
REMARK   11  A    between atoms: O_22  and  C_23
REMARK   12  A    between atoms: C_25  and  O_26
REMARK   13  A    between atoms: O_26  and  C_27
REMARK                            x       y       z     vdW  Elec       q    Type
REMARK                         _______ _______ _______ _____ _____    ______ ____
ROOT
ATOM      1  C   UNL     1       6.798   6.275  17.197  0.00  0.00    +0.000 C 
ATOM      2  O   UNL     1       7.206   5.930  16.097  0.00  0.00    +0.000 OA
ENDROOT
BRANCH   1   3
ATOM      3  C   UNL     1       5.541   5.726  17.790  0.00  0.00    +0.000 A 
ATOM      4  C   UNL     1       5.596   4.443  18.362  0.00  0.00    +0.000 A 
ATOM      5  C   UNL     1       4.460   3.818  18.909  0.00  0.00    +0.000 A 
ATOM      6  C   UNL     1       3.258   4.523  18.996  0.00  0.00    +0.000 A 
ATOM      7  C   UNL     1       3.214   5.825  18.484  0.00  0.00    +0.000 A 
ATOM      8  C   UNL     1       4.328   6.430  17.867  0.00  0.00    +0.000 A 
BRANCH   5   9
ATOM      9  C   UNL     1       4.614   2.440  19.439  0.00  0.00    +0.000 C 
ATOM     10  O   UNL     1       5.192   2.161  20.477  0.00  0.00    +0.000 OA
BRANCH   9  11
ATOM     11  O   UNL     1       4.091   1.491  18.626  0.00  0.00    +0.000 OA
ATOM     12  H   UNL     1       4.507   0.613  18.673  0.00  0.00    +0.000 HD
ENDBRANCH   9  11
ENDBRANCH   5   9
BRANCH   6  13
ATOM     13  O   UNL     1       2.196   3.885  19.571  0.00  0.00    +0.000 OA
ATOM     14  C   UNL     1       1.324   4.647  20.397  0.00  0.00    +0.000 C 
ENDBRANCH   6  13
BRANCH   8  15
ATOM     15  O   UNL     1       4.063   7.721  17.497  0.00  0.00    +0.000 OA
ATOM     16  C   UNL     1       2.801   8.283  17.833  0.00  0.00    +0.000 C 
ENDBRANCH   8  15
ENDBRANCH   1   3
BRANCH   1  18
ATOM     17  C   UNL     1       7.869   8.489  17.482  0.00  0.00    +0.000 C 
ATOM     18  C   UNL     1       7.546   7.295  17.996  0.00  0.00    +0.000 C 
BRANCH  17  22
ATOM     19  C   UNL     1       9.815  11.695  19.599  0.00  0.00    +0.000 A 
ATOM     20  C   UNL     1       9.527  10.493  20.260  0.00  0.00    +0.000 A 
ATOM     21  C   UNL     1       8.918   9.432  19.587  0.00  0.00    +0.000 A 
ATOM     22  C   UNL     1       8.517   9.565  18.256  0.00  0.00    +0.000 A 
ATOM     23  C   UNL     1       8.740  10.795  17.625  0.00  0.00    +0.000 A 
ATOM     24  C   UNL     1       9.377  11.864  18.278  0.00  0.00    +0.000 A 
BRANCH  19  26
ATOM     25  C   UNL     1       9.731  13.407  21.234  0.00  0.00    +0.000 C 
ATOM     26  O   UNL     1      10.478  12.705  20.240  0.00  0.00    +0.000 OA
ENDBRANCH  19  26
BRANCH  24  27
ATOM     27  O   UNL     1       9.484  12.962  17.468  0.00  0.00    +0.000 OA
ATOM     28  C   UNL     1      10.770  13.388  17.048  0.00  0.00    +0.000 C 
ENDBRANCH  24  27
ENDBRANCH  17  22
ENDBRANCH   1  18
TORSDOF 9
ENDMDL
MODEL 4
REMARK VINA RESULT:      -7.1      1.129      2.073
REMARK  Name = 
REMARK  13 active torsions:
REMARK  status: ('A' for Active; 'I' for Inactive)
REMARK    1  A    between atoms: C_1  and  O_2
REMARK    2  A    between atoms: O_2  and  C_3
REMARK    3  A    between atoms: C_6  and  C_7
REMARK    4  A    between atoms: C_8  and  C_9
REMARK    5  A    between atoms: C_9  and  C_11
REMARK    6  A    between atoms: C_13  and  C_14
REMARK    7  A    between atoms: C_14  and  O_16
REMARK    8  A    between atoms: C_17  and  O_18
REMARK    9  A    between atoms: O_18  and  C_19
REMARK   10  A    between atoms: C_21  and  O_22
REMARK   11  A    between atoms: O_22  and  C_23
REMARK   12  A    between atoms: C_25  and  O_26
REMARK   13  A    between atoms: O_26  and  C_27
REMARK                            x       y       z     vdW  Elec       q    Type
REMARK                         _______ _______ _______ _____ _____    ______ ____
ROOT
ATOM      1  C   UNL     1       2.422   5.386  20.305  0.00  0.00    +0.000 C 
ATOM      2  O   UNL     1       2.265   4.671  21.285  0.00  0.00    +0.000 OA
ENDROOT
BRANCH   1   3
ATOM      3  C   UNL     1       3.202   4.942  19.110  0.00  0.00    +0.000 A 
ATOM      4  C   UNL     1       4.579   5.227  19.089  0.00  0.00    +0.000 A 
ATOM      5  C   UNL     1       5.396   4.889  17.994  0.00  0.00    +0.000 A 
ATOM      6  C   UNL     1       4.863   4.150  16.936  0.00  0.00    +0.000 A 
ATOM      7  C   UNL     1       3.506   3.810  16.982  0.00  0.00    +0.000 A 
ATOM      8  C   UNL     1       2.664   4.209  18.039  0.00  0.00    +0.000 A 
BRANCH   5   9
ATOM      9  C   UNL     1       6.827   5.283  18.048  0.00  0.00    +0.000 C 
ATOM     10  O   UNL     1       7.227   6.433  18.001  0.00  0.00    +0.000 OA
BRANCH   9  11
ATOM     11  O   UNL     1       7.672   4.225  18.104  0.00  0.00    +0.000 OA
ATOM     12  H   UNL     1       7.635   3.692  18.917  0.00  0.00    +0.000 HD
ENDBRANCH   9  11
ENDBRANCH   5   9
BRANCH   6  13
ATOM     13  O   UNL     1       5.708   3.814  15.916  0.00  0.00    +0.000 OA
ATOM     14  C   UNL     1       5.624   4.555  14.705  0.00  0.00    +0.000 C 
ENDBRANCH   6  13
BRANCH   8  15
ATOM     15  O   UNL     1       1.397   3.712  17.894  0.00  0.00    +0.000 OA
ATOM     16  C   UNL     1       1.039   2.534  18.605  0.00  0.00    +0.000 C 
ENDBRANCH   8  15
ENDBRANCH   1   3
BRANCH   1  18
ATOM     17  C   UNL     1       1.068   7.223  21.266  0.00  0.00    +0.000 C 
ATOM     18  C   UNL     1       1.846   6.767  20.276  0.00  0.00    +0.000 C 
BRANCH  17  22
ATOM     19  C   UNL     1      -0.339  11.293  21.325  0.00  0.00    +0.000 A 
ATOM     20  C   UNL     1      -0.332  10.537  22.505  0.00  0.00    +0.000 A 
ATOM     21  C   UNL     1       0.142   9.224  22.515  0.00  0.00    +0.000 A 
ATOM     22  C   UNL     1       0.557   8.605  21.334  0.00  0.00    +0.000 A 
ATOM     23  C   UNL     1       0.476   9.342  20.145  0.00  0.00    +0.000 A 
ATOM     24  C   UNL     1       0.029  10.674  20.122  0.00  0.00    +0.000 A 
BRANCH  19  26
ATOM     25  C   UNL     1      -2.130  12.829  21.526  0.00  0.00    +0.000 C 
ATOM     26  O   UNL     1      -0.733  12.602  21.334  0.00  0.00    +0.000 OA
ENDBRANCH  19  26
BRANCH  24  27
ATOM     27  O   UNL     1       0.033  11.189  18.854  0.00  0.00    +0.000 OA
ATOM     28  C   UNL     1      -1.193  11.302  18.151  0.00  0.00    +0.000 C 
ENDBRANCH  24  27
ENDBRANCH  17  22
ENDBRANCH   1  18
TORSDOF 9
ENDMDL
MODEL 5
REMARK VINA RESULT:      -7.1      1.329      2.195
REMARK  Name = 
REMARK  13 active torsions:
REMARK  status: ('A' for Active; 'I' for Inactive)
REMARK    1  A    between atoms: C_1  and  O_2
REMARK    2  A    between atoms: O_2  and  C_3
REMARK    3  A    between atoms: C_6  and  C_7
REMARK    4  A    between atoms: C_8  and  C_9
REMARK    5  A    between atoms: C_9  and  C_11
REMARK    6  A    between atoms: C_13  and  C_14
REMARK    7  A    between atoms: C_14  and  O_16
REMARK    8  A    between atoms: C_17  and  O_18
REMARK    9  A    between atoms: O_18  and  C_19
REMARK   10  A    between atoms: C_21  and  O_22
REMARK   11  A    between atoms: O_22  and  C_23
REMARK   12  A    between atoms: C_25  and  O_26
REMARK   13  A    between atoms: O_26  and  C_27
REMARK                            x       y       z     vdW  Elec       q    Type
REMARK                         _______ _______ _______ _____ _____    ______ ____
ROOT
ATOM      1  C   UNL     1       3.103   5.313  19.615  0.00  0.00    +0.000 C 
ATOM      2  O   UNL     1       2.786   4.422  20.392  0.00  0.00    +0.000 OA
ENDROOT
BRANCH   1   3
ATOM      3  C   UNL     1       4.160   5.126  18.575  0.00  0.00    +0.000 A 
ATOM      4  C   UNL     1       5.307   5.935  18.660  0.00  0.00    +0.000 A 
ATOM      5  C   UNL     1       6.342   5.868  17.708  0.00  0.00    +0.000 A 
ATOM      6  C   UNL     1       6.296   4.896  16.706  0.00  0.00    +0.000 A 
ATOM      7  C   UNL     1       5.185   4.046  16.655  0.00  0.00    +0.000 A 
ATOM      8  C   UNL     1       4.110   4.157  17.560  0.00  0.00    +0.000 A 
BRANCH   5   9
ATOM      9  C   UNL     1       7.485   6.803  17.858  0.00  0.00    +0.000 C 
ATOM     10  O   UNL     1       7.773   7.673  17.054  0.00  0.00    +0.000 OA
BRANCH   9  11
ATOM     11  O   UNL     1       8.228   6.568  18.967  0.00  0.00    +0.000 OA
ATOM     12  H   UNL     1       7.911   5.857  19.549  0.00  0.00    +0.000 HD
ENDBRANCH   9  11
ENDBRANCH   5   9
BRANCH   6  13
ATOM     13  O   UNL     1       7.345   4.847  15.832  0.00  0.00    +0.000 OA
ATOM     14  C   UNL     1       7.055   4.709  14.445  0.00  0.00    +0.000 C 
ENDBRANCH   6  13
BRANCH   8  15
ATOM     15  O   UNL     1       3.169   3.185  17.350  0.00  0.00    +0.000 OA
ATOM     16  C   UNL     1       3.347   1.917  17.968  0.00  0.00    +0.000 C 
ENDBRANCH   8  15
ENDBRANCH   1   3
BRANCH   1  18
ATOM     17  C   UNL     1       1.704   7.012  20.751  0.00  0.00    +0.000 C 
ATOM     18  C   UNL     1       2.447   6.655  19.695  0.00  0.00    +0.000 C 
BRANCH  17  22
ATOM     19  C   UNL     1       0.052  10.973  21.104  0.00  0.00    +0.000 A 
ATOM     20  C   UNL     1       0.301  10.213  22.255  0.00  0.00    +0.000 A 
ATOM     21  C   UNL     1       0.858   8.936  22.167  0.00  0.00    +0.000 A 
ATOM     22  C   UNL     1       1.118   8.354  20.924  0.00  0.00    +0.000 A 
ATOM     23  C   UNL     1       0.796   9.090  19.776  0.00  0.00    +0.000 A 
ATOM     24  C   UNL     1       0.261  10.388  19.848  0.00  0.00    +0.000 A 
BRANCH  19  26
ATOM     25  C   UNL     1       0.566  13.280  21.245  0.00  0.00    +0.000 C 
ATOM     26  O   UNL     1      -0.424  12.251  21.199  0.00  0.00    +0.000 OA
ENDBRANCH  19  26
BRANCH  24  27
ATOM     27  O   UNL     1       0.026  10.909  18.605  0.00  0.00    +0.000 OA
ATOM     28  C   UNL     1      -1.292  10.879  18.082  0.00  0.00    +0.000 C 
ENDBRANCH  24  27
ENDBRANCH  17  22
ENDBRANCH   1  18
TORSDOF 9
ENDMDL
MODEL 6
REMARK VINA RESULT:      -7.1      4.481      6.926
REMARK  Name = 
REMARK  13 active torsions:
REMARK  status: ('A' for Active; 'I' for Inactive)
REMARK    1  A    between atoms: C_1  and  O_2
REMARK    2  A    between atoms: O_2  and  C_3
REMARK    3  A    between atoms: C_6  and  C_7
REMARK    4  A    between atoms: C_8  and  C_9
REMARK    5  A    between atoms: C_9  and  C_11
REMARK    6  A    between atoms: C_13  and  C_14
REMARK    7  A    between atoms: C_14  and  O_16
REMARK    8  A    between atoms: C_17  and  O_18
REMARK    9  A    between atoms: O_18  and  C_19
REMARK   10  A    between atoms: C_21  and  O_22
REMARK   11  A    between atoms: O_22  and  C_23
REMARK   12  A    between atoms: C_25  and  O_26
REMARK   13  A    between atoms: O_26  and  C_27
REMARK                            x       y       z     vdW  Elec       q    Type
REMARK                         _______ _______ _______ _____ _____    ______ ____
ROOT
ATOM      1  C   UNL     1       7.110   6.123  17.479  0.00  0.00    +0.000 C 
ATOM      2  O   UNL     1       8.066   5.367  17.374  0.00  0.00    +0.000 OA
ENDROOT
BRANCH   1   3
ATOM      3  C   UNL     1       5.702   5.625  17.542  0.00  0.00    +0.000 A 
ATOM      4  C   UNL     1       4.788   6.354  18.322  0.00  0.00    +0.000 A 
ATOM      5  C   UNL     1       3.450   5.949  18.482  0.00  0.00    +0.000 A 
ATOM      6  C   UNL     1       2.970   4.853  17.761  0.00  0.00    +0.000 A 
ATOM      7  C   UNL     1       3.861   4.161  16.933  0.00  0.00    +0.000 A 
ATOM      8  C   UNL     1       5.221   4.517  16.827  0.00  0.00    +0.000 A 
BRANCH   5   9
ATOM      9  C   UNL     1       2.580   6.759  19.371  0.00  0.00    +0.000 C 
ATOM     10  O   UNL     1       2.166   7.874  19.101  0.00  0.00    +0.000 OA
BRANCH   9  11
ATOM     11  O   UNL     1       2.322   6.161  20.559  0.00  0.00    +0.000 OA
ATOM     12  H   UNL     1       2.956   5.477  20.839  0.00  0.00    +0.000 HD
ENDBRANCH   9  11
ENDBRANCH   5   9
BRANCH   6  13
ATOM     13  O   UNL     1       1.653   4.525  17.921  0.00  0.00    +0.000 OA
ATOM     14  C   UNL     1       1.344   3.276  18.530  0.00  0.00    +0.000 C 
ENDBRANCH   6  13
BRANCH   8  15
ATOM     15  O   UNL     1       5.880   3.733  15.918  0.00  0.00    +0.000 OA
ATOM     16  C   UNL     1       5.906   4.142  14.556  0.00  0.00    +0.000 C 
ENDBRANCH   8  15
ENDBRANCH   1   3
BRANCH   1  18
ATOM     17  C   UNL     1       8.233   8.158  18.332  0.00  0.00    +0.000 C 
ATOM     18  C   UNL     1       7.318   7.604  17.526  0.00  0.00    +0.000 C 
BRANCH  17  22
ATOM     19  C   UNL     1       9.189  12.353  18.530  0.00  0.00    +0.000 A 
ATOM     20  C   UNL     1       8.310  11.881  17.545  0.00  0.00    +0.000 A 
ATOM     21  C   UNL     1       7.968  10.529  17.477  0.00  0.00    +0.000 A 
ATOM     22  C   UNL     1       8.545   9.600  18.345  0.00  0.00    +0.000 A 
ATOM     23  C   UNL     1       9.481  10.068  19.277  0.00  0.00    +0.000 A 
ATOM     24  C   UNL     1       9.815  11.429  19.379  0.00  0.00    +0.000 A 
BRANCH  19  26
ATOM     25  C   UNL     1       8.332  14.543  18.804  0.00  0.00    +0.000 C 
ATOM     26  O   UNL     1       9.464  13.687  18.641  0.00  0.00    +0.000 OA
ENDBRANCH  19  26
BRANCH  24  27
ATOM     27  O   UNL     1      10.748  11.651  20.355  0.00  0.00    +0.000 OA
ATOM     28  C   UNL     1      12.096  11.886  19.982  0.00  0.00    +0.000 C 
ENDBRANCH  24  27
ENDBRANCH  17  22
ENDBRANCH   1  18
TORSDOF 9
ENDMDL
MODEL 7
REMARK VINA RESULT:      -7.1      4.776      7.188
REMARK  Name = 
REMARK  13 active torsions:
REMARK  status: ('A' for Active; 'I' for Inactive)
REMARK    1  A    between atoms: C_1  and  O_2
REMARK    2  A    between atoms: O_2  and  C_3
REMARK    3  A    between atoms: C_6  and  C_7
REMARK    4  A    between atoms: C_8  and  C_9
REMARK    5  A    between atoms: C_9  and  C_11
REMARK    6  A    between atoms: C_13  and  C_14
REMARK    7  A    between atoms: C_14  and  O_16
REMARK    8  A    between atoms: C_17  and  O_18
REMARK    9  A    between atoms: O_18  and  C_19
REMARK   10  A    between atoms: C_21  and  O_22
REMARK   11  A    between atoms: O_22  and  C_23
REMARK   12  A    between atoms: C_25  and  O_26
REMARK   13  A    between atoms: O_26  and  C_27
REMARK                            x       y       z     vdW  Elec       q    Type
REMARK                         _______ _______ _______ _____ _____    ______ ____
ROOT
ATOM      1  C   UNL     1       7.113   6.623  16.898  0.00  0.00    +0.000 C 
ATOM      2  O   UNL     1       7.779   6.287  15.929  0.00  0.00    +0.000 OA
ENDROOT
BRANCH   1   3
ATOM      3  C   UNL     1       5.760   6.050  17.173  0.00  0.00    +0.000 A 
ATOM      4  C   UNL     1       4.809   6.887  17.781  0.00  0.00    +0.000 A 
ATOM      5  C   UNL     1       3.520   6.435  18.120  0.00  0.00    +0.000 A 
ATOM      6  C   UNL     1       3.119   5.150  17.746  0.00  0.00    +0.000 A 
ATOM      7  C   UNL     1       4.042   4.333  17.084  0.00  0.00    +0.000 A 
ATOM      8  C   UNL     1       5.359   4.754  16.808  0.00  0.00    +0.000 A 
BRANCH   5   9
ATOM      9  C   UNL     1       2.609   7.383  18.809  0.00  0.00    +0.000 C 
ATOM     10  O   UNL     1       2.195   8.420  18.318  0.00  0.00    +0.000 OA
BRANCH   9  11
ATOM     11  O   UNL     1       2.313   7.016  20.079  0.00  0.00    +0.000 OA
ATOM     12  H   UNL     1       3.022   6.565  20.569  0.00  0.00    +0.000 HD
ENDBRANCH   9  11
ENDBRANCH   5   9
BRANCH   6  13
ATOM     13  O   UNL     1       1.845   4.773  18.064  0.00  0.00    +0.000 OA
ATOM     14  C   UNL     1       1.594   3.393  18.302  0.00  0.00    +0.000 C 
ENDBRANCH   6  13
BRANCH   8  15
ATOM     15  O   UNL     1       6.057   3.809  16.105  0.00  0.00    +0.000 OA
ATOM     16  C   UNL     1       5.994   3.830  14.685  0.00  0.00    +0.000 C 
ENDBRANCH   8  15
ENDBRANCH   1   3
BRANCH   1  18
ATOM     17  C   UNL     1       8.246   8.762  17.418  0.00  0.00    +0.000 C 
ATOM     18  C   UNL     1       7.628   7.655  17.850  0.00  0.00    +0.000 C 
BRANCH  17  22
ATOM     19  C   UNL     1       9.576  12.036  19.878  0.00  0.00    +0.000 A 
ATOM     20  C   UNL     1       9.428  10.758  20.434  0.00  0.00    +0.000 A 
ATOM     21  C   UNL     1       9.021   9.676  19.650  0.00  0.00    +0.000 A 
ATOM     22  C   UNL     1       8.684   9.854  18.306  0.00  0.00    +0.000 A 
ATOM     23  C   UNL     1       8.762  11.149  17.778  0.00  0.00    +0.000 A 
ATOM     24  C   UNL     1       9.197  12.243  18.545  0.00  0.00    +0.000 A 
BRANCH  19  26
ATOM     25  C   UNL     1       9.477  13.208  21.934  0.00  0.00    +0.000 C 
ATOM     26  O   UNL     1      10.047  13.076  20.631  0.00  0.00    +0.000 OA
ENDBRANCH  19  26
BRANCH  24  27
ATOM     27  O   UNL     1       9.191  13.405  17.821  0.00  0.00    +0.000 OA
ATOM     28  C   UNL     1      10.426  14.001  17.460  0.00  0.00    +0.000 C 
ENDBRANCH  24  27
ENDBRANCH  17  22
ENDBRANCH   1  18
TORSDOF 9
ENDMDL
MODEL 8
REMARK VINA RESULT:      -7.1      1.287      2.193
REMARK  Name = 
REMARK  13 active torsions:
REMARK  status: ('A' for Active; 'I' for Inactive)
REMARK    1  A    between atoms: C_1  and  O_2
REMARK    2  A    between atoms: O_2  and  C_3
REMARK    3  A    between atoms: C_6  and  C_7
REMARK    4  A    between atoms: C_8  and  C_9
REMARK    5  A    between atoms: C_9  and  C_11
REMARK    6  A    between atoms: C_13  and  C_14
REMARK    7  A    between atoms: C_14  and  O_16
REMARK    8  A    between atoms: C_17  and  O_18
REMARK    9  A    between atoms: O_18  and  C_19
REMARK   10  A    between atoms: C_21  and  O_22
REMARK   11  A    between atoms: O_22  and  C_23
REMARK   12  A    between atoms: C_25  and  O_26
REMARK   13  A    between atoms: O_26  and  C_27
REMARK                            x       y       z     vdW  Elec       q    Type
REMARK                         _______ _______ _______ _____ _____    ______ ____
ROOT
ATOM      1  C   UNL     1       2.937   5.317  19.755  0.00  0.00    +0.000 C 
ATOM      2  O   UNL     1       2.474   4.416  20.442  0.00  0.00    +0.000 OA
ENDROOT
BRANCH   1   3
ATOM      3  C   UNL     1       3.895   5.056  18.638  0.00  0.00    +0.000 A 
ATOM      4  C   UNL     1       5.155   5.676  18.702  0.00  0.00    +0.000 A 
ATOM      5  C   UNL     1       6.115   5.529  17.683  0.00  0.00    +0.000 A 
ATOM      6  C   UNL     1       5.867   4.656  16.622  0.00  0.00    +0.000 A 
ATOM      7  C   UNL     1       4.638   3.987  16.585  0.00  0.00    +0.000 A 
ATOM      8  C   UNL     1       3.643   4.186  17.563  0.00  0.00    +0.000 A 
BRANCH   5   9
ATOM      9  C   UNL     1       7.394   6.270  17.822  0.00  0.00    +0.000 C 
ATOM     10  O   UNL     1       8.032   6.354  18.857  0.00  0.00    +0.000 OA
BRANCH   9  11
ATOM     11  O   UNL     1       7.772   6.903  16.686  0.00  0.00    +0.000 OA
ATOM     12  H   UNL     1       7.121   7.515  16.301  0.00  0.00    +0.000 HD
ENDBRANCH   9  11
ENDBRANCH   5   9
BRANCH   6  13
ATOM     13  O   UNL     1       6.847   4.519  15.680  0.00  0.00    +0.000 OA
ATOM     14  C   UNL     1       6.454   4.252  14.338  0.00  0.00    +0.000 C 
ENDBRANCH   6  13
BRANCH   8  15
ATOM     15  O   UNL     1       2.554   3.384  17.350  0.00  0.00    +0.000 OA
ATOM     16  C   UNL     1       2.577   2.053  17.850  0.00  0.00    +0.000 C 
ENDBRANCH   8  15
ENDBRANCH   1   3
BRANCH   1  18
ATOM     17  C   UNL     1       1.379   7.072  20.542  0.00  0.00    +0.000 C 
ATOM     18  C   UNL     1       2.570   6.741  20.026  0.00  0.00    +0.000 C 
BRANCH  17  22
ATOM     19  C   UNL     1       0.371  11.145  21.512  0.00  0.00    +0.000 A 
ATOM     20  C   UNL     1       0.344  10.161  22.509  0.00  0.00    +0.000 A 
ATOM     21  C   UNL     1       0.689   8.838  22.223  0.00  0.00    +0.000 A 
ATOM     22  C   UNL     1       1.005   8.448  20.920  0.00  0.00    +0.000 A 
ATOM     23  C   UNL     1       0.957   9.423  19.915  0.00  0.00    +0.000 A 
ATOM     24  C   UNL     1       0.639  10.764  20.190  0.00  0.00    +0.000 A 
BRANCH  19  26
ATOM     25  C   UNL     1      -1.015  12.678  22.669  0.00  0.00    +0.000 C 
ATOM     26  O   UNL     1       0.105  12.453  21.812  0.00  0.00    +0.000 OA
ENDBRANCH  19  26
BRANCH  24  27
ATOM     27  O   UNL     1       0.653  11.532  19.057  0.00  0.00    +0.000 OA
ATOM     28  C   UNL     1       1.837  12.230  18.711  0.00  0.00    +0.000 C 
ENDBRANCH  24  27
ENDBRANCH  17  22
ENDBRANCH   1  18
TORSDOF 9
ENDMDL
MODEL 9
REMARK VINA RESULT:      -7.0      4.585      6.964
REMARK  Name = 
REMARK  13 active torsions:
REMARK  status: ('A' for Active; 'I' for Inactive)
REMARK    1  A    between atoms: C_1  and  O_2
REMARK    2  A    between atoms: O_2  and  C_3
REMARK    3  A    between atoms: C_6  and  C_7
REMARK    4  A    between atoms: C_8  and  C_9
REMARK    5  A    between atoms: C_9  and  C_11
REMARK    6  A    between atoms: C_13  and  C_14
REMARK    7  A    between atoms: C_14  and  O_16
REMARK    8  A    between atoms: C_17  and  O_18
REMARK    9  A    between atoms: O_18  and  C_19
REMARK   10  A    between atoms: C_21  and  O_22
REMARK   11  A    between atoms: O_22  and  C_23
REMARK   12  A    between atoms: C_25  and  O_26
REMARK   13  A    between atoms: O_26  and  C_27
REMARK                            x       y       z     vdW  Elec       q    Type
REMARK                         _______ _______ _______ _____ _____    ______ ____
ROOT
ATOM      1  C   UNL     1       6.248   6.667  17.013  0.00  0.00    +0.000 C 
ATOM      2  O   UNL     1       6.835   6.265  16.017  0.00  0.00    +0.000 OA
ENDROOT
BRANCH   1   3
ATOM      3  C   UNL     1       5.000   6.018  17.519  0.00  0.00    +0.000 A 
ATOM      4  C   UNL     1       5.080   4.670  17.909  0.00  0.00    +0.000 A 
ATOM      5  C   UNL     1       3.956   3.953  18.361  0.00  0.00    +0.000 A 
ATOM      6  C   UNL     1       2.740   4.617  18.539  0.00  0.00    +0.000 A 
ATOM      7  C   UNL     1       2.671   5.976  18.211  0.00  0.00    +0.000 A 
ATOM      8  C   UNL     1       3.774   6.681  17.687  0.00  0.00    +0.000 A 
BRANCH   5   9
ATOM      9  C   UNL     1       4.135   2.518  18.697  0.00  0.00    +0.000 C 
ATOM     10  O   UNL     1       3.582   1.600  18.116  0.00  0.00    +0.000 OA
BRANCH   9  11
ATOM     11  O   UNL     1       4.946   2.315  19.763  0.00  0.00    +0.000 OA
ATOM     12  H   UNL     1       5.503   1.518  19.730  0.00  0.00    +0.000 HD
ENDBRANCH   9  11
ENDBRANCH   5   9
BRANCH   6  13
ATOM     13  O   UNL     1       1.689   3.886  19.017  0.00  0.00    +0.000 OA
ATOM     14  C   UNL     1       1.219   4.169  20.330  0.00  0.00    +0.000 C 
ENDBRANCH   6  13
BRANCH   8  15
ATOM     15  O   UNL     1       3.485   8.006  17.498  0.00  0.00    +0.000 OA
ATOM     16  C   UNL     1       2.184   8.475  17.828  0.00  0.00    +0.000 C 
ENDBRANCH   8  15
ENDBRANCH   1   3
BRANCH   1  18
ATOM     17  C   UNL     1       7.994   8.331  17.571  0.00  0.00    +0.000 C 
ATOM     18  C   UNL     1       6.756   7.858  17.762  0.00  0.00    +0.000 C 
BRANCH  17  22
ATOM     19  C   UNL     1       9.501  11.984  19.284  0.00  0.00    +0.000 A 
ATOM     20  C   UNL     1       9.653  10.772  19.972  0.00  0.00    +0.000 A 
ATOM     21  C   UNL     1       9.193   9.572  19.426  0.00  0.00    +0.000 A 
ATOM     22  C   UNL     1       8.508   9.558  18.208  0.00  0.00    +0.000 A 
ATOM     23  C   UNL     1       8.294  10.782  17.563  0.00  0.00    +0.000 A 
ATOM     24  C   UNL     1       8.775  11.995  18.085  0.00  0.00    +0.000 A 
BRANCH  19  26
ATOM     25  C   UNL     1      11.337  13.478  19.350  0.00  0.00    +0.000 C 
ATOM     26  O   UNL     1      10.019  13.145  19.787  0.00  0.00    +0.000 OA
ENDBRANCH  19  26
BRANCH  24  27
ATOM     27  O   UNL     1       8.447  13.057  17.286  0.00  0.00    +0.000 OA
ATOM     28  C   UNL     1       7.278  13.805  17.578  0.00  0.00    +0.000 C 
ENDBRANCH  24  27
ENDBRANCH  17  22
ENDBRANCH   1  18
TORSDOF 9
ENDMDL
