MODEL 1
REMARK VINA RESULT:      -6.9      0.000      0.000
REMARK  Name = 
REMARK  4 active torsions:
REMARK  status: ('A' for Active; 'I' for Inactive)
REMARK    1  A    between atoms: C_1  and  C_2
REMARK    2  A    between atoms: C_11  and  O_12
REMARK    3  A    between atoms: C_15  and  C_16
REMARK    4  A    between atoms: C_20  and  N_21
REMARK                            x       y       z     vdW  Elec       q    Type
REMARK                         _______ _______ _______ _____ _____    ______ ____
ROOT
ATOM      1  C   UNL     1       8.926  12.724  24.202  0.00  0.00    +0.000 C 
ATOM      2  C   UNL     1       8.148  14.049  23.946  0.00  0.00    +0.000 C 
ATOM      3  C   UNL     1       7.087  13.906  22.837  0.00  0.00    +0.000 C 
ATOM      4  C   UNL     1       7.695  13.252  21.594  0.00  0.00    +0.000 C 
ATOM      5  C   UNL     1       8.930  14.011  21.082  0.00  0.00    +0.000 C 
ATOM      6  C   UNL     1       9.779  14.794  22.164  0.00  0.00    +0.000 C 
ATOM      7  C   UNL     1      10.352  15.993  21.398  0.00  0.00    +0.000 C 
ATOM      8  C   UNL     1      11.199  15.451  20.282  0.00  0.00    +0.000 C 
ATOM      9  C   UNL     1      11.095  14.193  19.790  0.00  0.00    +0.000 C 
ATOM     10  C   UNL     1      12.080  13.738  18.748  0.00  0.00    +0.000 C 
ATOM     11  C   UNL     1      11.379  13.215  17.496  0.00  0.00    +0.000 C 
ATOM     12  C   UNL     1      10.342  12.152  17.853  0.00  0.00    +0.000 C 
ATOM     13  C   UNL     1       9.296  12.730  18.832  0.00  0.00    +0.000 C 
ATOM     14  C   UNL     1       9.946  13.209  20.164  0.00  0.00    +0.000 C 
ATOM     15  C   UNL     1      10.424  11.909  20.892  0.00  0.00    +0.000 C 
ATOM     16  C   UNL     1       9.059  15.191  23.453  0.00  0.00    +0.000 C 
ATOM     17  C   UNL     1       9.891  15.534  24.704  0.00  0.00    +0.000 C 
ATOM     18  C   UNL     1       8.835  15.328  25.773  0.00  0.00    +0.000 C 
ATOM     19  C   UNL     1       7.792  14.595  25.320  0.00  0.00    +0.000 C 
ENDROOT
BRANCH  19  20
ATOM     20  N   UNL     1       6.586  14.223  25.948  0.00  0.00    +0.000 N 
ATOM     21  N   UNL     1       5.538  15.090  26.119  0.00  0.00    +0.000 NA
ATOM     22  N   UNL     1       4.571  14.522  26.817  0.00  0.00    +0.000 NA
ATOM     23  C   UNL     1       4.953  13.255  27.074  0.00  0.00    +0.000 A 
ATOM     24  C   UNL     1       4.252  12.250  27.754  0.00  0.00    +0.000 A 
ATOM     25  C   UNL     1       4.844  10.993  27.877  0.00  0.00    +0.000 A 
ATOM     26  C   UNL     1       6.111  10.752  27.353  0.00  0.00    +0.000 A 
ATOM     27  C   UNL     1       6.829  11.758  26.684  0.00  0.00    +0.000 A 
ATOM     28  C   UNL     1       6.216  13.000  26.539  0.00  0.00    +0.000 A 
ENDBRANCH  19  20
BRANCH  11  29
ATOM     29  O   UNL     1      12.333  12.679  16.585  0.00  0.00    +0.000 OA
ATOM     30  H   UNL     1      13.183  13.123  16.744  0.00  0.00    +0.000 HD
ENDBRANCH  11  29
TORSDOF 2
ENDMDL
MODEL 2
REMARK VINA RESULT:      -6.9      2.050      3.514
REMARK  Name = 
REMARK  4 active torsions:
REMARK  status: ('A' for Active; 'I' for Inactive)
REMARK    1  A    between atoms: C_1  and  C_2
REMARK    2  A    between atoms: C_11  and  O_12
REMARK    3  A    between atoms: C_15  and  C_16
REMARK    4  A    between atoms: C_20  and  N_21
REMARK                            x       y       z     vdW  Elec       q    Type
REMARK                         _______ _______ _______ _____ _____    ______ ____
ROOT
ATOM      1  C   UNL     1       7.049  14.757  22.020  0.00  0.00    +0.000 C 
ATOM      2  C   UNL     1       8.046  14.178  23.067  0.00  0.00    +0.000 C 
ATOM      3  C   UNL     1       9.349  14.997  23.156  0.00  0.00    +0.000 C 
ATOM      4  C   UNL     1       9.930  15.235  21.760  0.00  0.00    +0.000 C 
ATOM      5  C   UNL     1      10.153  13.923  20.991  0.00  0.00    +0.000 C 
ATOM      6  C   UNL     1       9.186  12.721  21.344  0.00  0.00    +0.000 C 
ATOM      7  C   UNL     1      10.042  11.469  21.115  0.00  0.00    +0.000 C 
ATOM      8  C   UNL     1      10.461  11.467  19.674  0.00  0.00    +0.000 C 
ATOM      9  C   UNL     1      10.467  12.567  18.882  0.00  0.00    +0.000 C 
ATOM     10  C   UNL     1      10.801  12.408  17.423  0.00  0.00    +0.000 C 
ATOM     11  C   UNL     1      11.949  13.324  17.003  0.00  0.00    +0.000 C 
ATOM     12  C   UNL     1      11.670  14.770  17.406  0.00  0.00    +0.000 C 
ATOM     13  C   UNL     1      11.457  14.870  18.932  0.00  0.00    +0.000 C 
ATOM     14  C   UNL     1      10.246  14.015  19.410  0.00  0.00    +0.000 C 
ATOM     15  C   UNL     1       8.976  14.723  18.833  0.00  0.00    +0.000 C 
ATOM     16  C   UNL     1       8.518  12.752  22.719  0.00  0.00    +0.000 C 
ATOM     17  C   UNL     1       7.256  11.902  22.961  0.00  0.00    +0.000 C 
ATOM     18  C   UNL     1       6.688  12.630  24.165  0.00  0.00    +0.000 C 
ATOM     19  C   UNL     1       7.218  13.867  24.303  0.00  0.00    +0.000 C 
ENDROOT
BRANCH  19  20
ATOM     20  N   UNL     1       7.023  14.846  25.300  0.00  0.00    +0.000 N 
ATOM     21  N   UNL     1       7.848  14.973  26.389  0.00  0.00    +0.000 NA
ATOM     22  N   UNL     1       7.392  15.898  27.213  0.00  0.00    +0.000 NA
ATOM     23  C   UNL     1       6.285  16.425  26.653  0.00  0.00    +0.000 A 
ATOM     24  C   UNL     1       5.469  17.459  27.132  0.00  0.00    +0.000 A 
ATOM     25  C   UNL     1       4.378  17.858  26.360  0.00  0.00    +0.000 A 
ATOM     26  C   UNL     1       4.097  17.226  25.150  0.00  0.00    +0.000 A 
ATOM     27  C   UNL     1       4.901  16.177  24.669  0.00  0.00    +0.000 A 
ATOM     28  C   UNL     1       6.005  15.808  25.434  0.00  0.00    +0.000 A 
ENDBRANCH  19  20
BRANCH  11  29
ATOM     29  O   UNL     1      12.155  13.240  15.597  0.00  0.00    +0.000 OA
ATOM     30  H   UNL     1      11.912  12.343  15.309  0.00  0.00    +0.000 HD
ENDBRANCH  11  29
TORSDOF 2
ENDMDL
MODEL 3
REMARK VINA RESULT:      -6.8      9.382     11.748
REMARK  Name = 
REMARK  4 active torsions:
REMARK  status: ('A' for Active; 'I' for Inactive)
REMARK    1  A    between atoms: C_1  and  C_2
REMARK    2  A    between atoms: C_11  and  O_12
REMARK    3  A    between atoms: C_15  and  C_16
REMARK    4  A    between atoms: C_20  and  N_21
REMARK                            x       y       z     vdW  Elec       q    Type
REMARK                         _______ _______ _______ _____ _____    ______ ____
ROOT
ATOM      1  C   UNL     1      -0.945  10.030  19.707  0.00  0.00    +0.000 C 
ATOM      2  C   UNL     1       0.445  10.220  20.384  0.00  0.00    +0.000 C 
ATOM      3  C   UNL     1       0.403   9.967  21.903  0.00  0.00    +0.000 C 
ATOM      4  C   UNL     1      -0.749  10.744  22.545  0.00  0.00    +0.000 C 
ATOM      5  C   UNL     1      -0.678  12.249  22.237  0.00  0.00    +0.000 C 
ATOM      6  C   UNL     1       0.003  12.661  20.869  0.00  0.00    +0.000 C 
ATOM      7  C   UNL     1       0.638  14.026  21.161  0.00  0.00    +0.000 C 
ATOM      8  C   UNL     1      -0.468  14.962  21.559  0.00  0.00    +0.000 C 
ATOM      9  C   UNL     1      -1.681  14.557  22.009  0.00  0.00    +0.000 C 
ATOM     10  C   UNL     1      -2.741  15.594  22.267  0.00  0.00    +0.000 C 
ATOM     11  C   UNL     1      -3.292  15.496  23.688  0.00  0.00    +0.000 C 
ATOM     12  C   UNL     1      -3.749  14.073  24.001  0.00  0.00    +0.000 C 
ATOM     13  C   UNL     1      -2.576  13.084  23.830  0.00  0.00    +0.000 C 
ATOM     14  C   UNL     1      -2.021  13.082  22.375  0.00  0.00    +0.000 C 
ATOM     15  C   UNL     1      -3.147  12.444  21.494  0.00  0.00    +0.000 C 
ATOM     16  C   UNL     1       0.981  11.660  20.255  0.00  0.00    +0.000 C 
ATOM     17  C   UNL     1       1.326  11.768  18.757  0.00  0.00    +0.000 C 
ATOM     18  C   UNL     1       1.833  10.360  18.512  0.00  0.00    +0.000 C 
ATOM     19  C   UNL     1       1.445   9.506  19.487  0.00  0.00    +0.000 C 
ENDROOT
BRANCH  19  20
ATOM     20  N   UNL     1       1.738   8.141  19.687  0.00  0.00    +0.000 N 
ATOM     21  N   UNL     1       1.260   7.426  20.755  0.00  0.00    +0.000 NA
ATOM     22  N   UNL     1       1.758   6.203  20.758  0.00  0.00    +0.000 NA
ATOM     23  C   UNL     1       2.535   6.083  19.664  0.00  0.00    +0.000 A 
ATOM     24  C   UNL     1       3.250   4.964  19.216  0.00  0.00    +0.000 A 
ATOM     25  C   UNL     1       3.974   5.068  18.028  0.00  0.00    +0.000 A 
ATOM     26  C   UNL     1       4.000   6.265  17.317  0.00  0.00    +0.000 A 
ATOM     27  C   UNL     1       3.299   7.398  17.767  0.00  0.00    +0.000 A 
ATOM     28  C   UNL     1       2.555   7.274  18.937  0.00  0.00    +0.000 A 
ENDBRANCH  19  20
BRANCH  11  29
ATOM     29  O   UNL     1      -4.375  16.405  23.858  0.00  0.00    +0.000 OA
ATOM     30  H   UNL     1      -4.943  16.349  23.070  0.00  0.00    +0.000 HD
ENDBRANCH  11  29
TORSDOF 2
ENDMDL
MODEL 4
REMARK VINA RESULT:      -6.7      2.009      3.315
REMARK  Name = 
REMARK  4 active torsions:
REMARK  status: ('A' for Active; 'I' for Inactive)
REMARK    1  A    between atoms: C_1  and  C_2
REMARK    2  A    between atoms: C_11  and  O_12
REMARK    3  A    between atoms: C_15  and  C_16
REMARK    4  A    between atoms: C_20  and  N_21
REMARK                            x       y       z     vdW  Elec       q    Type
REMARK                         _______ _______ _______ _____ _____    ______ ____
ROOT
ATOM      1  C   UNL     1       6.274  14.194  21.655  0.00  0.00    +0.000 C 
ATOM      2  C   UNL     1       7.329  14.125  22.799  0.00  0.00    +0.000 C 
ATOM      3  C   UNL     1       8.320  15.304  22.761  0.00  0.00    +0.000 C 
ATOM      4  C   UNL     1       8.892  15.479  21.352  0.00  0.00    +0.000 C 
ATOM      5  C   UNL     1       9.546  14.191  20.826  0.00  0.00    +0.000 C 
ATOM      6  C   UNL     1       8.960  12.825  21.371  0.00  0.00    +0.000 C 
ATOM      7  C   UNL     1      10.163  11.874  21.374  0.00  0.00    +0.000 C 
ATOM      8  C   UNL     1      10.657  11.766  19.960  0.00  0.00    +0.000 C 
ATOM      9  C   UNL     1      10.386  12.672  18.989  0.00  0.00    +0.000 C 
ATOM     10  C   UNL     1      10.846  12.388  17.585  0.00  0.00    +0.000 C 
ATOM     11  C   UNL     1      11.693  13.529  17.026  0.00  0.00    +0.000 C 
ATOM     12  C   UNL     1      10.970  14.867  17.167  0.00  0.00    +0.000 C 
ATOM     13  C   UNL     1      10.639  15.144  18.650  0.00  0.00    +0.000 C 
ATOM     14  C   UNL     1       9.709  14.049  19.254  0.00  0.00    +0.000 C 
ATOM     15  C   UNL     1       8.326  14.233  18.547  0.00  0.00    +0.000 C 
ATOM     16  C   UNL     1       8.226  12.874  22.710  0.00  0.00    +0.000 C 
ATOM     17  C   UNL     1       7.261  11.730  23.081  0.00  0.00    +0.000 C 
ATOM     18  C   UNL     1       6.426  12.435  24.133  0.00  0.00    +0.000 C 
ATOM     19  C   UNL     1       6.552  13.780  24.061  0.00  0.00    +0.000 C 
ENDROOT
BRANCH  19  20
ATOM     20  N   UNL     1       6.011  14.801  24.869  0.00  0.00    +0.000 N 
ATOM     21  N   UNL     1       4.709  15.220  24.766  0.00  0.00    +0.000 NA
ATOM     22  N   UNL     1       4.485  16.247  25.565  0.00  0.00    +0.000 NA
ATOM     23  C   UNL     1       5.627  16.488  26.239  0.00  0.00    +0.000 A 
ATOM     24  C   UNL     1       5.875  17.455  27.222  0.00  0.00    +0.000 A 
ATOM     25  C   UNL     1       7.142  17.502  27.805  0.00  0.00    +0.000 A 
ATOM     26  C   UNL     1       8.140  16.619  27.400  0.00  0.00    +0.000 A 
ATOM     27  C   UNL     1       7.905  15.656  26.403  0.00  0.00    +0.000 A 
ATOM     28  C   UNL     1       6.628  15.598  25.851  0.00  0.00    +0.000 A 
ENDBRANCH  19  20
BRANCH  11  29
ATOM     29  O   UNL     1      12.006  13.286  15.659  0.00  0.00    +0.000 OA
ATOM     30  H   UNL     1      12.294  14.125  15.261  0.00  0.00    +0.000 HD
ENDBRANCH  11  29
TORSDOF 2
ENDMDL
MODEL 5
REMARK VINA RESULT:      -6.7      9.728     12.666
REMARK  Name = 
REMARK  4 active torsions:
REMARK  status: ('A' for Active; 'I' for Inactive)
REMARK    1  A    between atoms: C_1  and  C_2
REMARK    2  A    between atoms: C_11  and  O_12
REMARK    3  A    between atoms: C_15  and  C_16
REMARK    4  A    between atoms: C_20  and  N_21
REMARK                            x       y       z     vdW  Elec       q    Type
REMARK                         _______ _______ _______ _____ _____    ______ ____
ROOT
ATOM      1  C   UNL     1      -1.851  12.226  20.219  0.00  0.00    +0.000 C 
ATOM      2  C   UNL     1      -0.927  12.314  21.470  0.00  0.00    +0.000 C 
ATOM      3  C   UNL     1      -1.572  11.696  22.725  0.00  0.00    +0.000 C 
ATOM      4  C   UNL     1      -2.991  12.236  22.921  0.00  0.00    +0.000 C 
ATOM      5  C   UNL     1      -3.027  13.771  22.980  0.00  0.00    +0.000 C 
ATOM      6  C   UNL     1      -1.901  14.538  22.174  0.00  0.00    +0.000 C 
ATOM      7  C   UNL     1      -1.667  15.821  22.982  0.00  0.00    +0.000 C 
ATOM      8  C   UNL     1      -2.965  16.575  23.017  0.00  0.00    +0.000 C 
ATOM      9  C   UNL     1      -4.177  16.013  22.784  0.00  0.00    +0.000 C 
ATOM     10  C   UNL     1      -5.391  16.902  22.738  0.00  0.00    +0.000 C 
ATOM     11  C   UNL     1      -6.472  16.434  23.709  0.00  0.00    +0.000 C 
ATOM     12  C   UNL     1      -6.795  14.956  23.497  0.00  0.00    +0.000 C 
ATOM     13  C   UNL     1      -5.525  14.098  23.681  0.00  0.00    +0.000 C 
ATOM     14  C   UNL     1      -4.411  14.478  22.661  0.00  0.00    +0.000 C 
ATOM     15  C   UNL     1      -4.944  14.020  21.263  0.00  0.00    +0.000 C 
ATOM     16  C   UNL     1      -0.614  13.767  21.881  0.00  0.00    +0.000 C 
ATOM     17  C   UNL     1       0.314  14.254  20.751  0.00  0.00    +0.000 C 
ATOM     18  C   UNL     1       1.085  12.975  20.489  0.00  0.00    +0.000 C 
ATOM     19  C   UNL     1       0.455  11.891  20.997  0.00  0.00    +0.000 C 
ENDROOT
BRANCH  19  20
ATOM     20  N   UNL     1       0.840  10.535  21.034  0.00  0.00    +0.000 N 
ATOM     21  N   UNL     1       0.918   9.815  22.199  0.00  0.00    +0.000 NA
ATOM     22  N   UNL     1       1.392   8.604  21.969  0.00  0.00    +0.000 NA
ATOM     23  C   UNL     1       1.589   8.497  20.640  0.00  0.00    +0.000 A 
ATOM     24  C   UNL     1       2.048   7.392  19.910  0.00  0.00    +0.000 A 
ATOM     25  C   UNL     1       2.150   7.506  18.523  0.00  0.00    +0.000 A 
ATOM     26  C   UNL     1       1.820   8.699  17.885  0.00  0.00    +0.000 A 
ATOM     27  C   UNL     1       1.374   9.818  18.610  0.00  0.00    +0.000 A 
ATOM     28  C   UNL     1       1.247   9.683  19.990  0.00  0.00    +0.000 A 
ENDBRANCH  19  20
BRANCH  11  29
ATOM     29  O   UNL     1      -7.649  17.219  23.550  0.00  0.00    +0.000 OA
ATOM     30  H   UNL     1      -8.115  16.906  22.756  0.00  0.00    +0.000 HD
ENDBRANCH  11  29
TORSDOF 2
ENDMDL
MODEL 6
REMARK VINA RESULT:      -6.6     10.697     12.696
REMARK  Name = 
REMARK  4 active torsions:
REMARK  status: ('A' for Active; 'I' for Inactive)
REMARK    1  A    between atoms: C_1  and  C_2
REMARK    2  A    between atoms: C_11  and  O_12
REMARK    3  A    between atoms: C_15  and  C_16
REMARK    4  A    between atoms: C_20  and  N_21
REMARK                            x       y       z     vdW  Elec       q    Type
REMARK                         _______ _______ _______ _____ _____    ______ ____
ROOT
ATOM      1  C   UNL     1      -3.975  12.697  19.870  0.00  0.00    +0.000 C 
ATOM      2  C   UNL     1      -3.262  13.665  20.861  0.00  0.00    +0.000 C 
ATOM      3  C   UNL     1      -1.933  14.209  20.303  0.00  0.00    +0.000 C 
ATOM      4  C   UNL     1      -1.068  13.066  19.767  0.00  0.00    +0.000 C 
ATOM      5  C   UNL     1      -0.818  11.979  20.826  0.00  0.00    +0.000 C 
ATOM      6  C   UNL     1      -1.943  11.787  21.923  0.00  0.00    +0.000 C 
ATOM      7  C   UNL     1      -1.178  11.329  23.170  0.00  0.00    +0.000 C 
ATOM      8  C   UNL     1      -0.483  10.043  22.826  0.00  0.00    +0.000 C 
ATOM      9  C   UNL     1      -0.219   9.637  21.561  0.00  0.00    +0.000 C 
ATOM     10  C   UNL     1       0.381   8.273  21.348  0.00  0.00    +0.000 C 
ATOM     11  C   UNL     1       1.669   8.345  20.529  0.00  0.00    +0.000 C 
ATOM     12  C   UNL     1       1.450   9.119  19.231  0.00  0.00    +0.000 C 
ATOM     13  C   UNL     1       0.949  10.547  19.536  0.00  0.00    +0.000 C 
ATOM     14  C   UNL     1      -0.406  10.539  20.305  0.00  0.00    +0.000 C 
ATOM     15  C   UNL     1      -1.467  10.008  19.284  0.00  0.00    +0.000 C 
ATOM     16  C   UNL     1      -2.864  12.979  22.184  0.00  0.00    +0.000 C 
ATOM     17  C   UNL     1      -4.222  12.743  22.873  0.00  0.00    +0.000 C 
ATOM     18  C   UNL     1      -4.947  14.003  22.440  0.00  0.00    +0.000 C 
ATOM     19  C   UNL     1      -4.345  14.596  21.385  0.00  0.00    +0.000 C 
ENDROOT
BRANCH  19  20
ATOM     20  N   UNL     1      -4.641  15.799  20.710  0.00  0.00    +0.000 N 
ATOM     21  N   UNL     1      -4.030  16.989  21.009  0.00  0.00    +0.000 NA
ATOM     22  N   UNL     1      -4.555  17.973  20.301  0.00  0.00    +0.000 NA
ATOM     23  C   UNL     1      -5.489  17.433  19.493  0.00  0.00    +0.000 A 
ATOM     24  C   UNL     1      -6.292  18.069  18.537  0.00  0.00    +0.000 A 
ATOM     25  C   UNL     1      -7.181  17.293  17.793  0.00  0.00    +0.000 A 
ATOM     26  C   UNL     1      -7.279  15.921  18.013  0.00  0.00    +0.000 A 
ATOM     27  C   UNL     1      -6.489  15.277  18.982  0.00  0.00    +0.000 A 
ATOM     28  C   UNL     1      -5.584  16.056  19.697  0.00  0.00    +0.000 A 
ENDBRANCH  19  20
BRANCH  11  29
ATOM     29  O   UNL     1       2.141   7.032  20.241  0.00  0.00    +0.000 OA
ATOM     30  H   UNL     1       1.534   6.627  19.599  0.00  0.00    +0.000 HD
ENDBRANCH  11  29
TORSDOF 2
ENDMDL
MODEL 7
REMARK VINA RESULT:      -6.6      9.370     12.103
REMARK  Name = 
REMARK  4 active torsions:
REMARK  status: ('A' for Active; 'I' for Inactive)
REMARK    1  A    between atoms: C_1  and  C_2
REMARK    2  A    between atoms: C_11  and  O_12
REMARK    3  A    between atoms: C_15  and  C_16
REMARK    4  A    between atoms: C_20  and  N_21
REMARK                            x       y       z     vdW  Elec       q    Type
REMARK                         _______ _______ _______ _____ _____    ______ ____
ROOT
ATOM      1  C   UNL     1       1.087  12.156  21.234  0.00  0.00    +0.000 C 
ATOM      2  C   UNL     1      -0.004  11.099  20.887  0.00  0.00    +0.000 C 
ATOM      3  C   UNL     1      -0.895  11.536  19.708  0.00  0.00    +0.000 C 
ATOM      4  C   UNL     1      -1.409  12.961  19.923  0.00  0.00    +0.000 C 
ATOM      5  C   UNL     1      -2.148  13.118  21.261  0.00  0.00    +0.000 C 
ATOM      6  C   UNL     1      -1.691  12.165  22.439  0.00  0.00    +0.000 C 
ATOM      7  C   UNL     1      -2.967  11.944  23.262  0.00  0.00    +0.000 C 
ATOM      8  C   UNL     1      -3.425  13.287  23.752  0.00  0.00    +0.000 C 
ATOM      9  C   UNL     1      -3.053  14.466  23.198  0.00  0.00    +0.000 C 
ATOM     10  C   UNL     1      -3.492  15.747  23.855  0.00  0.00    +0.000 C 
ATOM     11  C   UNL     1      -4.227  16.661  22.877  0.00  0.00    +0.000 C 
ATOM     12  C   UNL     1      -3.403  16.883  21.611  0.00  0.00    +0.000 C 
ATOM     13  C   UNL     1      -3.095  15.532  20.928  0.00  0.00    +0.000 C 
ATOM     14  C   UNL     1      -2.276  14.584  21.853  0.00  0.00    +0.000 C 
ATOM     15  C   UNL     1      -0.861  15.240  21.983  0.00  0.00    +0.000 C 
ATOM     16  C   UNL     1      -0.996  10.862  22.043  0.00  0.00    +0.000 C 
ATOM     17  C   UNL     1      -0.138  10.120  23.087  0.00  0.00    +0.000 C 
ATOM     18  C   UNL     1       0.719   9.281  22.159  0.00  0.00    +0.000 C 
ATOM     19  C   UNL     1       0.704   9.753  20.892  0.00  0.00    +0.000 C 
ENDROOT
BRANCH  19  20
ATOM     20  N   UNL     1       1.302   9.255  19.716  0.00  0.00    +0.000 N 
ATOM     21  N   UNL     1       1.345   9.967  18.544  0.00  0.00    +0.000 NA
ATOM     22  N   UNL     1       1.871   9.239  17.575  0.00  0.00    +0.000 NA
ATOM     23  C   UNL     1       2.223   8.053  18.110  0.00  0.00    +0.000 A 
ATOM     24  C   UNL     1       2.847   6.963  17.488  0.00  0.00    +0.000 A 
ATOM     25  C   UNL     1       3.140   5.837  18.257  0.00  0.00    +0.000 A 
ATOM     26  C   UNL     1       2.799   5.792  19.607  0.00  0.00    +0.000 A 
ATOM     27  C   UNL     1       2.158   6.874  20.236  0.00  0.00    +0.000 A 
ATOM     28  C   UNL     1       1.899   8.005  19.466  0.00  0.00    +0.000 A 
ENDBRANCH  19  20
BRANCH  11  29
ATOM     29  O   UNL     1      -4.518  17.910  23.496  0.00  0.00    +0.000 OA
ATOM     30  H   UNL     1      -3.871  18.562  23.176  0.00  0.00    +0.000 HD
ENDBRANCH  11  29
TORSDOF 2
ENDMDL
MODEL 8
REMARK VINA RESULT:      -6.5      5.231      6.551
REMARK  Name = 
REMARK  4 active torsions:
REMARK  status: ('A' for Active; 'I' for Inactive)
REMARK    1  A    between atoms: C_1  and  C_2
REMARK    2  A    between atoms: C_11  and  O_12
REMARK    3  A    between atoms: C_15  and  C_16
REMARK    4  A    between atoms: C_20  and  N_21
REMARK                            x       y       z     vdW  Elec       q    Type
REMARK                         _______ _______ _______ _____ _____    ______ ____
ROOT
ATOM      1  C   UNL     1       5.427  15.356  21.101  0.00  0.00    +0.000 C 
ATOM      2  C   UNL     1       5.005  16.207  19.866  0.00  0.00    +0.000 C 
ATOM      3  C   UNL     1       4.684  15.339  18.633  0.00  0.00    +0.000 C 
ATOM      4  C   UNL     1       5.806  14.330  18.380  0.00  0.00    +0.000 C 
ATOM      5  C   UNL     1       7.178  15.009  18.236  0.00  0.00    +0.000 C 
ATOM      6  C   UNL     1       7.382  16.368  19.021  0.00  0.00    +0.000 C 
ATOM      7  C   UNL     1       8.361  17.163  18.149  0.00  0.00    +0.000 C 
ATOM      8  C   UNL     1       9.627  16.362  18.047  0.00  0.00    +0.000 C 
ATOM      9  C   UNL     1       9.704  15.030  18.285  0.00  0.00    +0.000 C 
ATOM     10  C   UNL     1      11.055  14.366  18.259  0.00  0.00    +0.000 C 
ATOM     11  C   UNL     1      11.085  13.184  17.293  0.00  0.00    +0.000 C 
ATOM     12  C   UNL     1       9.940  12.214  17.579  0.00  0.00    +0.000 C 
ATOM     13  C   UNL     1       8.582  12.941  17.468  0.00  0.00    +0.000 C 
ATOM     14  C   UNL     1       8.462  14.112  18.488  0.00  0.00    +0.000 C 
ATOM     15  C   UNL     1       8.384  13.439  19.898  0.00  0.00    +0.000 C 
ATOM     16  C   UNL     1       6.121  17.154  19.381  0.00  0.00    +0.000 C 
ATOM     17  C   UNL     1       6.188  18.210  20.501  0.00  0.00    +0.000 C 
ATOM     18  C   UNL     1       4.714  18.304  20.849  0.00  0.00    +0.000 C 
ATOM     19  C   UNL     1       4.018  17.239  20.389  0.00  0.00    +0.000 C 
ENDROOT
BRANCH  19  20
ATOM     20  N   UNL     1       2.638  16.952  20.434  0.00  0.00    +0.000 N 
ATOM     21  N   UNL     1       2.050  16.287  21.480  0.00  0.00    +0.000 NA
ATOM     22  N   UNL     1       0.773  16.062  21.230  0.00  0.00    +0.000 NA
ATOM     23  C   UNL     1       0.493  16.619  20.035  0.00  0.00    +0.000 A 
ATOM     24  C   UNL     1      -0.734  16.672  19.360  0.00  0.00    +0.000 A 
ATOM     25  C   UNL     1      -0.790  17.331  18.132  0.00  0.00    +0.000 A 
ATOM     26  C   UNL     1       0.355  17.903  17.582  0.00  0.00    +0.000 A 
ATOM     27  C   UNL     1       1.594  17.841  18.245  0.00  0.00    +0.000 A 
ATOM     28  C   UNL     1       1.631  17.208  19.484  0.00  0.00    +0.000 A 
ENDBRANCH  19  20
BRANCH  11  29
ATOM     29  O   UNL     1      12.333  12.505  17.385  0.00  0.00    +0.000 OA
ATOM     30  H   UNL     1      13.004  13.044  16.932  0.00  0.00    +0.000 HD
ENDBRANCH  11  29
TORSDOF 2
ENDMDL
MODEL 9
REMARK VINA RESULT:      -6.5      8.494     10.202
REMARK  Name = 
REMARK  4 active torsions:
REMARK  status: ('A' for Active; 'I' for Inactive)
REMARK    1  A    between atoms: C_1  and  C_2
REMARK    2  A    between atoms: C_11  and  O_12
REMARK    3  A    between atoms: C_15  and  C_16
REMARK    4  A    between atoms: C_20  and  N_21
REMARK                            x       y       z     vdW  Elec       q    Type
REMARK                         _______ _______ _______ _____ _____    ______ ____
ROOT
ATOM      1  C   UNL     1      -1.816  14.981  20.523  0.00  0.00    +0.000 C 
ATOM      2  C   UNL     1      -1.330  13.610  21.080  0.00  0.00    +0.000 C 
ATOM      3  C   UNL     1      -0.450  13.761  22.336  0.00  0.00    +0.000 C 
ATOM      4  C   UNL     1       0.650  14.799  22.098  0.00  0.00    +0.000 C 
ATOM      5  C   UNL     1       1.503  14.470  20.862  0.00  0.00    +0.000 C 
ATOM      6  C   UNL     1       0.787  13.670  19.699  0.00  0.00    +0.000 C 
ATOM      7  C   UNL     1       1.908  12.836  19.069  0.00  0.00    +0.000 C 
ATOM      8  C   UNL     1       2.948  13.791  18.556  0.00  0.00    +0.000 C 
ATOM      9  C   UNL     1       3.076  15.073  18.978  0.00  0.00    +0.000 C 
ATOM     10  C   UNL     1       4.087  15.960  18.302  0.00  0.00    +0.000 C 
ATOM     11  C   UNL     1       5.053  16.584  19.307  0.00  0.00    +0.000 C 
ATOM     12  C   UNL     1       4.295  17.280  20.436  0.00  0.00    +0.000 C 
ATOM     13  C   UNL     1       3.370  16.277  21.159  0.00  0.00    +0.000 C 
ATOM     14  C   UNL     1       2.308  15.664  20.197  0.00  0.00    +0.000 C 
ATOM     15  C   UNL     1       1.338  16.838  19.837  0.00  0.00    +0.000 C 
ATOM     16  C   UNL     1      -0.439  12.841  20.083  0.00  0.00    +0.000 C 
ATOM     17  C   UNL     1      -1.434  12.417  18.986  0.00  0.00    +0.000 C 
ATOM     18  C   UNL     1      -2.652  12.135  19.845  0.00  0.00    +0.000 C 
ATOM     19  C   UNL     1      -2.549  12.700  21.070  0.00  0.00    +0.000 C 
ENDROOT
BRANCH  19  20
ATOM     20  N   UNL     1      -3.409  12.643  22.186  0.00  0.00    +0.000 N 
ATOM     21  N   UNL     1      -3.094  11.958  23.332  0.00  0.00    +0.000 NA
ATOM     22  N   UNL     1      -4.105  11.983  24.182  0.00  0.00    +0.000 NA
ATOM     23  C   UNL     1      -5.082  12.724  23.623  0.00  0.00    +0.000 A 
ATOM     24  C   UNL     1      -6.333  13.065  24.152  0.00  0.00    +0.000 A 
ATOM     25  C   UNL     1      -7.179  13.874  23.393  0.00  0.00    +0.000 A 
ATOM     26  C   UNL     1      -6.793  14.313  22.129  0.00  0.00    +0.000 A 
ATOM     27  C   UNL     1      -5.546  13.962  21.582  0.00  0.00    +0.000 A 
ATOM     28  C   UNL     1      -4.697  13.181  22.362  0.00  0.00    +0.000 A 
ENDBRANCH  19  20
BRANCH  11  29
ATOM     29  O   UNL     1       5.913  17.511  18.652  0.00  0.00    +0.000 OA
ATOM     30  H   UNL     1       5.731  18.396  19.011  0.00  0.00    +0.000 HD
ENDBRANCH  11  29
TORSDOF 2
ENDMDL
