MODEL 1
REMARK VINA RESULT:      -8.0      0.000      0.000
REMARK  Name = 
REMARK  6 active torsions:
REMARK  status: ('A' for Active; 'I' for Inactive)
REMARK    1  A    between atoms: C_1  and  C_2
REMARK    2  A    between atoms: C_11  and  O_12
REMARK    3  A    between atoms: C_15  and  C_16
REMARK    4  A    between atoms: C_20  and  C_21
REMARK    5  A    between atoms: C_21  and  C_23
REMARK    6  A    between atoms: C_24  and  C_25
REMARK                            x       y       z     vdW  Elec       q    Type
REMARK                         _______ _______ _______ _____ _____    ______ ____
ROOT
ATOM      1  C   UNL     1       0.007   8.929  18.315  0.00  0.00    +0.000 C 
ATOM      2  C   UNL     1       1.330   9.201  19.076  0.00  0.00    +0.000 C 
ATOM      3  C   UNL     1       2.539   8.971  18.152  0.00  0.00    +0.000 C 
ATOM      4  C   UNL     1       2.665   7.496  17.730  0.00  0.00    +0.000 C 
ATOM      5  C   UNL     1       2.645   6.484  18.906  0.00  0.00    +0.000 C 
ATOM      6  C   UNL     1       1.520   6.785  19.935  0.00  0.00    +0.000 C 
ATOM      7  C   UNL     1       1.699   5.910  21.183  0.00  0.00    +0.000 C 
ATOM      8  C   UNL     1       2.011   4.482  20.863  0.00  0.00    +0.000 C 
ATOM      9  C   UNL     1       2.397   4.037  19.653  0.00  0.00    +0.000 C 
ATOM     10  C   UNL     1       2.645   2.562  19.426  0.00  0.00    +0.000 C 
ATOM     11  C   UNL     1       4.000   2.294  18.766  0.00  0.00    +0.000 C 
ATOM     12  C   UNL     1       4.193   3.142  17.513  0.00  0.00    +0.000 C 
ATOM     13  C   UNL     1       3.998   4.628  17.813  0.00  0.00    +0.000 C 
ATOM     14  C   UNL     1       2.620   4.970  18.452  0.00  0.00    +0.000 C 
ATOM     15  C   UNL     1       1.490   4.711  17.426  0.00  0.00    +0.000 C 
ATOM     16  C   UNL     1       1.545   8.275  20.296  0.00  0.00    +0.000 C 
ATOM     17  C   UNL     1       0.548   8.774  21.328  0.00  0.00    +0.000 C 
ATOM     18  C   UNL     1       0.506  10.291  21.100  0.00  0.00    +0.000 C 
ATOM     19  C   UNL     1       1.272  10.584  19.782  0.00  0.00    +0.000 C 
ENDROOT
BRANCH  11  20
ATOM     20  O   UNL     1       4.111   0.914  18.423  0.00  0.00    +0.000 OA
ATOM     21  H   UNL     1       3.435   0.426  18.924  0.00  0.00    +0.000 HD
ENDBRANCH  11  20
BRANCH  19  22
ATOM     22  C   UNL     1       0.625  11.731  18.997  0.00  0.00    +0.000 C 
ATOM     23  O   UNL     1       1.267  12.457  18.231  0.00  0.00    +0.000 OA
BRANCH  22  24
ATOM     24  C   UNL     1      -0.829  11.960  19.190  0.00  0.00    +0.000 C 
ATOM     25  C   UNL     1      -1.731  11.531  18.284  0.00  0.00    +0.000 C 
BRANCH  25  26
ATOM     26  C   UNL     1      -3.163  11.796  18.429  0.00  0.00    +0.000 A 
ATOM     27  C   UNL     1      -4.056  11.501  17.401  0.00  0.00    +0.000 A 
ATOM     28  C   UNL     1      -5.404  11.802  17.580  0.00  0.00    +0.000 A 
ATOM     29  C   UNL     1      -5.819  12.377  18.775  0.00  0.00    +0.000 A 
ATOM     30  C   UNL     1      -4.866  12.619  19.749  0.00  0.00    +0.000 A 
ATOM     31  N   UNL     1      -3.557  12.348  19.600  0.00  0.00    +0.000 NA
ENDBRANCH  25  26
ENDBRANCH  22  24
ENDBRANCH  19  22
TORSDOF 4
ENDMDL
MODEL 2
REMARK VINA RESULT:      -8.0      1.255      1.550
REMARK  Name = 
REMARK  6 active torsions:
REMARK  status: ('A' for Active; 'I' for Inactive)
REMARK    1  A    between atoms: C_1  and  C_2
REMARK    2  A    between atoms: C_11  and  O_12
REMARK    3  A    between atoms: C_15  and  C_16
REMARK    4  A    between atoms: C_20  and  C_21
REMARK    5  A    between atoms: C_21  and  C_23
REMARK    6  A    between atoms: C_24  and  C_25
REMARK                            x       y       z     vdW  Elec       q    Type
REMARK                         _______ _______ _______ _____ _____    ______ ____
ROOT
ATOM      1  C   UNL     1      -0.787   9.554  18.258  0.00  0.00    +0.000 C 
ATOM      2  C   UNL     1       0.407  10.171  19.028  0.00  0.00    +0.000 C 
ATOM      3  C   UNL     1       1.662  10.205  18.137  0.00  0.00    +0.000 C 
ATOM      4  C   UNL     1       2.154   8.788  17.788  0.00  0.00    +0.000 C 
ATOM      5  C   UNL     1       2.347   7.852  19.010  0.00  0.00    +0.000 C 
ATOM      6  C   UNL     1       1.153   7.912  20.003  0.00  0.00    +0.000 C 
ATOM      7  C   UNL     1       1.504   7.159  21.294  0.00  0.00    +0.000 C 
ATOM      8  C   UNL     1       2.161   5.838  21.047  0.00  0.00    +0.000 C 
ATOM      9  C   UNL     1       2.678   5.451  19.866  0.00  0.00    +0.000 C 
ATOM     10  C   UNL     1       3.282   4.073  19.713  0.00  0.00    +0.000 C 
ATOM     11  C   UNL     1       4.680   4.116  19.091  0.00  0.00    +0.000 C 
ATOM     12  C   UNL     1       4.697   4.933  17.802  0.00  0.00    +0.000 C 
ATOM     13  C   UNL     1       4.140   6.338  18.029  0.00  0.00    +0.000 C 
ATOM     14  C   UNL     1       2.702   6.360  18.627  0.00  0.00    +0.000 C 
ATOM     15  C   UNL     1       1.699   5.791  17.594  0.00  0.00    +0.000 C 
ATOM     16  C   UNL     1       0.806   9.377  20.294  0.00  0.00    +0.000 C 
ATOM     17  C   UNL     1      -0.311   9.661  21.284  0.00  0.00    +0.000 C 
ATOM     18  C   UNL     1      -0.713  11.111  20.984  0.00  0.00    +0.000 C 
ATOM     19  C   UNL     1      -0.004  11.527  19.668  0.00  0.00    +0.000 C 
ENDROOT
BRANCH  11  20
ATOM     20  O   UNL     1       5.132   2.792  18.814  0.00  0.00    +0.000 OA
ATOM     21  H   UNL     1       4.749   2.515  17.965  0.00  0.00    +0.000 HD
ENDBRANCH  11  20
BRANCH  19  22
ATOM     22  C   UNL     1      -0.887  12.448  18.818  0.00  0.00    +0.000 C 
ATOM     23  O   UNL     1      -0.437  13.132  17.892  0.00  0.00    +0.000 OA
BRANCH  22  24
ATOM     24  C   UNL     1      -2.333  12.508  19.148  0.00  0.00    +0.000 C 
ATOM     25  C   UNL     1      -3.238  11.787  18.454  0.00  0.00    +0.000 C 
BRANCH  25  26
ATOM     26  C   UNL     1      -4.674  11.874  18.728  0.00  0.00    +0.000 A 
ATOM     27  C   UNL     1      -5.594  11.142  17.981  0.00  0.00    +0.000 A 
ATOM     28  C   UNL     1      -6.950  11.287  18.263  0.00  0.00    +0.000 A 
ATOM     29  C   UNL     1      -7.344  12.145  19.281  0.00  0.00    +0.000 A 
ATOM     30  C   UNL     1      -6.362  12.819  19.985  0.00  0.00    +0.000 A 
ATOM     31  N   UNL     1      -5.046  12.707  19.728  0.00  0.00    +0.000 NA
ENDBRANCH  25  26
ENDBRANCH  22  24
ENDBRANCH  19  22
TORSDOF 4
ENDMDL
MODEL 3
REMARK VINA RESULT:      -7.9      0.840      1.222
REMARK  Name = 
REMARK  6 active torsions:
REMARK  status: ('A' for Active; 'I' for Inactive)
REMARK    1  A    between atoms: C_1  and  C_2
REMARK    2  A    between atoms: C_11  and  O_12
REMARK    3  A    between atoms: C_15  and  C_16
REMARK    4  A    between atoms: C_20  and  C_21
REMARK    5  A    between atoms: C_21  and  C_23
REMARK    6  A    between atoms: C_24  and  C_25
REMARK                            x       y       z     vdW  Elec       q    Type
REMARK                         _______ _______ _______ _____ _____    ______ ____
ROOT
ATOM      1  C   UNL     1      -0.281   9.162  18.638  0.00  0.00    +0.000 C 
ATOM      2  C   UNL     1       1.115   9.489  19.226  0.00  0.00    +0.000 C 
ATOM      3  C   UNL     1       2.200   9.358  18.142  0.00  0.00    +0.000 C 
ATOM      4  C   UNL     1       2.348   7.906  17.653  0.00  0.00    +0.000 C 
ATOM      5  C   UNL     1       2.542   6.861  18.784  0.00  0.00    +0.000 C 
ATOM      6  C   UNL     1       1.551   7.065  19.963  0.00  0.00    +0.000 C 
ATOM      7  C   UNL     1       1.944   6.166  21.144  0.00  0.00    +0.000 C 
ATOM      8  C   UNL     1       2.287   4.768  20.732  0.00  0.00    +0.000 C 
ATOM      9  C   UNL     1       2.530   4.383  19.466  0.00  0.00    +0.000 C 
ATOM     10  C   UNL     1       2.825   2.932  19.155  0.00  0.00    +0.000 C 
ATOM     11  C   UNL     1       4.091   2.763  18.311  0.00  0.00    +0.000 C 
ATOM     12  C   UNL     1       4.067   3.658  17.075  0.00  0.00    +0.000 C 
ATOM     13  C   UNL     1       3.834   5.120  17.453  0.00  0.00    +0.000 C 
ATOM     14  C   UNL     1       2.538   5.362  18.282  0.00  0.00    +0.000 C 
ATOM     15  C   UNL     1       1.296   5.066  17.406  0.00  0.00    +0.000 C 
ATOM     16  C   UNL     1       1.543   8.543  20.372  0.00  0.00    +0.000 C 
ATOM     17  C   UNL     1       0.669   8.952  21.545  0.00  0.00    +0.000 C 
ATOM     18  C   UNL     1       0.514  10.470  21.381  0.00  0.00    +0.000 C 
ATOM     19  C   UNL     1       1.078  10.846  19.984  0.00  0.00    +0.000 C 
ENDROOT
BRANCH  11  20
ATOM     20  O   UNL     1       4.230   1.403  17.906  0.00  0.00    +0.000 OA
ATOM     21  H   UNL     1       5.101   1.304  17.484  0.00  0.00    +0.000 HD
ENDBRANCH  11  20
BRANCH  19  22
ATOM     22  C   UNL     1       0.269  11.975  19.335  0.00  0.00    +0.000 C 
ATOM     23  O   UNL     1       0.710  12.656  18.403  0.00  0.00    +0.000 OA
BRANCH  22  24
ATOM     24  C   UNL     1      -1.088  12.243  19.872  0.00  0.00    +0.000 C 
ATOM     25  C   UNL     1      -2.188  12.068  19.110  0.00  0.00    +0.000 C 
BRANCH  25  26
ATOM     26  C   UNL     1      -3.531  12.381  19.603  0.00  0.00    +0.000 A 
ATOM     27  C   UNL     1      -3.714  13.158  20.744  0.00  0.00    +0.000 A 
ATOM     28  C   UNL     1      -5.013  13.398  21.187  0.00  0.00    +0.000 A 
ATOM     29  C   UNL     1      -6.082  12.867  20.477  0.00  0.00    +0.000 A 
ATOM     30  C   UNL     1      -5.808  12.122  19.343  0.00  0.00    +0.000 A 
ATOM     31  N   UNL     1      -4.565  11.866  18.898  0.00  0.00    +0.000 NA
ENDBRANCH  25  26
ENDBRANCH  22  24
ENDBRANCH  19  22
TORSDOF 4
ENDMDL
MODEL 4
REMARK VINA RESULT:      -7.9      3.224      9.475
REMARK  Name = 
REMARK  6 active torsions:
REMARK  status: ('A' for Active; 'I' for Inactive)
REMARK    1  A    between atoms: C_1  and  C_2
REMARK    2  A    between atoms: C_11  and  O_12
REMARK    3  A    between atoms: C_15  and  C_16
REMARK    4  A    between atoms: C_20  and  C_21
REMARK    5  A    between atoms: C_21  and  C_23
REMARK    6  A    between atoms: C_24  and  C_25
REMARK                            x       y       z     vdW  Elec       q    Type
REMARK                         _______ _______ _______ _____ _____    ______ ____
ROOT
ATOM      1  C   UNL     1       1.353  11.334  19.305  0.00  0.00    +0.000 C 
ATOM      2  C   UNL     1       0.279  10.237  19.515  0.00  0.00    +0.000 C 
ATOM      3  C   UNL     1      -0.954  10.516  18.637  0.00  0.00    +0.000 C 
ATOM      4  C   UNL     1      -1.676  11.809  19.058  0.00  0.00    +0.000 C 
ATOM      5  C   UNL     1      -2.020  11.894  20.569  0.00  0.00    +0.000 C 
ATOM      6  C   UNL     1      -0.831  11.473  21.477  0.00  0.00    +0.000 C 
ATOM      7  C   UNL     1      -1.300  11.346  22.933  0.00  0.00    +0.000 C 
ATOM      8  C   UNL     1      -2.169  12.481  23.374  0.00  0.00    +0.000 C 
ATOM      9  C   UNL     1      -2.746  13.369  22.544  0.00  0.00    +0.000 C 
ATOM     10  C   UNL     1      -3.571  14.508  23.100  0.00  0.00    +0.000 C 
ATOM     11  C   UNL     1      -4.944  14.614  22.430  0.00  0.00    +0.000 C 
ATOM     12  C   UNL     1      -4.827  14.634  20.908  0.00  0.00    +0.000 C 
ATOM     13  C   UNL     1      -4.042  13.427  20.396  0.00  0.00    +0.000 C 
ATOM     14  C   UNL     1      -2.620  13.287  21.015  0.00  0.00    +0.000 C 
ATOM     15  C   UNL     1      -1.727  14.460  20.541  0.00  0.00    +0.000 C 
ATOM     16  C   UNL     1      -0.244  10.151  20.968  0.00  0.00    +0.000 C 
ATOM     17  C   UNL     1       0.907   9.537  21.747  0.00  0.00    +0.000 C 
ATOM     18  C   UNL     1       1.545   8.555  20.754  0.00  0.00    +0.000 C 
ATOM     19  C   UNL     1       0.912   8.826  19.363  0.00  0.00    +0.000 C 
ENDROOT
BRANCH  11  20
ATOM     20  O   UNL     1      -5.611  15.796  22.867  0.00  0.00    +0.000 OA
ATOM     21  H   UNL     1      -6.160  16.119  22.132  0.00  0.00    +0.000 HD
ENDBRANCH  11  20
BRANCH  19  22
ATOM     22  C   UNL     1       1.935   8.649  18.234  0.00  0.00    +0.000 C 
ATOM     23  O   UNL     1       2.158   9.529  17.396  0.00  0.00    +0.000 OA
BRANCH  22  24
ATOM     24  C   UNL     1       2.666   7.359  18.166  0.00  0.00    +0.000 C 
ATOM     25  C   UNL     1       2.008   6.181  18.196  0.00  0.00    +0.000 C 
BRANCH  25  26
ATOM     26  C   UNL     1       2.713   4.898  18.185  0.00  0.00    +0.000 A 
ATOM     27  C   UNL     1       2.156   3.777  17.574  0.00  0.00    +0.000 A 
ATOM     28  C   UNL     1       2.856   2.574  17.621  0.00  0.00    +0.000 A 
ATOM     29  C   UNL     1       4.086   2.528  18.264  0.00  0.00    +0.000 A 
ATOM     30  C   UNL     1       4.572   3.694  18.828  0.00  0.00    +0.000 A 
ATOM     31  N   UNL     1       3.915   4.867  18.807  0.00  0.00    +0.000 NA
ENDBRANCH  25  26
ENDBRANCH  22  24
ENDBRANCH  19  22
TORSDOF 4
ENDMDL
MODEL 5
REMARK VINA RESULT:      -7.8      3.338      9.637
REMARK  Name = 
REMARK  6 active torsions:
REMARK  status: ('A' for Active; 'I' for Inactive)
REMARK    1  A    between atoms: C_1  and  C_2
REMARK    2  A    between atoms: C_11  and  O_12
REMARK    3  A    between atoms: C_15  and  C_16
REMARK    4  A    between atoms: C_20  and  C_21
REMARK    5  A    between atoms: C_21  and  C_23
REMARK    6  A    between atoms: C_24  and  C_25
REMARK                            x       y       z     vdW  Elec       q    Type
REMARK                         _______ _______ _______ _____ _____    ______ ____
ROOT
ATOM      1  C   UNL     1       1.212  11.564  19.407  0.00  0.00    +0.000 C 
ATOM      2  C   UNL     1       0.148  10.444  19.527  0.00  0.00    +0.000 C 
ATOM      3  C   UNL     1      -1.075  10.767  18.650  0.00  0.00    +0.000 C 
ATOM      4  C   UNL     1      -1.819  12.022  19.144  0.00  0.00    +0.000 C 
ATOM      5  C   UNL     1      -2.187  12.002  20.651  0.00  0.00    +0.000 C 
ATOM      6  C   UNL     1      -1.007  11.535  21.548  0.00  0.00    +0.000 C 
ATOM      7  C   UNL     1      -1.497  11.307  22.985  0.00  0.00    +0.000 C 
ATOM      8  C   UNL     1      -2.386  12.401  23.487  0.00  0.00    +0.000 C 
ATOM      9  C   UNL     1      -2.960  13.336  22.707  0.00  0.00    +0.000 C 
ATOM     10  C   UNL     1      -3.808  14.427  23.324  0.00  0.00    +0.000 C 
ATOM     11  C   UNL     1      -5.171  14.562  22.640  0.00  0.00    +0.000 C 
ATOM     12  C   UNL     1      -5.030  14.684  21.126  0.00  0.00    +0.000 C 
ATOM     13  C   UNL     1      -4.224  13.522  20.547  0.00  0.00    +0.000 C 
ATOM     14  C   UNL     1      -2.810  13.356  21.178  0.00  0.00    +0.000 C 
ATOM     15  C   UNL     1      -1.924  14.568  20.798  0.00  0.00    +0.000 C 
ATOM     16  C   UNL     1      -0.397  10.256  20.962  0.00  0.00    +0.000 C 
ATOM     17  C   UNL     1       0.749   9.604  21.718  0.00  0.00    +0.000 C 
ATOM     18  C   UNL     1       1.413   8.697  20.673  0.00  0.00    +0.000 C 
ATOM     19  C   UNL     1       0.799   9.053  19.292  0.00  0.00    +0.000 C 
ENDROOT
BRANCH  11  20
ATOM     20  O   UNL     1      -5.858  15.705  23.144  0.00  0.00    +0.000 OA
ATOM     21  H   UNL     1      -5.206  16.415  23.271  0.00  0.00    +0.000 HD
ENDBRANCH  11  20
BRANCH  19  22
ATOM     22  C   UNL     1       1.842   8.962  18.171  0.00  0.00    +0.000 C 
ATOM     23  O   UNL     1       2.199   9.947  17.516  0.00  0.00    +0.000 OA
BRANCH  22  24
ATOM     24  C   UNL     1       2.420   7.627  17.878  0.00  0.00    +0.000 C 
ATOM     25  C   UNL     1       3.709   7.491  17.502  0.00  0.00    +0.000 C 
BRANCH  25  26
ATOM     26  C   UNL     1       4.283   6.189  17.155  0.00  0.00    +0.000 A 
ATOM     27  C   UNL     1       5.122   6.045  16.053  0.00  0.00    +0.000 A 
ATOM     28  C   UNL     1       5.615   4.778  15.750  0.00  0.00    +0.000 A 
ATOM     29  C   UNL     1       5.265   3.702  16.556  0.00  0.00    +0.000 A 
ATOM     30  C   UNL     1       4.441   3.940  17.642  0.00  0.00    +0.000 A 
ATOM     31  N   UNL     1       3.942   5.150  17.953  0.00  0.00    +0.000 NA
ENDBRANCH  25  26
ENDBRANCH  22  24
ENDBRANCH  19  22
TORSDOF 4
ENDMDL
MODEL 6
REMARK VINA RESULT:      -7.8      3.070      3.897
REMARK  Name = 
REMARK  6 active torsions:
REMARK  status: ('A' for Active; 'I' for Inactive)
REMARK    1  A    between atoms: C_1  and  C_2
REMARK    2  A    between atoms: C_11  and  O_12
REMARK    3  A    between atoms: C_15  and  C_16
REMARK    4  A    between atoms: C_20  and  C_21
REMARK    5  A    between atoms: C_21  and  C_23
REMARK    6  A    between atoms: C_24  and  C_25
REMARK                            x       y       z     vdW  Elec       q    Type
REMARK                         _______ _______ _______ _____ _____    ______ ____
ROOT
ATOM      1  C   UNL     1      -0.918  10.038  18.696  0.00  0.00    +0.000 C 
ATOM      2  C   UNL     1       0.340  10.533  19.452  0.00  0.00    +0.000 C 
ATOM      3  C   UNL     1       1.531  10.668  18.487  0.00  0.00    +0.000 C 
ATOM      4  C   UNL     1       1.967   9.304  17.921  0.00  0.00    +0.000 C 
ATOM      5  C   UNL     1       2.223   8.212  18.994  0.00  0.00    +0.000 C 
ATOM      6  C   UNL     1       1.102   8.156  20.069  0.00  0.00    +0.000 C 
ATOM      7  C   UNL     1       1.525   7.236  21.223  0.00  0.00    +0.000 C 
ATOM      8  C   UNL     1       2.135   5.951  20.759  0.00  0.00    +0.000 C 
ATOM      9  C   UNL     1       2.561   5.716  19.505  0.00  0.00    +0.000 C 
ATOM     10  C   UNL     1       3.123   4.362  19.131  0.00  0.00    +0.000 C 
ATOM     11  C   UNL     1       4.475   4.469  18.421  0.00  0.00    +0.000 C 
ATOM     12  C   UNL     1       4.421   5.448  17.252  0.00  0.00    +0.000 C 
ATOM     13  C   UNL     1       3.911   6.818  17.699  0.00  0.00    +0.000 C 
ATOM     14  C   UNL     1       2.519   6.779  18.396  0.00  0.00    +0.000 C 
ATOM     15  C   UNL     1       1.434   6.364  17.372  0.00  0.00    +0.000 C 
ATOM     16  C   UNL     1       0.808   9.575  20.573  0.00  0.00    +0.000 C 
ATOM     17  C   UNL     1      -0.232   9.739  21.668  0.00  0.00    +0.000 C 
ATOM     18  C   UNL     1      -0.622  11.221  21.589  0.00  0.00    +0.000 C 
ATOM     19  C   UNL     1       0.004  11.798  20.291  0.00  0.00    +0.000 C 
ENDROOT
BRANCH  11  20
ATOM     20  O   UNL     1       4.878   3.187  17.944  0.00  0.00    +0.000 OA
ATOM     21  H   UNL     1       5.807   3.250  17.664  0.00  0.00    +0.000 HD
ENDBRANCH  11  20
BRANCH  19  22
ATOM     22  C   UNL     1      -0.916  12.834  19.633  0.00  0.00    +0.000 C 
ATOM     23  O   UNL     1      -2.148  12.765  19.700  0.00  0.00    +0.000 OA
BRANCH  22  24
ATOM     24  C   UNL     1      -0.275  13.946  18.888  0.00  0.00    +0.000 C 
ATOM     25  C   UNL     1      -0.503  15.233  19.222  0.00  0.00    +0.000 C 
BRANCH  25  26
ATOM     26  C   UNL     1       0.075  16.345  18.465  0.00  0.00    +0.000 A 
ATOM     27  C   UNL     1      -0.737  17.305  17.865  0.00  0.00    +0.000 A 
ATOM     28  C   UNL     1      -0.136  18.324  17.130  0.00  0.00    +0.000 A 
ATOM     29  C   UNL     1       1.249  18.359  17.025  0.00  0.00    +0.000 A 
ATOM     30  C   UNL     1       1.979  17.376  17.669  0.00  0.00    +0.000 A 
ATOM     31  N   UNL     1       1.425  16.375  18.376  0.00  0.00    +0.000 NA
ENDBRANCH  25  26
ENDBRANCH  22  24
ENDBRANCH  19  22
TORSDOF 4
ENDMDL
MODEL 7
REMARK VINA RESULT:      -7.7      3.462      9.602
REMARK  Name = 
REMARK  6 active torsions:
REMARK  status: ('A' for Active; 'I' for Inactive)
REMARK    1  A    between atoms: C_1  and  C_2
REMARK    2  A    between atoms: C_11  and  O_12
REMARK    3  A    between atoms: C_15  and  C_16
REMARK    4  A    between atoms: C_20  and  C_21
REMARK    5  A    between atoms: C_21  and  C_23
REMARK    6  A    between atoms: C_24  and  C_25
REMARK                            x       y       z     vdW  Elec       q    Type
REMARK                         _______ _______ _______ _____ _____    ______ ____
ROOT
ATOM      1  C   UNL     1       1.478  11.156  19.296  0.00  0.00    +0.000 C 
ATOM      2  C   UNL     1       0.444  10.008  19.413  0.00  0.00    +0.000 C 
ATOM      3  C   UNL     1      -0.801  10.316  18.561  0.00  0.00    +0.000 C 
ATOM      4  C   UNL     1      -1.567  11.543  19.090  0.00  0.00    +0.000 C 
ATOM      5  C   UNL     1      -1.909  11.488  20.602  0.00  0.00    +0.000 C 
ATOM      6  C   UNL     1      -0.704  11.034  21.472  0.00  0.00    +0.000 C 
ATOM      7  C   UNL     1      -1.164  10.768  22.912  0.00  0.00    +0.000 C 
ATOM      8  C   UNL     1      -2.071  11.831  23.448  0.00  0.00    +0.000 C 
ATOM      9  C   UNL     1      -2.680  12.765  22.695  0.00  0.00    +0.000 C 
ATOM     10  C   UNL     1      -3.544  13.823  23.345  0.00  0.00    +0.000 C 
ATOM     11  C   UNL     1      -4.921  13.936  22.686  0.00  0.00    +0.000 C 
ATOM     12  C   UNL     1      -4.809  14.089  21.171  0.00  0.00    +0.000 C 
ATOM     13  C   UNL     1      -3.984  12.958  20.559  0.00  0.00    +0.000 C 
ATOM     14  C   UNL     1      -2.556  12.816  21.164  0.00  0.00    +0.000 C 
ATOM     15  C   UNL     1      -1.706  14.056  20.791  0.00  0.00    +0.000 C 
ATOM     16  C   UNL     1      -0.072   9.781  20.853  0.00  0.00    +0.000 C 
ATOM     17  C   UNL     1       1.102   9.144  21.578  0.00  0.00    +0.000 C 
ATOM     18  C   UNL     1       1.771   8.273  20.506  0.00  0.00    +0.000 C 
ATOM     19  C   UNL     1       1.126   8.637  19.142  0.00  0.00    +0.000 C 
ENDROOT
BRANCH  11  20
ATOM     20  O   UNL     1      -5.628  15.053  23.221  0.00  0.00    +0.000 OA
ATOM     21  H   UNL     1      -6.087  14.760  24.026  0.00  0.00    +0.000 HD
ENDBRANCH  11  20
BRANCH  19  22
ATOM     22  C   UNL     1       2.151   8.593  18.003  0.00  0.00    +0.000 C 
ATOM     23  O   UNL     1       2.148   9.408  17.074  0.00  0.00    +0.000 OA
BRANCH  22  24
ATOM     24  C   UNL     1       3.170   7.513  18.039  0.00  0.00    +0.000 C 
ATOM     25  C   UNL     1       4.236   7.532  17.213  0.00  0.00    +0.000 C 
BRANCH  25  26
ATOM     26  C   UNL     1       5.222   6.449  17.194  0.00  0.00    +0.000 A 
ATOM     27  C   UNL     1       6.482   6.615  17.764  0.00  0.00    +0.000 A 
ATOM     28  C   UNL     1       7.392   5.563  17.690  0.00  0.00    +0.000 A 
ATOM     29  C   UNL     1       7.016   4.382  17.062  0.00  0.00    +0.000 A 
ATOM     30  C   UNL     1       5.737   4.298  16.541  0.00  0.00    +0.000 A 
ATOM     31  N   UNL     1       4.841   5.300  16.588  0.00  0.00    +0.000 NA
ENDBRANCH  25  26
ENDBRANCH  22  24
ENDBRANCH  19  22
TORSDOF 4
ENDMDL
MODEL 8
REMARK VINA RESULT:      -7.7      2.784      4.339
REMARK  Name = 
REMARK  6 active torsions:
REMARK  status: ('A' for Active; 'I' for Inactive)
REMARK    1  A    between atoms: C_1  and  C_2
REMARK    2  A    between atoms: C_11  and  O_12
REMARK    3  A    between atoms: C_15  and  C_16
REMARK    4  A    between atoms: C_20  and  C_21
REMARK    5  A    between atoms: C_21  and  C_23
REMARK    6  A    between atoms: C_24  and  C_25
REMARK                            x       y       z     vdW  Elec       q    Type
REMARK                         _______ _______ _______ _____ _____    ______ ____
ROOT
ATOM      1  C   UNL     1      -0.136   9.138  18.259  0.00  0.00    +0.000 C 
ATOM      2  C   UNL     1       1.190   9.430  19.007  0.00  0.00    +0.000 C 
ATOM      3  C   UNL     1       2.394   9.209  18.074  0.00  0.00    +0.000 C 
ATOM      4  C   UNL     1       2.535   7.732  17.661  0.00  0.00    +0.000 C 
ATOM      5  C   UNL     1       2.537   6.728  18.844  0.00  0.00    +0.000 C 
ATOM      6  C   UNL     1       1.416   7.023  19.880  0.00  0.00    +0.000 C 
ATOM      7  C   UNL     1       1.617   6.158  21.132  0.00  0.00    +0.000 C 
ATOM      8  C   UNL     1       1.943   4.731  20.818  0.00  0.00    +0.000 C 
ATOM      9  C   UNL     1       2.325   4.284  19.608  0.00  0.00    +0.000 C 
ATOM     10  C   UNL     1       2.588   2.810  19.389  0.00  0.00    +0.000 C 
ATOM     11  C   UNL     1       3.941   2.554  18.719  0.00  0.00    +0.000 C 
ATOM     12  C   UNL     1       4.113   3.396  17.458  0.00  0.00    +0.000 C 
ATOM     13  C   UNL     1       3.903   4.882  17.751  0.00  0.00    +0.000 C 
ATOM     14  C   UNL     1       2.526   5.211  18.400  0.00  0.00    +0.000 C 
ATOM     15  C   UNL     1       1.391   4.932  17.384  0.00  0.00    +0.000 C 
ATOM     16  C   UNL     1       1.427   8.515  20.231  0.00  0.00    +0.000 C 
ATOM     17  C   UNL     1       0.432   9.009  21.269  0.00  0.00    +0.000 C 
ATOM     18  C   UNL     1       0.370  10.524  21.031  0.00  0.00    +0.000 C 
ATOM     19  C   UNL     1       1.122  10.817  19.705  0.00  0.00    +0.000 C 
ENDROOT
BRANCH  11  20
ATOM     20  O   UNL     1       4.066   1.174  18.384  0.00  0.00    +0.000 OA
ATOM     21  H   UNL     1       3.177   0.779  18.403  0.00  0.00    +0.000 HD
ENDBRANCH  11  20
BRANCH  19  22
ATOM     22  C   UNL     1       0.454  11.951  18.918  0.00  0.00    +0.000 C 
ATOM     23  O   UNL     1      -0.705  11.874  18.496  0.00  0.00    +0.000 OA
BRANCH  22  24
ATOM     24  C   UNL     1       1.256  13.172  18.659  0.00  0.00    +0.000 C 
ATOM     25  C   UNL     1       2.492  13.320  19.180  0.00  0.00    +0.000 C 
BRANCH  25  26
ATOM     26  C   UNL     1       3.277  14.540  18.982  0.00  0.00    +0.000 A 
ATOM     27  C   UNL     1       2.939  15.459  17.991  0.00  0.00    +0.000 A 
ATOM     28  C   UNL     1       3.739  16.587  17.826  0.00  0.00    +0.000 A 
ATOM     29  C   UNL     1       4.839  16.768  18.656  0.00  0.00    +0.000 A 
ATOM     30  C   UNL     1       5.089  15.814  19.626  0.00  0.00    +0.000 A 
ATOM     31  N   UNL     1       4.341  14.710  19.802  0.00  0.00    +0.000 NA
ENDBRANCH  25  26
ENDBRANCH  22  24
ENDBRANCH  19  22
TORSDOF 4
ENDMDL
MODEL 9
REMARK VINA RESULT:      -7.7      1.424      2.024
REMARK  Name = 
REMARK  6 active torsions:
REMARK  status: ('A' for Active; 'I' for Inactive)
REMARK    1  A    between atoms: C_1  and  C_2
REMARK    2  A    between atoms: C_11  and  O_12
REMARK    3  A    between atoms: C_15  and  C_16
REMARK    4  A    between atoms: C_20  and  C_21
REMARK    5  A    between atoms: C_21  and  C_23
REMARK    6  A    between atoms: C_24  and  C_25
REMARK                            x       y       z     vdW  Elec       q    Type
REMARK                         _______ _______ _______ _____ _____    ______ ____
ROOT
ATOM      1  C   UNL     1      -0.906   9.796  18.517  0.00  0.00    +0.000 C 
ATOM      2  C   UNL     1       0.340  10.345  19.255  0.00  0.00    +0.000 C 
ATOM      3  C   UNL     1       1.538  10.437  18.293  0.00  0.00    +0.000 C 
ATOM      4  C   UNL     1       1.992   9.047  17.809  0.00  0.00    +0.000 C 
ATOM      5  C   UNL     1       2.248   8.021  18.944  0.00  0.00    +0.000 C 
ATOM      6  C   UNL     1       1.119   8.015  20.011  0.00  0.00    +0.000 C 
ATOM      7  C   UNL     1       1.540   7.165  21.219  0.00  0.00    +0.000 C 
ATOM      8  C   UNL     1       2.166   5.861  20.833  0.00  0.00    +0.000 C 
ATOM      9  C   UNL     1       2.605   5.561  19.598  0.00  0.00    +0.000 C 
ATOM     10  C   UNL     1       3.183   4.193  19.306  0.00  0.00    +0.000 C 
ATOM     11  C   UNL     1       4.540   4.273  18.602  0.00  0.00    +0.000 C 
ATOM     12  C   UNL     1       4.487   5.185  17.379  0.00  0.00    +0.000 C 
ATOM     13  C   UNL     1       3.961   6.572  17.744  0.00  0.00    +0.000 C 
ATOM     14  C   UNL     1       2.563   6.559  18.430  0.00  0.00    +0.000 C 
ATOM     15  C   UNL     1       1.492   6.076  17.422  0.00  0.00    +0.000 C 
ATOM     16  C   UNL     1       0.807   9.456  20.431  0.00  0.00    +0.000 C 
ATOM     17  C   UNL     1      -0.244   9.672  21.507  0.00  0.00    +0.000 C 
ATOM     18  C   UNL     1      -0.647  11.143  21.342  0.00  0.00    +0.000 C 
ATOM     19  C   UNL     1      -0.015  11.652  20.018  0.00  0.00    +0.000 C 
ENDROOT
BRANCH  11  20
ATOM     20  O   UNL     1       4.959   2.971  18.201  0.00  0.00    +0.000 OA
ATOM     21  H   UNL     1       4.651   2.824  17.291  0.00  0.00    +0.000 HD
ENDBRANCH  11  20
BRANCH  19  22
ATOM     22  C   UNL     1      -0.939  12.640  19.296  0.00  0.00    +0.000 C 
ATOM     23  O   UNL     1      -0.586  13.265  18.290  0.00  0.00    +0.000 OA
BRANCH  22  24
ATOM     24  C   UNL     1      -2.300  12.840  19.853  0.00  0.00    +0.000 C 
ATOM     25  C   UNL     1      -3.375  12.238  19.304  0.00  0.00    +0.000 C 
BRANCH  25  26
ATOM     26  C   UNL     1      -4.732  12.466  19.805  0.00  0.00    +0.000 A 
ATOM     27  C   UNL     1      -4.980  12.613  21.167  0.00  0.00    +0.000 A 
ATOM     28  C   UNL     1      -6.294  12.797  21.591  0.00  0.00    +0.000 A 
ATOM     29  C   UNL     1      -7.313  12.838  20.648  0.00  0.00    +0.000 A 
ATOM     30  C   UNL     1      -6.973  12.702  19.313  0.00  0.00    +0.000 A 
ATOM     31  N   UNL     1      -5.716  12.513  18.876  0.00  0.00    +0.000 NA
ENDBRANCH  25  26
ENDBRANCH  22  24
ENDBRANCH  19  22
TORSDOF 4
ENDMDL
