MODEL 1
REMARK VINA RESULT:      -7.9      0.000      0.000
REMARK  Name = 
REMARK  9 active torsions:
REMARK  status: ('A' for Active; 'I' for Inactive)
REMARK    1  A    between atoms: C_1  and  C_2
REMARK    2  A    between atoms: C_7  and  C_8
REMARK    3  A    between atoms: N_10  and  C_11
REMARK    4  A    between atoms: C_11  and  C_12
REMARK    5  A    between atoms: C_12  and  C_13
REMARK    6  A    between atoms: C_13  and  C_14
REMARK    7  A    between atoms: C_14  and  C_15
REMARK    8  A    between atoms: C_15  and  N_16
REMARK    9  A    between atoms: C_20  and  O_21
REMARK                            x       y       z     vdW  Elec       q    Type
REMARK                         _______ _______ _______ _____ _____    ______ ____
ROOT
ATOM      1  C   UNL     1       7.265   6.548  17.254  0.00  0.00    +0.000 C 
ENDROOT
BRANCH   1   4
ATOM      2  C   UNL     1       4.686   4.687  18.907  0.00  0.00    +0.000 A 
ATOM      3  C   UNL     1       5.023   5.756  18.101  0.00  0.00    +0.000 A 
ATOM      4  N   UNL     1       6.379   5.686  18.014  0.00  0.00    +0.000 N 
ATOM      5  N   UNL     1       6.871   4.671  18.741  0.00  0.00    +0.000 NA
ATOM      6  N   UNL     1       5.836   4.044  19.289  0.00  0.00    +0.000 NA
BRANCH   2  13
ATOM      7  C   UNL     1       3.273   2.432  17.503  0.00  0.00    +0.000 C 
ATOM      8  C   UNL     1       2.651   3.236  18.616  0.00  0.00    +0.000 A 
ATOM      9  C   UNL     1       1.336   2.920  19.011  0.00  0.00    +0.000 A 
ATOM     10  C   UNL     1       0.705   3.616  20.042  0.00  0.00    +0.000 A 
ATOM     11  C   UNL     1       1.377   4.642  20.694  0.00  0.00    +0.000 A 
ATOM     12  C   UNL     1       2.678   4.972  20.311  0.00  0.00    +0.000 A 
ATOM     13  C   UNL     1       3.334   4.284  19.272  0.00  0.00    +0.000 A 
ENDBRANCH   2  13
ENDBRANCH   1   4
BRANCH   1  14
ATOM     14  C   UNL     1       8.072   7.458  18.174  0.00  0.00    +0.000 C 
BRANCH  14  15
ATOM     15  C   UNL     1       7.976   8.948  17.819  0.00  0.00    +0.000 C 
BRANCH  15  16
ATOM     16  C   UNL     1       8.946   9.734  18.719  0.00  0.00    +0.000 C 
BRANCH  16  17
ATOM     17  C   UNL     1       9.273  11.142  18.215  0.00  0.00    +0.000 C 
BRANCH  17  18
ATOM     18  N   UNL     1       9.348  12.114  19.316  0.00  0.00    +0.000 N 
ATOM     19  C   UNL     1       9.598  11.657  20.599  0.00  0.00    +0.000 A 
ATOM     20  C   UNL     1       9.688  12.491  21.636  0.00  0.00    +0.000 A 
ATOM     21  C   UNL     1       9.453  13.901  21.457  0.00  0.00    +0.000 A 
ATOM     22  C   UNL     1       9.194  14.407  20.242  0.00  0.00    +0.000 A 
ATOM     23  C   UNL     1       9.186  13.482  19.038  0.00  0.00    +0.000 A 
ATOM     24  O   UNL     1       9.034  13.930  17.903  0.00  0.00    +0.000 OA
BRANCH  22  25
ATOM     25  O   UNL     1       8.926  15.757  20.050  0.00  0.00    +0.000 OA
ATOM     26  H   UNL     1       8.213  16.018  20.655  0.00  0.00    +0.000 HD
ENDBRANCH  22  25
ENDBRANCH  17  18
ENDBRANCH  16  17
ENDBRANCH  15  16
ENDBRANCH  14  15
ENDBRANCH   1  14
TORSDOF 8
ENDMDL
MODEL 2
REMARK VINA RESULT:      -7.9      1.572      2.150
REMARK  Name = 
REMARK  9 active torsions:
REMARK  status: ('A' for Active; 'I' for Inactive)
REMARK    1  A    between atoms: C_1  and  C_2
REMARK    2  A    between atoms: C_7  and  C_8
REMARK    3  A    between atoms: N_10  and  C_11
REMARK    4  A    between atoms: C_11  and  C_12
REMARK    5  A    between atoms: C_12  and  C_13
REMARK    6  A    between atoms: C_13  and  C_14
REMARK    7  A    between atoms: C_14  and  C_15
REMARK    8  A    between atoms: C_15  and  N_16
REMARK    9  A    between atoms: C_20  and  O_21
REMARK                            x       y       z     vdW  Elec       q    Type
REMARK                         _______ _______ _______ _____ _____    ______ ____
ROOT
ATOM      1  C   UNL     1       7.325   6.167  17.051  0.00  0.00    +0.000 C 
ENDROOT
BRANCH   1   4
ATOM      2  C   UNL     1       4.674   4.302  18.584  0.00  0.00    +0.000 A 
ATOM      3  C   UNL     1       5.061   5.197  17.607  0.00  0.00    +0.000 A 
ATOM      4  N   UNL     1       6.395   5.359  17.818  0.00  0.00    +0.000 N 
ATOM      5  N   UNL     1       6.818   4.649  18.876  0.00  0.00    +0.000 NA
ATOM      6  N   UNL     1       5.769   3.988  19.350  0.00  0.00    +0.000 NA
BRANCH   2  13
ATOM      7  C   UNL     1       2.558   5.767  20.142  0.00  0.00    +0.000 C 
ATOM      8  C   UNL     1       2.334   4.422  19.500  0.00  0.00    +0.000 A 
ATOM      9  C   UNL     1       1.070   3.816  19.647  0.00  0.00    +0.000 A 
ATOM     10  C   UNL     1       0.792   2.578  19.068  0.00  0.00    +0.000 A 
ATOM     11  C   UNL     1       1.773   1.923  18.335  0.00  0.00    +0.000 A 
ATOM     12  C   UNL     1       3.033   2.505  18.186  0.00  0.00    +0.000 A 
ATOM     13  C   UNL     1       3.336   3.754  18.762  0.00  0.00    +0.000 A 
ENDBRANCH   2  13
ENDBRANCH   1   4
BRANCH   1  14
ATOM     14  C   UNL     1       7.202   7.643  17.416  0.00  0.00    +0.000 C 
BRANCH  14  15
ATOM     15  C   UNL     1       8.332   8.158  18.319  0.00  0.00    +0.000 C 
BRANCH  15  16
ATOM     16  C   UNL     1       8.554   9.653  18.029  0.00  0.00    +0.000 C 
BRANCH  16  17
ATOM     17  C   UNL     1       9.069  10.458  19.225  0.00  0.00    +0.000 C 
BRANCH  17  18
ATOM     18  N   UNL     1       9.991  11.525  18.810  0.00  0.00    +0.000 N 
ATOM     19  C   UNL     1      11.319  11.454  19.196  0.00  0.00    +0.000 A 
ATOM     20  C   UNL     1      12.204  12.386  18.842  0.00  0.00    +0.000 A 
ATOM     21  C   UNL     1      11.781  13.544  18.098  0.00  0.00    +0.000 A 
ATOM     22  C   UNL     1      10.506  13.681  17.702  0.00  0.00    +0.000 A 
ATOM     23  C   UNL     1       9.509  12.580  18.015  0.00  0.00    +0.000 A 
ATOM     24  O   UNL     1       8.355  12.639  17.594  0.00  0.00    +0.000 OA
BRANCH  22  25
ATOM     25  O   UNL     1      10.066  14.807  17.017  0.00  0.00    +0.000 OA
ATOM     26  H   UNL     1      10.834  15.235  16.603  0.00  0.00    +0.000 HD
ENDBRANCH  22  25
ENDBRANCH  17  18
ENDBRANCH  16  17
ENDBRANCH  15  16
ENDBRANCH  14  15
ENDBRANCH   1  14
TORSDOF 8
ENDMDL
MODEL 3
REMARK VINA RESULT:      -7.6      1.714      2.549
REMARK  Name = 
REMARK  9 active torsions:
REMARK  status: ('A' for Active; 'I' for Inactive)
REMARK    1  A    between atoms: C_1  and  C_2
REMARK    2  A    between atoms: C_7  and  C_8
REMARK    3  A    between atoms: N_10  and  C_11
REMARK    4  A    between atoms: C_11  and  C_12
REMARK    5  A    between atoms: C_12  and  C_13
REMARK    6  A    between atoms: C_13  and  C_14
REMARK    7  A    between atoms: C_14  and  C_15
REMARK    8  A    between atoms: C_15  and  N_16
REMARK    9  A    between atoms: C_20  and  O_21
REMARK                            x       y       z     vdW  Elec       q    Type
REMARK                         _______ _______ _______ _____ _____    ______ ____
ROOT
ATOM      1  C   UNL     1       7.890   7.541  18.032  0.00  0.00    +0.000 C 
ENDROOT
BRANCH   1   4
ATOM      2  C   UNL     1       4.999   5.530  17.359  0.00  0.00    +0.000 A 
ATOM      3  C   UNL     1       5.961   5.928  18.265  0.00  0.00    +0.000 A 
ATOM      4  N   UNL     1       6.743   6.789  17.558  0.00  0.00    +0.000 N 
ATOM      5  N   UNL     1       6.331   6.901  16.285  0.00  0.00    +0.000 NA
ATOM      6  N   UNL     1       5.252   6.137  16.154  0.00  0.00    +0.000 NA
BRANCH   2  13
ATOM      7  C   UNL     1       2.336   6.575  18.290  0.00  0.00    +0.000 C 
ATOM      8  C   UNL     1       2.627   5.111  18.084  0.00  0.00    +0.000 A 
ATOM      9  C   UNL     1       1.600   4.184  18.353  0.00  0.00    +0.000 A 
ATOM     10  C   UNL     1       1.799   2.816  18.172  0.00  0.00    +0.000 A 
ATOM     11  C   UNL     1       3.027   2.349  17.724  0.00  0.00    +0.000 A 
ATOM     12  C   UNL     1       4.057   3.253  17.460  0.00  0.00    +0.000 A 
ATOM     13  C   UNL     1       3.880   4.639  17.635  0.00  0.00    +0.000 A 
ENDBRANCH   2  13
ENDBRANCH   1   4
BRANCH   1  14
ATOM     14  C   UNL     1       7.734   9.029  17.737  0.00  0.00    +0.000 C 
BRANCH  14  15
ATOM     15  C   UNL     1       8.986   9.861  18.047  0.00  0.00    +0.000 C 
BRANCH  15  16
ATOM     16  C   UNL     1       9.151   9.956  19.574  0.00  0.00    +0.000 C 
BRANCH  16  17
ATOM     17  C   UNL     1       9.148  11.385  20.121  0.00  0.00    +0.000 C 
BRANCH  17  18
ATOM     18  N   UNL     1      10.068  12.259  19.377  0.00  0.00    +0.000 N 
ATOM     19  C   UNL     1      11.432  12.079  19.525  0.00  0.00    +0.000 A 
ATOM     20  C   UNL     1      12.315  12.833  18.869  0.00  0.00    +0.000 A 
ATOM     21  C   UNL     1      11.865  13.915  18.032  0.00  0.00    +0.000 A 
ATOM     22  C   UNL     1      10.557  14.151  17.854  0.00  0.00    +0.000 A 
ATOM     23  C   UNL     1       9.541  13.240  18.518  0.00  0.00    +0.000 A 
ATOM     24  O   UNL     1       8.338  13.380  18.307  0.00  0.00    +0.000 OA
BRANCH  22  25
ATOM     25  O   UNL     1      10.100  15.213  17.083  0.00  0.00    +0.000 OA
ATOM     26  H   UNL     1      10.730  15.947  17.165  0.00  0.00    +0.000 HD
ENDBRANCH  22  25
ENDBRANCH  17  18
ENDBRANCH  16  17
ENDBRANCH  15  16
ENDBRANCH  14  15
ENDBRANCH   1  14
TORSDOF 8
ENDMDL
MODEL 4
REMARK VINA RESULT:      -7.5      0.921      1.128
REMARK  Name = 
REMARK  9 active torsions:
REMARK  status: ('A' for Active; 'I' for Inactive)
REMARK    1  A    between atoms: C_1  and  C_2
REMARK    2  A    between atoms: C_7  and  C_8
REMARK    3  A    between atoms: N_10  and  C_11
REMARK    4  A    between atoms: C_11  and  C_12
REMARK    5  A    between atoms: C_12  and  C_13
REMARK    6  A    between atoms: C_13  and  C_14
REMARK    7  A    between atoms: C_14  and  C_15
REMARK    8  A    between atoms: C_15  and  N_16
REMARK    9  A    between atoms: C_20  and  O_21
REMARK                            x       y       z     vdW  Elec       q    Type
REMARK                         _______ _______ _______ _____ _____    ______ ____
ROOT
ATOM      1  C   UNL     1       7.445   5.959  17.354  0.00  0.00    +0.000 C 
ENDROOT
BRANCH   1   4
ATOM      2  C   UNL     1       4.141   4.954  18.317  0.00  0.00    +0.000 A 
ATOM      3  C   UNL     1       5.503   4.835  18.511  0.00  0.00    +0.000 A 
ATOM      4  N   UNL     1       6.042   5.665  17.577  0.00  0.00    +0.000 N 
ATOM      5  N   UNL     1       5.094   6.240  16.820  0.00  0.00    +0.000 NA
ATOM      6  N   UNL     1       3.920   5.816  17.273  0.00  0.00    +0.000 NA
BRANCH   2  13
ATOM      7  C   UNL     1       2.832   2.403  17.407  0.00  0.00    +0.000 C 
ATOM      8  C   UNL     1       2.471   3.110  18.687  0.00  0.00    +0.000 A 
ATOM      9  C   UNL     1       1.459   2.550  19.494  0.00  0.00    +0.000 A 
ATOM     10  C   UNL     1       1.084   3.147  20.697  0.00  0.00    +0.000 A 
ATOM     11  C   UNL     1       1.711   4.315  21.114  0.00  0.00    +0.000 A 
ATOM     12  C   UNL     1       2.709   4.885  20.324  0.00  0.00    +0.000 A 
ATOM     13  C   UNL     1       3.104   4.301  19.105  0.00  0.00    +0.000 A 
ENDBRANCH   2  13
ENDBRANCH   1   4
BRANCH   1  14
ATOM     14  C   UNL     1       7.941   7.037  18.313  0.00  0.00    +0.000 C 
BRANCH  14  15
ATOM     15  C   UNL     1       8.031   8.435  17.687  0.00  0.00    +0.000 C 
BRANCH  15  16
ATOM     16  C   UNL     1       8.599   9.409  18.734  0.00  0.00    +0.000 C 
BRANCH  16  17
ATOM     17  C   UNL     1       9.472  10.524  18.151  0.00  0.00    +0.000 C 
BRANCH  17  18
ATOM     18  N   UNL     1       9.654  11.631  19.101  0.00  0.00    +0.000 N 
ATOM     19  C   UNL     1       9.731  11.349  20.455  0.00  0.00    +0.000 A 
ATOM     20  C   UNL     1       9.906  12.310  21.363  0.00  0.00    +0.000 A 
ATOM     21  C   UNL     1       9.950  13.691  20.959  0.00  0.00    +0.000 A 
ATOM     22  C   UNL     1       9.869  14.034  19.665  0.00  0.00    +0.000 A 
ATOM     23  C   UNL     1       9.767  12.945  18.613  0.00  0.00    +0.000 A 
ATOM     24  O   UNL     1       9.776  13.224  17.416  0.00  0.00    +0.000 OA
BRANCH  22  25
ATOM     25  O   UNL     1       9.870  15.362  19.255  0.00  0.00    +0.000 OA
ATOM     26  H   UNL     1       9.089  15.801  19.631  0.00  0.00    +0.000 HD
ENDBRANCH  22  25
ENDBRANCH  17  18
ENDBRANCH  16  17
ENDBRANCH  15  16
ENDBRANCH  14  15
ENDBRANCH   1  14
TORSDOF 8
ENDMDL
MODEL 5
REMARK VINA RESULT:      -7.5      6.127      8.864
REMARK  Name = 
REMARK  9 active torsions:
REMARK  status: ('A' for Active; 'I' for Inactive)
REMARK    1  A    between atoms: C_1  and  C_2
REMARK    2  A    between atoms: C_7  and  C_8
REMARK    3  A    between atoms: N_10  and  C_11
REMARK    4  A    between atoms: C_11  and  C_12
REMARK    5  A    between atoms: C_12  and  C_13
REMARK    6  A    between atoms: C_13  and  C_14
REMARK    7  A    between atoms: C_14  and  C_15
REMARK    8  A    between atoms: C_15  and  N_16
REMARK    9  A    between atoms: C_20  and  O_21
REMARK                            x       y       z     vdW  Elec       q    Type
REMARK                         _______ _______ _______ _____ _____    ______ ____
ROOT
ATOM      1  C   UNL     1       4.352   6.651  17.140  0.00  0.00    +0.000 C 
ENDROOT
BRANCH   1   4
ATOM      2  C   UNL     1       1.866   8.321  19.112  0.00  0.00    +0.000 A 
ATOM      3  C   UNL     1       2.684   8.341  18.000  0.00  0.00    +0.000 A 
ATOM      4  N   UNL     1       3.374   7.170  18.079  0.00  0.00    +0.000 N 
ATOM      5  N   UNL     1       3.047   6.476  19.179  0.00  0.00    +0.000 NA
ATOM      6  N   UNL     1       2.113   7.170  19.818  0.00  0.00    +0.000 NA
BRANCH   2  13
ATOM      7  C   UNL     1       1.260   9.002  21.979  0.00  0.00    +0.000 C 
ATOM      8  C   UNL     1       0.575   9.657  20.809  0.00  0.00    +0.000 A 
ATOM      9  C   UNL     1      -0.407  10.632  21.072  0.00  0.00    +0.000 A 
ATOM     10  C   UNL     1      -1.071  11.286  20.035  0.00  0.00    +0.000 A 
ATOM     11  C   UNL     1      -0.768  10.975  18.716  0.00  0.00    +0.000 A 
ATOM     12  C   UNL     1       0.198  10.007  18.437  0.00  0.00    +0.000 A 
ATOM     13  C   UNL     1       0.881   9.333  19.468  0.00  0.00    +0.000 A 
ENDBRANCH   2  13
ENDBRANCH   1   4
BRANCH   1  14
ATOM     14  C   UNL     1       5.581   6.115  17.867  0.00  0.00    +0.000 C 
BRANCH  14  15
ATOM     15  C   UNL     1       5.857   4.627  17.611  0.00  0.00    +0.000 C 
BRANCH  15  16
ATOM     16  C   UNL     1       4.638   4.013  16.900  0.00  0.00    +0.000 C 
BRANCH  16  17
ATOM     17  C   UNL     1       4.185   2.667  17.471  0.00  0.00    +0.000 C 
BRANCH  17  18
ATOM     18  N   UNL     1       3.146   2.830  18.499  0.00  0.00    +0.000 N 
ATOM     19  C   UNL     1       1.868   3.192  18.111  0.00  0.00    +0.000 A 
ATOM     20  C   UNL     1       0.882   3.345  18.996  0.00  0.00    +0.000 A 
ATOM     21  C   UNL     1       1.143   3.204  20.405  0.00  0.00    +0.000 A 
ATOM     22  C   UNL     1       2.363   2.866  20.850  0.00  0.00    +0.000 A 
ATOM     23  C   UNL     1       3.469   2.594  19.847  0.00  0.00    +0.000 A 
ATOM     24  O   UNL     1       4.574   2.202  20.221  0.00  0.00    +0.000 OA
BRANCH  22  25
ATOM     25  O   UNL     1       2.648   2.762  22.206  0.00  0.00    +0.000 OA
ATOM     26  H   UNL     1       3.317   2.068  22.327  0.00  0.00    +0.000 HD
ENDBRANCH  22  25
ENDBRANCH  17  18
ENDBRANCH  16  17
ENDBRANCH  15  16
ENDBRANCH  14  15
ENDBRANCH   1  14
TORSDOF 8
ENDMDL
MODEL 6
REMARK VINA RESULT:      -7.4      5.699      8.130
REMARK  Name = 
REMARK  9 active torsions:
REMARK  status: ('A' for Active; 'I' for Inactive)
REMARK    1  A    between atoms: C_1  and  C_2
REMARK    2  A    between atoms: C_7  and  C_8
REMARK    3  A    between atoms: N_10  and  C_11
REMARK    4  A    between atoms: C_11  and  C_12
REMARK    5  A    between atoms: C_12  and  C_13
REMARK    6  A    between atoms: C_13  and  C_14
REMARK    7  A    between atoms: C_14  and  C_15
REMARK    8  A    between atoms: C_15  and  N_16
REMARK    9  A    between atoms: C_20  and  O_21
REMARK                            x       y       z     vdW  Elec       q    Type
REMARK                         _______ _______ _______ _____ _____    ______ ____
ROOT
ATOM      1  C   UNL     1       2.733   6.818  18.214  0.00  0.00    +0.000 C 
ENDROOT
BRANCH   1   4
ATOM      2  C   UNL     1       1.213   9.930  19.141  0.00  0.00    +0.000 A 
ATOM      3  C   UNL     1       1.847   9.182  18.169  0.00  0.00    +0.000 A 
ATOM      4  N   UNL     1       2.109   7.997  18.785  0.00  0.00    +0.000 N 
ATOM      5  N   UNL     1       1.706   8.006  20.065  0.00  0.00    +0.000 NA
ATOM      6  N   UNL     1       1.145   9.188  20.293  0.00  0.00    +0.000 NA
BRANCH   2  13
ATOM      7  C   UNL     1      -1.628  10.401  18.272  0.00  0.00    +0.000 C 
ATOM      8  C   UNL     1      -0.652  11.513  18.552  0.00  0.00    +0.000 A 
ATOM      9  C   UNL     1      -1.091  12.842  18.389  0.00  0.00    +0.000 A 
ATOM     10  C   UNL     1      -0.242  13.919  18.643  0.00  0.00    +0.000 A 
ATOM     11  C   UNL     1       1.062  13.687  19.062  0.00  0.00    +0.000 A 
ATOM     12  C   UNL     1       1.515  12.377  19.222  0.00  0.00    +0.000 A 
ATOM     13  C   UNL     1       0.676  11.274  18.971  0.00  0.00    +0.000 A 
ENDBRANCH   2  13
ENDBRANCH   1   4
BRANCH   1  14
ATOM     14  C   UNL     1       2.661   5.636  19.175  0.00  0.00    +0.000 C 
BRANCH  14  15
ATOM     15  C   UNL     1       2.625   4.268  18.480  0.00  0.00    +0.000 C 
BRANCH  15  16
ATOM     16  C   UNL     1       3.276   4.402  17.092  0.00  0.00    +0.000 C 
BRANCH  16  17
ATOM     17  C   UNL     1       4.687   3.814  16.998  0.00  0.00    +0.000 C 
BRANCH  17  18
ATOM     18  N   UNL     1       5.707   4.760  17.473  0.00  0.00    +0.000 N 
ATOM     19  C   UNL     1       6.182   5.728  16.604  0.00  0.00    +0.000 A 
ATOM     20  C   UNL     1       7.100   6.620  16.979  0.00  0.00    +0.000 A 
ATOM     21  C   UNL     1       7.680   6.553  18.296  0.00  0.00    +0.000 A 
ATOM     22  C   UNL     1       7.274   5.633  19.183  0.00  0.00    +0.000 A 
ATOM     23  C   UNL     1       6.161   4.674  18.801  0.00  0.00    +0.000 A 
ATOM     24  O   UNL     1       5.711   3.875  19.620  0.00  0.00    +0.000 OA
BRANCH  22  25
ATOM     25  O   UNL     1       7.846   5.525  20.445  0.00  0.00    +0.000 OA
ATOM     26  H   UNL     1       7.173   5.189  21.060  0.00  0.00    +0.000 HD
ENDBRANCH  22  25
ENDBRANCH  17  18
ENDBRANCH  16  17
ENDBRANCH  15  16
ENDBRANCH  14  15
ENDBRANCH   1  14
TORSDOF 8
ENDMDL
MODEL 7
REMARK VINA RESULT:      -7.4      6.194      8.869
REMARK  Name = 
REMARK  9 active torsions:
REMARK  status: ('A' for Active; 'I' for Inactive)
REMARK    1  A    between atoms: C_1  and  C_2
REMARK    2  A    between atoms: C_7  and  C_8
REMARK    3  A    between atoms: N_10  and  C_11
REMARK    4  A    between atoms: C_11  and  C_12
REMARK    5  A    between atoms: C_12  and  C_13
REMARK    6  A    between atoms: C_13  and  C_14
REMARK    7  A    between atoms: C_14  and  C_15
REMARK    8  A    between atoms: C_15  and  N_16
REMARK    9  A    between atoms: C_20  and  O_21
REMARK                            x       y       z     vdW  Elec       q    Type
REMARK                         _______ _______ _______ _____ _____    ______ ____
ROOT
ATOM      1  C   UNL     1       3.842   6.562  17.325  0.00  0.00    +0.000 C 
ENDROOT
BRANCH   1   4
ATOM      2  C   UNL     1       1.762   7.940  19.900  0.00  0.00    +0.000 A 
ATOM      3  C   UNL     1       2.455   8.143  18.723  0.00  0.00    +0.000 A 
ATOM      4  N   UNL     1       3.026   6.934  18.466  0.00  0.00    +0.000 N 
ATOM      5  N   UNL     1       2.748   6.041  19.429  0.00  0.00    +0.000 NA
ATOM      6  N   UNL     1       1.963   6.647  20.312  0.00  0.00    +0.000 NA
BRANCH   2  13
ATOM      7  C   UNL     1       0.175   9.996  18.382  0.00  0.00    +0.000 C 
ATOM      8  C   UNL     1       0.186   9.902  19.885  0.00  0.00    +0.000 A 
ATOM      9  C   UNL     1      -0.578  10.832  20.617  0.00  0.00    +0.000 A 
ATOM     10  C   UNL     1      -0.621  10.793  22.010  0.00  0.00    +0.000 A 
ATOM     11  C   UNL     1       0.101   9.826  22.697  0.00  0.00    +0.000 A 
ATOM     12  C   UNL     1       0.869   8.902  21.988  0.00  0.00    +0.000 A 
ATOM     13  C   UNL     1       0.928   8.922  20.581  0.00  0.00    +0.000 A 
ENDBRANCH   2  13
ENDBRANCH   1   4
BRANCH   1  14
ATOM     14  C   UNL     1       5.269   6.235  17.751  0.00  0.00    +0.000 C 
BRANCH  14  15
ATOM     15  C   UNL     1       5.590   4.734  17.760  0.00  0.00    +0.000 C 
BRANCH  15  16
ATOM     16  C   UNL     1       4.546   4.001  16.899  0.00  0.00    +0.000 C 
BRANCH  16  17
ATOM     17  C   UNL     1       4.159   2.615  17.422  0.00  0.00    +0.000 C 
BRANCH  17  18
ATOM     18  N   UNL     1       3.134   2.692  18.473  0.00  0.00    +0.000 N 
ATOM     19  C   UNL     1       1.816   2.914  18.112  0.00  0.00    +0.000 A 
ATOM     20  C   UNL     1       0.841   2.984  19.019  0.00  0.00    +0.000 A 
ATOM     21  C   UNL     1       1.149   2.899  20.423  0.00  0.00    +0.000 A 
ATOM     22  C   UNL     1       2.407   2.696  20.842  0.00  0.00    +0.000 A 
ATOM     23  C   UNL     1       3.512   2.518  19.816  0.00  0.00    +0.000 A 
ATOM     24  O   UNL     1       4.659   2.249  20.168  0.00  0.00    +0.000 OA
BRANCH  22  25
ATOM     25  O   UNL     1       2.734   2.650  22.192  0.00  0.00    +0.000 OA
ATOM     26  H   UNL     1       3.606   2.232  22.283  0.00  0.00    +0.000 HD
ENDBRANCH  22  25
ENDBRANCH  17  18
ENDBRANCH  16  17
ENDBRANCH  15  16
ENDBRANCH  14  15
ENDBRANCH   1  14
TORSDOF 8
ENDMDL
MODEL 8
REMARK VINA RESULT:      -7.3      1.222      1.842
REMARK  Name = 
REMARK  9 active torsions:
REMARK  status: ('A' for Active; 'I' for Inactive)
REMARK    1  A    between atoms: C_1  and  C_2
REMARK    2  A    between atoms: C_7  and  C_8
REMARK    3  A    between atoms: N_10  and  C_11
REMARK    4  A    between atoms: C_11  and  C_12
REMARK    5  A    between atoms: C_12  and  C_13
REMARK    6  A    between atoms: C_13  and  C_14
REMARK    7  A    between atoms: C_14  and  C_15
REMARK    8  A    between atoms: C_15  and  N_16
REMARK    9  A    between atoms: C_20  and  O_21
REMARK                            x       y       z     vdW  Elec       q    Type
REMARK                         _______ _______ _______ _____ _____    ______ ____
ROOT
ATOM      1  C   UNL     1       7.729   6.644  17.646  0.00  0.00    +0.000 C 
ENDROOT
BRANCH   1   4
ATOM      2  C   UNL     1       4.931   4.708  18.777  0.00  0.00    +0.000 A 
ATOM      3  C   UNL     1       5.491   5.482  17.781  0.00  0.00    +0.000 A 
ATOM      4  N   UNL     1       6.698   5.850  18.290  0.00  0.00    +0.000 N 
ATOM      5  N   UNL     1       6.876   5.376  19.533  0.00  0.00    +0.000 NA
ATOM      6  N   UNL     1       5.798   4.664  19.839  0.00  0.00    +0.000 NA
BRANCH   2  13
ATOM      7  C   UNL     1       2.410   5.961  19.838  0.00  0.00    +0.000 C 
ATOM      8  C   UNL     1       2.455   4.591  19.212  0.00  0.00    +0.000 A 
ATOM      9  C   UNL     1       1.256   3.856  19.130  0.00  0.00    +0.000 A 
ATOM     10  C   UNL     1       1.226   2.587  18.552  0.00  0.00    +0.000 A 
ATOM     11  C   UNL     1       2.394   2.030  18.049  0.00  0.00    +0.000 A 
ATOM     12  C   UNL     1       3.592   2.741  18.129  0.00  0.00    +0.000 A 
ATOM     13  C   UNL     1       3.647   4.023  18.708  0.00  0.00    +0.000 A 
ENDBRANCH   2  13
ENDBRANCH   1   4
BRANCH   1  14
ATOM     14  C   UNL     1       8.245   7.735  18.579  0.00  0.00    +0.000 C 
BRANCH  14  15
ATOM     15  C   UNL     1       8.132   9.153  18.003  0.00  0.00    +0.000 C 
BRANCH  15  16
ATOM     16  C   UNL     1       9.208  10.039  18.655  0.00  0.00    +0.000 C 
BRANCH  16  17
ATOM     17  C   UNL     1       9.743  11.151  17.749  0.00  0.00    +0.000 C 
BRANCH  17  18
ATOM     18  N   UNL     1      10.364  12.236  18.523  0.00  0.00    +0.000 N 
ATOM     19  C   UNL     1      11.680  12.104  18.931  0.00  0.00    +0.000 A 
ATOM     20  C   UNL     1      12.300  13.058  19.627  0.00  0.00    +0.000 A 
ATOM     21  C   UNL     1      11.583  14.238  20.038  0.00  0.00    +0.000 A 
ATOM     22  C   UNL     1      10.302  14.424  19.686  0.00  0.00    +0.000 A 
ATOM     23  C   UNL     1       9.614  13.390  18.812  0.00  0.00    +0.000 A 
ATOM     24  O   UNL     1       8.468  13.573  18.406  0.00  0.00    +0.000 OA
BRANCH  22  25
ATOM     25  O   UNL     1       9.579  15.535  20.103  0.00  0.00    +0.000 OA
ATOM     26  H   UNL     1      10.158  16.314  20.057  0.00  0.00    +0.000 HD
ENDBRANCH  22  25
ENDBRANCH  17  18
ENDBRANCH  16  17
ENDBRANCH  15  16
ENDBRANCH  14  15
ENDBRANCH   1  14
TORSDOF 8
ENDMDL
MODEL 9
REMARK VINA RESULT:      -7.3      6.120      9.398
REMARK  Name = 
REMARK  9 active torsions:
REMARK  status: ('A' for Active; 'I' for Inactive)
REMARK    1  A    between atoms: C_1  and  C_2
REMARK    2  A    between atoms: C_7  and  C_8
REMARK    3  A    between atoms: N_10  and  C_11
REMARK    4  A    between atoms: C_11  and  C_12
REMARK    5  A    between atoms: C_12  and  C_13
REMARK    6  A    between atoms: C_13  and  C_14
REMARK    7  A    between atoms: C_14  and  C_15
REMARK    8  A    between atoms: C_15  and  N_16
REMARK    9  A    between atoms: C_20  and  O_21
REMARK                            x       y       z     vdW  Elec       q    Type
REMARK                         _______ _______ _______ _____ _____    ______ ____
ROOT
ATOM      1  C   UNL     1       2.799   6.801  18.824  0.00  0.00    +0.000 C 
ENDROOT
BRANCH   1   4
ATOM      2  C   UNL     1       0.879   9.591  19.999  0.00  0.00    +0.000 A 
ATOM      3  C   UNL     1       1.530   8.410  20.298  0.00  0.00    +0.000 A 
ATOM      4  N   UNL     1       2.001   7.982  19.095  0.00  0.00    +0.000 N 
ATOM      5  N   UNL     1       1.643   8.809  18.100  0.00  0.00    +0.000 NA
ATOM      6  N   UNL     1       0.959   9.808  18.647  0.00  0.00    +0.000 NA
BRANCH   2  13
ATOM      7  C   UNL     1       1.000  12.583  19.711  0.00  0.00    +0.000 C 
ATOM      8  C   UNL     1       0.294  11.887  20.846  0.00  0.00    +0.000 A 
ATOM      9  C   UNL     1      -0.333  12.680  21.827  0.00  0.00    +0.000 A 
ATOM     10  C   UNL     1      -1.013  12.100  22.897  0.00  0.00    +0.000 A 
ATOM     11  C   UNL     1      -1.077  10.717  23.007  0.00  0.00    +0.000 A 
ATOM     12  C   UNL     1      -0.456   9.916  22.047  0.00  0.00    +0.000 A 
ATOM     13  C   UNL     1       0.237  10.480  20.959  0.00  0.00    +0.000 A 
ENDBRANCH   2  13
ENDBRANCH   1   4
BRANCH   1  14
ATOM     14  C   UNL     1       3.748   7.035  17.652  0.00  0.00    +0.000 C 
BRANCH  14  15
ATOM     15  C   UNL     1       4.854   5.978  17.524  0.00  0.00    +0.000 C 
BRANCH  15  16
ATOM     16  C   UNL     1       4.332   4.819  16.657  0.00  0.00    +0.000 C 
BRANCH  16  17
ATOM     17  C   UNL     1       4.453   3.439  17.309  0.00  0.00    +0.000 C 
BRANCH  17  18
ATOM     18  N   UNL     1       3.384   3.201  18.290  0.00  0.00    +0.000 N 
ATOM     19  C   UNL     1       2.064   3.277  17.878  0.00  0.00    +0.000 A 
ATOM     20  C   UNL     1       1.052   3.061  18.720  0.00  0.00    +0.000 A 
ATOM     21  C   UNL     1       1.309   2.809  20.114  0.00  0.00    +0.000 A 
ATOM     22  C   UNL     1       2.565   2.734  20.581  0.00  0.00    +0.000 A 
ATOM     23  C   UNL     1       3.726   2.882  19.616  0.00  0.00    +0.000 A 
ATOM     24  O   UNL     1       4.886   2.736  20.000  0.00  0.00    +0.000 OA
BRANCH  22  25
ATOM     25  O   UNL     1       2.836   2.531  21.929  0.00  0.00    +0.000 OA
ATOM     26  H   UNL     1       3.417   1.757  22.013  0.00  0.00    +0.000 HD
ENDBRANCH  22  25
ENDBRANCH  17  18
ENDBRANCH  16  17
ENDBRANCH  15  16
ENDBRANCH  14  15
ENDBRANCH   1  14
TORSDOF 8
ENDMDL
