MODEL 1
REMARK VINA RESULT:      -7.4      0.000      0.000
REMARK  Name = 
REMARK  3 active torsions:
REMARK  status: ('A' for Active; 'I' for Inactive)
REMARK    1  A    between atoms: C_1  and  N_2
REMARK    2  A    between atoms: C_3  and  C_4
REMARK    3  A    between atoms: C_6  and  C_7
REMARK                            x       y       z     vdW  Elec       q    Type
REMARK                         _______ _______ _______ _____ _____    ______ ____
ROOT
ATOM      1  C   UNL     1       5.236   4.749  17.663  0.00  0.00    +0.000 A 
ATOM      2  C   UNL     1       5.097   4.823  16.295  0.00  0.00    +0.000 A 
ATOM      3  C   UNL     1       6.397   4.667  15.786  0.00  0.00    +0.000 A 
ATOM      4  N   UNL     1       7.295   4.517  16.763  0.00  0.00    +0.000 NA
ATOM      5  O   UNL     1       6.565   4.562  17.936  0.00  0.00    +0.000 OA
ENDROOT
BRANCH   1   8
ATOM      6  C   UNL     1       4.215   2.369  19.357  0.00  0.00    +0.000 C 
ATOM      7  N   UNL     1       3.740   3.737  19.396  0.00  0.00    +0.000 N 
ATOM      8  C   UNL     1       4.210   4.807  18.659  0.00  0.00    +0.000 A 
ATOM      9  C   UNL     1       3.503   5.929  19.060  0.00  0.00    +0.000 A 
ATOM     10  C   UNL     1       2.583   5.525  20.045  0.00  0.00    +0.000 A 
ATOM     11 BR   UNL     1       1.386   6.712  20.868  0.00  0.00    +0.000 Br
ATOM     12  C   UNL     1       2.747   4.177  20.247  0.00  0.00    +0.000 A 
ATOM     13 BR   UNL     1       1.787   3.128  21.468  0.00  0.00    +0.000 Br
ENDBRANCH   1   8
BRANCH   3  14
ATOM     14  C   UNL     1       6.781   4.629  14.356  0.00  0.00    +0.000 A 
ATOM     15  C   UNL     1       6.282   3.801  13.372  0.00  0.00    +0.000 A 
ATOM     16  C   UNL     1       6.977   4.104  12.177  0.00  0.00    +0.000 A 
ATOM     17  C   UNL     1       7.880   5.105  12.470  0.00  0.00    +0.000 A 
ATOM     18  N   UNL     1       7.731   5.437  13.791  0.00  0.00    +0.000 N 
ATOM     19  H   UNL     1       8.251   6.146  14.293  0.00  0.00    +0.000 HD
ENDBRANCH   3  14
TORSDOF 2
ENDMDL
MODEL 2
REMARK VINA RESULT:      -7.1      0.654      1.881
REMARK  Name = 
REMARK  3 active torsions:
REMARK  status: ('A' for Active; 'I' for Inactive)
REMARK    1  A    between atoms: C_1  and  N_2
REMARK    2  A    between atoms: C_3  and  C_4
REMARK    3  A    between atoms: C_6  and  C_7
REMARK                            x       y       z     vdW  Elec       q    Type
REMARK                         _______ _______ _______ _____ _____    ______ ____
ROOT
ATOM      1  C   UNL     1       5.345   4.613  17.606  0.00  0.00    +0.000 A 
ATOM      2  C   UNL     1       5.184   4.679  16.240  0.00  0.00    +0.000 A 
ATOM      3  C   UNL     1       6.487   4.648  15.717  0.00  0.00    +0.000 A 
ATOM      4  N   UNL     1       7.407   4.579  16.683  0.00  0.00    +0.000 NA
ATOM      5  O   UNL     1       6.689   4.550  17.864  0.00  0.00    +0.000 OA
ENDROOT
BRANCH   1   8
ATOM      6  C   UNL     1       3.412   6.917  18.334  0.00  0.00    +0.000 C 
ATOM      7  N   UNL     1       3.484   5.609  18.951  0.00  0.00    +0.000 N 
ATOM      8  C   UNL     1       4.330   4.570  18.613  0.00  0.00    +0.000 A 
ATOM      9  C   UNL     1       4.011   3.495  19.428  0.00  0.00    +0.000 A 
ATOM     10  C   UNL     1       2.967   3.900  20.281  0.00  0.00    +0.000 A 
ATOM     11 BR   UNL     1       2.221   2.773  21.582  0.00  0.00    +0.000 Br
ATOM     12  C   UNL     1       2.648   5.198  19.969  0.00  0.00    +0.000 A 
ATOM     13 BR   UNL     1       1.309   6.222  20.787  0.00  0.00    +0.000 Br
ENDBRANCH   1   8
BRANCH   3  14
ATOM     14  C   UNL     1       6.857   4.653  14.282  0.00  0.00    +0.000 A 
ATOM     15  C   UNL     1       6.373   3.832  13.285  0.00  0.00    +0.000 A 
ATOM     16  C   UNL     1       7.045   4.182  12.090  0.00  0.00    +0.000 A 
ATOM     17  C   UNL     1       7.919   5.203  12.396  0.00  0.00    +0.000 A 
ATOM     18  N   UNL     1       7.775   5.502  13.725  0.00  0.00    +0.000 N 
ATOM     19  H   UNL     1       8.278   6.215  14.238  0.00  0.00    +0.000 HD
ENDBRANCH   3  14
TORSDOF 2
ENDMDL
MODEL 3
REMARK VINA RESULT:      -6.5      3.122      4.677
REMARK  Name = 
REMARK  3 active torsions:
REMARK  status: ('A' for Active; 'I' for Inactive)
REMARK    1  A    between atoms: C_1  and  N_2
REMARK    2  A    between atoms: C_3  and  C_4
REMARK    3  A    between atoms: C_6  and  C_7
REMARK                            x       y       z     vdW  Elec       q    Type
REMARK                         _______ _______ _______ _____ _____    ______ ____
ROOT
ATOM      1  C   UNL     1       2.532   6.722  19.058  0.00  0.00    +0.000 A 
ATOM      2  C   UNL     1       3.514   6.832  18.098  0.00  0.00    +0.000 A 
ATOM      3  C   UNL     1       3.821   5.510  17.736  0.00  0.00    +0.000 A 
ATOM      4  N   UNL     1       3.096   4.627  18.427  0.00  0.00    +0.000 NA
ATOM      5  O   UNL     1       2.285   5.388  19.248  0.00  0.00    +0.000 OA
ENDROOT
BRANCH   1   8
ATOM      6  C   UNL     1       1.689   9.428  17.815  0.00  0.00    +0.000 C 
ATOM      7  N   UNL     1       1.482   8.990  19.180  0.00  0.00    +0.000 N 
ATOM      8  C   UNL     1       1.836   7.774  19.732  0.00  0.00    +0.000 A 
ATOM      9  C   UNL     1       1.396   7.772  21.046  0.00  0.00    +0.000 A 
ATOM     10  C   UNL     1       0.780   9.013  21.293  0.00  0.00    +0.000 A 
ATOM     11 BR   UNL     1       0.050   9.473  22.959  0.00  0.00    +0.000 Br
ATOM     12  C   UNL     1       0.833   9.747  20.135  0.00  0.00    +0.000 A 
ATOM     13 BR   UNL     1       0.141  11.472  19.899  0.00  0.00    +0.000 Br
ENDBRANCH   1   8
BRANCH   3  14
ATOM     14  C   UNL     1       4.794   5.087  16.702  0.00  0.00    +0.000 A 
ATOM     15  C   UNL     1       5.312   5.846  15.672  0.00  0.00    +0.000 A 
ATOM     16  C   UNL     1       6.168   5.005  14.922  0.00  0.00    +0.000 A 
ATOM     17  C   UNL     1       6.145   3.761  15.515  0.00  0.00    +0.000 A 
ATOM     18  N   UNL     1       5.329   3.829  16.614  0.00  0.00    +0.000 N 
ATOM     19  H   UNL     1       5.121   3.074  17.255  0.00  0.00    +0.000 HD
ENDBRANCH   3  14
TORSDOF 2
ENDMDL
MODEL 4
REMARK VINA RESULT:      -6.4      1.198      2.179
REMARK  Name = 
REMARK  3 active torsions:
REMARK  status: ('A' for Active; 'I' for Inactive)
REMARK    1  A    between atoms: C_1  and  N_2
REMARK    2  A    between atoms: C_3  and  C_4
REMARK    3  A    between atoms: C_6  and  C_7
REMARK                            x       y       z     vdW  Elec       q    Type
REMARK                         _______ _______ _______ _____ _____    ______ ____
ROOT
ATOM      1  C   UNL     1       4.876   5.561  17.317  0.00  0.00    +0.000 A 
ATOM      2  C   UNL     1       4.827   4.883  16.119  0.00  0.00    +0.000 A 
ATOM      3  C   UNL     1       5.990   5.270  15.432  0.00  0.00    +0.000 A 
ATOM      4  N   UNL     1       6.715   6.140  16.140  0.00  0.00    +0.000 NA
ATOM      5  O   UNL     1       6.019   6.315  17.322  0.00  0.00    +0.000 OA
ENDROOT
BRANCH   1   8
ATOM      6  C   UNL     1       2.959   7.819  18.215  0.00  0.00    +0.000 C 
ATOM      7  N   UNL     1       3.114   6.513  18.819  0.00  0.00    +0.000 N 
ATOM      8  C   UNL     1       3.951   5.494  18.407  0.00  0.00    +0.000 A 
ATOM      9  C   UNL     1       3.729   4.411  19.243  0.00  0.00    +0.000 A 
ATOM     10  C   UNL     1       2.753   4.791  20.183  0.00  0.00    +0.000 A 
ATOM     11 BR   UNL     1       2.148   3.645  21.540  0.00  0.00    +0.000 Br
ATOM     12  C   UNL     1       2.379   6.081  19.904  0.00  0.00    +0.000 A 
ATOM     13 BR   UNL     1       1.091   7.073  20.837  0.00  0.00    +0.000 Br
ENDBRANCH   1   8
BRANCH   3  14
ATOM     14  C   UNL     1       6.427   4.783  14.104  0.00  0.00    +0.000 A 
ATOM     15  C   UNL     1       5.933   3.706  13.397  0.00  0.00    +0.000 A 
ATOM     16  C   UNL     1       6.686   3.607  12.203  0.00  0.00    +0.000 A 
ATOM     17  C   UNL     1       7.617   4.624  12.220  0.00  0.00    +0.000 A 
ATOM     18  N   UNL     1       7.432   5.351  13.366  0.00  0.00    +0.000 N 
ATOM     19  H   UNL     1       7.960   6.165  13.653  0.00  0.00    +0.000 HD
ENDBRANCH   3  14
TORSDOF 2
ENDMDL
MODEL 5
REMARK VINA RESULT:      -6.4      1.326      1.556
REMARK  Name = 
REMARK  3 active torsions:
REMARK  status: ('A' for Active; 'I' for Inactive)
REMARK    1  A    between atoms: C_1  and  N_2
REMARK    2  A    between atoms: C_3  and  C_4
REMARK    3  A    between atoms: C_6  and  C_7
REMARK                            x       y       z     vdW  Elec       q    Type
REMARK                         _______ _______ _______ _____ _____    ______ ____
ROOT
ATOM      1  C   UNL     1       5.214   5.420  16.804  0.00  0.00    +0.000 A 
ATOM      2  C   UNL     1       5.029   5.049  15.490  0.00  0.00    +0.000 A 
ATOM      3  C   UNL     1       6.320   4.793  14.997  0.00  0.00    +0.000 A 
ATOM      4  N   UNL     1       7.254   4.999  15.929  0.00  0.00    +0.000 NA
ATOM      5  O   UNL     1       6.559   5.385  17.060  0.00  0.00    +0.000 OA
ENDROOT
BRANCH   1   8
ATOM      6  C   UNL     1       3.984   3.474  18.872  0.00  0.00    +0.000 C 
ATOM      7  N   UNL     1       3.654   4.871  18.682  0.00  0.00    +0.000 N 
ATOM      8  C   UNL     1       4.218   5.749  17.776  0.00  0.00    +0.000 A 
ATOM      9  C   UNL     1       3.638   6.990  17.986  0.00  0.00    +0.000 A 
ATOM     10  C   UNL     1       2.699   6.853  19.025  0.00  0.00    +0.000 A 
ATOM     11 BR   UNL     1       1.646   8.279  19.639  0.00  0.00    +0.000 Br
ATOM     12  C   UNL     1       2.726   5.548  19.448  0.00  0.00    +0.000 A 
ATOM     13 BR   UNL     1       1.686   4.822  20.827  0.00  0.00    +0.000 Br
ENDBRANCH   1   8
BRANCH   3  14
ATOM     14  C   UNL     1       6.661   4.318  13.636  0.00  0.00    +0.000 A 
ATOM     15  C   UNL     1       7.491   4.925  12.716  0.00  0.00    +0.000 A 
ATOM     16  C   UNL     1       7.479   4.125  11.550  0.00  0.00    +0.000 A 
ATOM     17  C   UNL     1       6.641   3.056  11.793  0.00  0.00    +0.000 A 
ATOM     18  N   UNL     1       6.173   3.168  13.075  0.00  0.00    +0.000 N 
ATOM     19  H   UNL     1       5.543   2.527  13.542  0.00  0.00    +0.000 HD
ENDBRANCH   3  14
TORSDOF 2
ENDMDL
MODEL 6
REMARK VINA RESULT:      -6.1      4.565      8.057
REMARK  Name = 
REMARK  3 active torsions:
REMARK  status: ('A' for Active; 'I' for Inactive)
REMARK    1  A    between atoms: C_1  and  N_2
REMARK    2  A    between atoms: C_3  and  C_4
REMARK    3  A    between atoms: C_6  and  C_7
REMARK                            x       y       z     vdW  Elec       q    Type
REMARK                         _______ _______ _______ _____ _____    ______ ____
ROOT
ATOM      1  C   UNL     1       2.216   7.309  18.951  0.00  0.00    +0.000 A 
ATOM      2  C   UNL     1       1.694   7.550  20.203  0.00  0.00    +0.000 A 
ATOM      3  C   UNL     1       1.210   8.868  20.150  0.00  0.00    +0.000 A 
ATOM      4  N   UNL     1       1.422   9.424  18.955  0.00  0.00    +0.000 NA
ATOM      5  O   UNL     1       2.045   8.445  18.204  0.00  0.00    +0.000 OA
ENDROOT
BRANCH   1   8
ATOM      6  C   UNL     1       4.715   7.111  17.137  0.00  0.00    +0.000 C 
ATOM      7  N   UNL     1       3.903   6.018  17.627  0.00  0.00    +0.000 N 
ATOM      8  C   UNL     1       2.800   6.100  18.456  0.00  0.00    +0.000 A 
ATOM      9  C   UNL     1       2.374   4.807  18.709  0.00  0.00    +0.000 A 
ATOM     10  C   UNL     1       3.225   3.932  18.009  0.00  0.00    +0.000 A 
ATOM     11 BR   UNL     1       3.013   2.068  18.035  0.00  0.00    +0.000 Br
ATOM     12  C   UNL     1       4.164   4.690  17.356  0.00  0.00    +0.000 A 
ATOM     13 BR   UNL     1       5.555   4.030  16.289  0.00  0.00    +0.000 Br
ENDBRANCH   1   8
BRANCH   3  14
ATOM     14  C   UNL     1       0.513   9.591  21.238  0.00  0.00    +0.000 A 
ATOM     15  C   UNL     1       0.007   9.065  22.409  0.00  0.00    +0.000 A 
ATOM     16  C   UNL     1      -0.602  10.128  23.117  0.00  0.00    +0.000 A 
ATOM     17  C   UNL     1      -0.451  11.268  22.356  0.00  0.00    +0.000 A 
ATOM     18  N   UNL     1       0.254  10.936  21.230  0.00  0.00    +0.000 N 
ATOM     19  H   UNL     1       0.527  11.565  20.485  0.00  0.00    +0.000 HD
ENDBRANCH   3  14
TORSDOF 2
ENDMDL
MODEL 7
REMARK VINA RESULT:      -6.1      4.615      7.988
REMARK  Name = 
REMARK  3 active torsions:
REMARK  status: ('A' for Active; 'I' for Inactive)
REMARK    1  A    between atoms: C_1  and  N_2
REMARK    2  A    between atoms: C_3  and  C_4
REMARK    3  A    between atoms: C_6  and  C_7
REMARK                            x       y       z     vdW  Elec       q    Type
REMARK                         _______ _______ _______ _____ _____    ______ ____
ROOT
ATOM      1  C   UNL     1       2.305   7.568  18.806  0.00  0.00    +0.000 A 
ATOM      2  C   UNL     1       1.853   7.767  20.092  0.00  0.00    +0.000 A 
ATOM      3  C   UNL     1       1.186   9.002  20.058  0.00  0.00    +0.000 A 
ATOM      4  N   UNL     1       1.224   9.551  18.841  0.00  0.00    +0.000 NA
ATOM      5  O   UNL     1       1.919   8.648  18.058  0.00  0.00    +0.000 OA
ENDROOT
BRANCH   1   8
ATOM      6  C   UNL     1       1.600   4.595  19.300  0.00  0.00    +0.000 C 
ATOM      7  N   UNL     1       2.709   5.113  18.527  0.00  0.00    +0.000 N 
ATOM      8  C   UNL     1       3.014   6.439  18.285  0.00  0.00    +0.000 A 
ATOM      9  C   UNL     1       4.123   6.465  17.455  0.00  0.00    +0.000 A 
ATOM     10  C   UNL     1       4.501   5.132  17.206  0.00  0.00    +0.000 A 
ATOM     11 BR   UNL     1       5.979   4.675  16.144  0.00  0.00    +0.000 Br
ATOM     12  C   UNL     1       3.618   4.314  17.865  0.00  0.00    +0.000 A 
ATOM     13 BR   UNL     1       3.647   2.440  17.856  0.00  0.00    +0.000 Br
ENDBRANCH   1   8
BRANCH   3  14
ATOM     14  C   UNL     1       0.480   9.650  21.188  0.00  0.00    +0.000 A 
ATOM     15  C   UNL     1       0.063   9.066  22.366  0.00  0.00    +0.000 A 
ATOM     16  C   UNL     1      -0.596  10.066  23.119  0.00  0.00    +0.000 A 
ATOM     17  C   UNL     1      -0.563  11.227  22.377  0.00  0.00    +0.000 A 
ATOM     18  N   UNL     1       0.120  10.971  21.218  0.00  0.00    +0.000 N 
ATOM     19  H   UNL     1       0.313  11.632  20.476  0.00  0.00    +0.000 HD
ENDBRANCH   3  14
TORSDOF 2
ENDMDL
MODEL 8
REMARK VINA RESULT:      -6.0      4.864      7.231
REMARK  Name = 
REMARK  3 active torsions:
REMARK  status: ('A' for Active; 'I' for Inactive)
REMARK    1  A    between atoms: C_1  and  N_2
REMARK    2  A    between atoms: C_3  and  C_4
REMARK    3  A    between atoms: C_6  and  C_7
REMARK                            x       y       z     vdW  Elec       q    Type
REMARK                         _______ _______ _______ _____ _____    ______ ____
ROOT
ATOM      1  C   UNL     1       2.326   7.335  18.803  0.00  0.00    +0.000 A 
ATOM      2  C   UNL     1       1.897   8.453  18.121  0.00  0.00    +0.000 A 
ATOM      3  C   UNL     1       1.369   9.302  19.107  0.00  0.00    +0.000 A 
ATOM      4  N   UNL     1       1.447   8.757  20.323  0.00  0.00    +0.000 NA
ATOM      5  O   UNL     1       2.052   7.529  20.131  0.00  0.00    +0.000 OA
ENDROOT
BRANCH   1   8
ATOM      6  C   UNL     1       1.551   4.394  19.374  0.00  0.00    +0.000 C 
ATOM      7  N   UNL     1       2.646   4.865  18.552  0.00  0.00    +0.000 N 
ATOM      8  C   UNL     1       2.981   6.178  18.276  0.00  0.00    +0.000 A 
ATOM      9  C   UNL     1       4.059   6.156  17.406  0.00  0.00    +0.000 A 
ATOM     10  C   UNL     1       4.388   4.808  17.167  0.00  0.00    +0.000 A 
ATOM     11 BR   UNL     1       5.811   4.290  16.060  0.00  0.00    +0.000 Br
ATOM     12  C   UNL     1       3.506   4.028  17.871  0.00  0.00    +0.000 A 
ATOM     13 BR   UNL     1       3.479   2.154  17.894  0.00  0.00    +0.000 Br
ENDBRANCH   1   8
BRANCH   3  14
ATOM     14  C   UNL     1       0.814  10.659  18.891  0.00  0.00    +0.000 A 
ATOM     15  C   UNL     1      -0.498  11.001  18.637  0.00  0.00    +0.000 A 
ATOM     16  C   UNL     1      -0.539  12.404  18.464  0.00  0.00    +0.000 A 
ATOM     17  C   UNL     1       0.748  12.875  18.616  0.00  0.00    +0.000 A 
ATOM     18  N   UNL     1       1.558  11.808  18.905  0.00  0.00    +0.000 N 
ATOM     19  H   UNL     1       2.555  11.841  19.078  0.00  0.00    +0.000 HD
ENDBRANCH   3  14
TORSDOF 2
ENDMDL
MODEL 9
REMARK VINA RESULT:      -6.0      3.437      4.683
REMARK  Name = 
REMARK  3 active torsions:
REMARK  status: ('A' for Active; 'I' for Inactive)
REMARK    1  A    between atoms: C_1  and  N_2
REMARK    2  A    between atoms: C_3  and  C_4
REMARK    3  A    between atoms: C_6  and  C_7
REMARK                            x       y       z     vdW  Elec       q    Type
REMARK                         _______ _______ _______ _____ _____    ______ ____
ROOT
ATOM      1  C   UNL     1       2.607   7.382  18.281  0.00  0.00    +0.000 A 
ATOM      2  C   UNL     1       3.843   7.361  17.674  0.00  0.00    +0.000 A 
ATOM      3  C   UNL     1       4.050   6.020  17.312  0.00  0.00    +0.000 A 
ATOM      4  N   UNL     1       3.024   5.246  17.674  0.00  0.00    +0.000 NA
ATOM      5  O   UNL     1       2.119   6.102  18.274  0.00  0.00    +0.000 OA
ENDROOT
BRANCH   1   8
ATOM      6  C   UNL     1       1.420   7.628  21.128  0.00  0.00    +0.000 C 
ATOM      7  N   UNL     1       1.349   8.608  20.064  0.00  0.00    +0.000 N 
ATOM      8  C   UNL     1       1.898   8.511  18.799  0.00  0.00    +0.000 A 
ATOM      9  C   UNL     1       1.630   9.700  18.140  0.00  0.00    +0.000 A 
ATOM     10  C   UNL     1       0.895  10.519  19.017  0.00  0.00    +0.000 A 
ATOM     11 BR   UNL     1       0.285  12.228  18.542  0.00  0.00    +0.000 Br
ATOM     12  C   UNL     1       0.737   9.837  20.198  0.00  0.00    +0.000 A 
ATOM     13 BR   UNL     1      -0.150  10.475  21.720  0.00  0.00    +0.000 Br
ENDBRANCH   1   8
BRANCH   3  14
ATOM     14  C   UNL     1       5.223   5.477  16.587  0.00  0.00    +0.000 A 
ATOM     15  C   UNL     1       5.475   5.534  15.232  0.00  0.00    +0.000 A 
ATOM     16  C   UNL     1       6.693   4.850  15.004  0.00  0.00    +0.000 A 
ATOM     17  C   UNL     1       7.144   4.396  16.225  0.00  0.00    +0.000 A 
ATOM     18  N   UNL     1       6.258   4.809  17.185  0.00  0.00    +0.000 N 
ATOM     19  H   UNL     1       6.326   4.634  18.180  0.00  0.00    +0.000 HD
ENDBRANCH   3  14
TORSDOF 2
ENDMDL
