MODEL 1
REMARK VINA RESULT:      -8.2      0.000      0.000
REMARK  Name = 
REMARK  3 active torsions:
REMARK  status: ('A' for Active; 'I' for Inactive)
REMARK    1  A    between atoms: C_5  and  C_6
REMARK    2  A    between atoms: C_9  and  N_10
REMARK    3  A    between atoms: C_12  and  C_13
REMARK                            x       y       z     vdW  Elec       q    Type
REMARK                         _______ _______ _______ _____ _____    ______ ____
ROOT
ATOM      1  C   UNL     1       1.678   8.316  19.788  0.00  0.00    +0.000 A 
ATOM      2  C   UNL     1       2.037   7.043  20.263  0.00  0.00    +0.000 A 
ATOM      3  C   UNL     1       2.822   6.190  19.493  0.00  0.00    +0.000 A 
ATOM      4  C   UNL     1       3.279   6.587  18.224  0.00  0.00    +0.000 A 
ATOM      5  C   UNL     1       2.935   7.861  17.750  0.00  0.00    +0.000 A 
ATOM      6  C   UNL     1       2.141   8.716  18.520  0.00  0.00    +0.000 A 
ENDROOT
BRANCH   1  11
ATOM      7  N   UNL     1      -0.996  10.119  23.460  0.00  0.00    +0.000 N 
ATOM      8  C   UNL     1      -0.346  10.006  22.212  0.00  0.00    +0.000 A 
ATOM      9  N   UNL     1      -0.379  10.968  21.270  0.00  0.00    +0.000 NA
ATOM     10  C   UNL     1       0.357  10.470  20.259  0.00  0.00    +0.000 A 
ATOM     11  C   UNL     1       0.822   9.211  20.609  0.00  0.00    +0.000 A 
ATOM     12  N   UNL     1       0.368   8.929  21.844  0.00  0.00    +0.000 N 
ATOM     13  H   UNL     1      -1.530  10.968  23.691  0.00  0.00    +0.000 HD
ATOM     14  H   UNL     1      -0.934   9.355  24.147  0.00  0.00    +0.000 HD
ATOM     15  H   UNL     1       0.526   8.072  22.418  0.00  0.00    +0.000 HD
ENDBRANCH   1  11
BRANCH   4  16
ATOM     16  N   UNL     1       4.080   5.705  17.414  0.00  0.00    +0.000 N 
ATOM     17  C   UNL     1       4.565   5.942  16.181  0.00  0.00    +0.000 A 
ATOM     18  C   UNL     1       5.281   4.824  15.819  0.00  0.00    +0.000 A 
ATOM     19  N   UNL     1       5.208   3.938  16.834  0.00  0.00    +0.000 NA
ATOM     20  N   UNL     1       4.478   4.499  17.788  0.00  0.00    +0.000 NA
BRANCH  18  21
ATOM     21  C   UNL     1       6.020   4.602  14.561  0.00  0.00    +0.000 A 
ATOM     22  C   UNL     1       5.573   3.666  13.608  0.00  0.00    +0.000 A 
ATOM     23  C   UNL     1       6.281   3.476  12.418  0.00  0.00    +0.000 A 
ATOM     24  F   UNL     1       5.838   2.577  11.503  0.00  0.00    +0.000 F 
ATOM     25  C   UNL     1       7.442   4.211  12.169  0.00  0.00    +0.000 A 
ATOM     26  C   UNL     1       7.896   5.140  13.109  0.00  0.00    +0.000 A 
ATOM     27  F   UNL     1       9.022   5.853  12.869  0.00  0.00    +0.000 F 
ATOM     28  C   UNL     1       7.188   5.337  14.297  0.00  0.00    +0.000 A 
ENDBRANCH  18  21
ENDBRANCH   4  16
TORSDOF 3
ENDMDL
MODEL 2
REMARK VINA RESULT:      -8.2      0.628      1.885
REMARK  Name = 
REMARK  3 active torsions:
REMARK  status: ('A' for Active; 'I' for Inactive)
REMARK    1  A    between atoms: C_5  and  C_6
REMARK    2  A    between atoms: C_9  and  N_10
REMARK    3  A    between atoms: C_12  and  C_13
REMARK                            x       y       z     vdW  Elec       q    Type
REMARK                         _______ _______ _______ _____ _____    ______ ____
ROOT
ATOM      1  C   UNL     1       1.764   8.144  20.027  0.00  0.00    +0.000 A 
ATOM      2  C   UNL     1       2.119   6.852  20.451  0.00  0.00    +0.000 A 
ATOM      3  C   UNL     1       2.832   5.997  19.613  0.00  0.00    +0.000 A 
ATOM      4  C   UNL     1       3.216   6.411  18.327  0.00  0.00    +0.000 A 
ATOM      5  C   UNL     1       2.875   7.704  17.903  0.00  0.00    +0.000 A 
ATOM      6  C   UNL     1       2.155   8.560  18.739  0.00  0.00    +0.000 A 
ENDROOT
BRANCH   1  11
ATOM      7  N   UNL     1      -1.396  11.502  21.646  0.00  0.00    +0.000 N 
ATOM      8  C   UNL     1      -0.396  10.505  21.634  0.00  0.00    +0.000 A 
ATOM      9  N   UNL     1       0.197  10.038  22.750  0.00  0.00    +0.000 NA
ATOM     10  C   UNL     1       1.068   9.114  22.303  0.00  0.00    +0.000 A 
ATOM     11  C   UNL     1       0.986   9.040  20.920  0.00  0.00    +0.000 A 
ATOM     12  N   UNL     1       0.059   9.926  20.510  0.00  0.00    +0.000 N 
ATOM     13  H   UNL     1      -1.708  11.911  22.537  0.00  0.00    +0.000 HD
ATOM     14  H   UNL     1      -1.821  11.819  20.763  0.00  0.00    +0.000 HD
ATOM     15  H   UNL     1      -0.261  10.134  19.540  0.00  0.00    +0.000 HD
ENDBRANCH   1  11
BRANCH   4  16
ATOM     16  N   UNL     1       3.940   5.529  17.449  0.00  0.00    +0.000 N 
ATOM     17  C   UNL     1       4.515   5.837  16.271  0.00  0.00    +0.000 A 
ATOM     18  C   UNL     1       5.102   4.683  15.806  0.00  0.00    +0.000 A 
ATOM     19  N   UNL     1       4.864   3.706  16.706  0.00  0.00    +0.000 NA
ATOM     20  N   UNL     1       4.163   4.246  17.691  0.00  0.00    +0.000 NA
BRANCH  18  21
ATOM     21  C   UNL     1       5.872   4.509  14.559  0.00  0.00    +0.000 A 
ATOM     22  C   UNL     1       7.051   5.244  14.321  0.00  0.00    +0.000 A 
ATOM     23  C   UNL     1       7.772   5.060  13.138  0.00  0.00    +0.000 A 
ATOM     24  F   UNL     1       8.909   5.767  12.923  0.00  0.00    +0.000 F 
ATOM     25  C   UNL     1       7.325   4.147  12.181  0.00  0.00    +0.000 A 
ATOM     26  C   UNL     1       6.156   3.415  12.406  0.00  0.00    +0.000 A 
ATOM     27  F   UNL     1       5.721   2.530  11.477  0.00  0.00    +0.000 F 
ATOM     28  C   UNL     1       5.435   3.592  13.589  0.00  0.00    +0.000 A 
ENDBRANCH  18  21
ENDBRANCH   4  16
TORSDOF 3
ENDMDL
MODEL 3
REMARK VINA RESULT:      -8.2      0.635      1.327
REMARK  Name = 
REMARK  3 active torsions:
REMARK  status: ('A' for Active; 'I' for Inactive)
REMARK    1  A    between atoms: C_5  and  C_6
REMARK    2  A    between atoms: C_9  and  N_10
REMARK    3  A    between atoms: C_12  and  C_13
REMARK                            x       y       z     vdW  Elec       q    Type
REMARK                         _______ _______ _______ _____ _____    ______ ____
ROOT
ATOM      1  C   UNL     1       1.781   8.087  20.025  0.00  0.00    +0.000 A 
ATOM      2  C   UNL     1       2.063   8.471  18.703  0.00  0.00    +0.000 A 
ATOM      3  C   UNL     1       2.767   7.626  17.850  0.00  0.00    +0.000 A 
ATOM      4  C   UNL     1       3.207   6.366  18.291  0.00  0.00    +0.000 A 
ATOM      5  C   UNL     1       2.917   5.972  19.606  0.00  0.00    +0.000 A 
ATOM      6  C   UNL     1       2.216   6.822  20.465  0.00  0.00    +0.000 A 
ENDROOT
BRANCH   1  11
ATOM      7  N   UNL     1      -1.154  11.617  21.700  0.00  0.00    +0.000 N 
ATOM      8  C   UNL     1      -0.237  10.545  21.673  0.00  0.00    +0.000 A 
ATOM      9  N   UNL     1       0.281   9.985  22.784  0.00  0.00    +0.000 NA
ATOM     10  C   UNL     1       1.090   9.013  22.321  0.00  0.00    +0.000 A 
ATOM     11  C   UNL     1       1.047   9.004  20.934  0.00  0.00    +0.000 A 
ATOM     12  N   UNL     1       0.207   9.978  20.538  0.00  0.00    +0.000 N 
ATOM     13  H   UNL     1      -1.462  12.013  22.600  0.00  0.00    +0.000 HD
ATOM     14  H   UNL     1      -1.524  12.004  20.821  0.00  0.00    +0.000 HD
ATOM     15  H   UNL     1      -0.064  10.252  19.569  0.00  0.00    +0.000 HD
ENDBRANCH   1  11
BRANCH   4  16
ATOM     16  N   UNL     1       3.948   5.491  17.420  0.00  0.00    +0.000 N 
ATOM     17  C   UNL     1       4.524   5.804  16.245  0.00  0.00    +0.000 A 
ATOM     18  C   UNL     1       5.131   4.656  15.787  0.00  0.00    +0.000 A 
ATOM     19  N   UNL     1       4.904   3.679  16.690  0.00  0.00    +0.000 NA
ATOM     20  N   UNL     1       4.189   4.213  17.670  0.00  0.00    +0.000 NA
BRANCH  18  21
ATOM     21  C   UNL     1       5.910   4.489  14.545  0.00  0.00    +0.000 A 
ATOM     22  C   UNL     1       5.497   3.591  13.540  0.00  0.00    +0.000 A 
ATOM     23  C   UNL     1       6.243   3.452  12.366  0.00  0.00    +0.000 A 
ATOM     24  F   UNL     1       5.833   2.590  11.403  0.00  0.00    +0.000 F 
ATOM     25  C   UNL     1       7.407   4.202  12.183  0.00  0.00    +0.000 A 
ATOM     26  C   UNL     1       7.826   5.094  13.174  0.00  0.00    +0.000 A 
ATOM     27  F   UNL     1       8.956   5.821  12.998  0.00  0.00    +0.000 F 
ATOM     28  C   UNL     1       7.081   5.239  14.347  0.00  0.00    +0.000 A 
ENDBRANCH  18  21
ENDBRANCH   4  16
TORSDOF 3
ENDMDL
MODEL 4
REMARK VINA RESULT:      -8.1      3.423      5.192
REMARK  Name = 
REMARK  3 active torsions:
REMARK  status: ('A' for Active; 'I' for Inactive)
REMARK    1  A    between atoms: C_5  and  C_6
REMARK    2  A    between atoms: C_9  and  N_10
REMARK    3  A    between atoms: C_12  and  C_13
REMARK                            x       y       z     vdW  Elec       q    Type
REMARK                         _______ _______ _______ _____ _____    ______ ____
ROOT
ATOM      1  C   UNL     1      -1.200  11.431  21.956  0.00  0.00    +0.000 A 
ATOM      2  C   UNL     1      -1.099  11.823  20.610  0.00  0.00    +0.000 A 
ATOM      3  C   UNL     1      -0.300  11.112  19.718  0.00  0.00    +0.000 A 
ATOM      4  C   UNL     1       0.419   9.982  20.144  0.00  0.00    +0.000 A 
ATOM      5  C   UNL     1       0.312   9.580  21.484  0.00  0.00    +0.000 A 
ATOM      6  C   UNL     1      -0.484  10.296  22.381  0.00  0.00    +0.000 A 
ENDROOT
BRANCH   1  11
ATOM      7  N   UNL     1      -4.694  12.680  25.137  0.00  0.00    +0.000 N 
ATOM      8  C   UNL     1      -3.562  12.761  24.298  0.00  0.00    +0.000 A 
ATOM      9  N   UNL     1      -2.806  13.870  24.178  0.00  0.00    +0.000 NA
ATOM     10  C   UNL     1      -1.844  13.525  23.301  0.00  0.00    +0.000 A 
ATOM     11  C   UNL     1      -2.038  12.209  22.904  0.00  0.00    +0.000 A 
ATOM     12  N   UNL     1      -3.127  11.739  23.540  0.00  0.00    +0.000 N 
ATOM     13  H   UNL     1      -4.982  13.494  25.698  0.00  0.00    +0.000 HD
ATOM     14  H   UNL     1      -5.234  11.805  25.195  0.00  0.00    +0.000 HD
ATOM     15  H   UNL     1      -3.559  10.792  23.481  0.00  0.00    +0.000 HD
ENDBRANCH   1  11
BRANCH   4  16
ATOM     16  N   UNL     1       1.259   9.250  19.233  0.00  0.00    +0.000 N 
ATOM     17  C   UNL     1       1.755   8.010  19.395  0.00  0.00    +0.000 A 
ATOM     18  C   UNL     1       2.482   7.726  18.262  0.00  0.00    +0.000 A 
ATOM     19  N   UNL     1       2.413   8.799  17.446  0.00  0.00    +0.000 NA
ATOM     20  N   UNL     1       1.664   9.705  18.057  0.00  0.00    +0.000 NA
BRANCH  18  21
ATOM     21  C   UNL     1       3.208   6.479  17.952  0.00  0.00    +0.000 A 
ATOM     22  C   UNL     1       2.540   5.240  17.898  0.00  0.00    +0.000 A 
ATOM     23  C   UNL     1       3.242   4.070  17.595  0.00  0.00    +0.000 A 
ATOM     24  F   UNL     1       2.588   2.883  17.539  0.00  0.00    +0.000 F 
ATOM     25  C   UNL     1       4.615   4.123  17.346  0.00  0.00    +0.000 A 
ATOM     26  C   UNL     1       5.289   5.346  17.400  0.00  0.00    +0.000 A 
ATOM     27  F   UNL     1       6.621   5.398  17.160  0.00  0.00    +0.000 F 
ATOM     28  C   UNL     1       4.589   6.518  17.697  0.00  0.00    +0.000 A 
ENDBRANCH  18  21
ENDBRANCH   4  16
TORSDOF 3
ENDMDL
MODEL 5
REMARK VINA RESULT:      -8.1      3.285      5.428
REMARK  Name = 
REMARK  3 active torsions:
REMARK  status: ('A' for Active; 'I' for Inactive)
REMARK    1  A    between atoms: C_5  and  C_6
REMARK    2  A    between atoms: C_9  and  N_10
REMARK    3  A    between atoms: C_12  and  C_13
REMARK                            x       y       z     vdW  Elec       q    Type
REMARK                         _______ _______ _______ _____ _____    ______ ____
ROOT
ATOM      1  C   UNL     1      -1.224  11.500  21.954  0.00  0.00    +0.000 A 
ATOM      2  C   UNL     1      -1.317  11.753  20.575  0.00  0.00    +0.000 A 
ATOM      3  C   UNL     1      -0.519  11.061  19.668  0.00  0.00    +0.000 A 
ATOM      4  C   UNL     1       0.395  10.090  20.112  0.00  0.00    +0.000 A 
ATOM      5  C   UNL     1       0.484   9.825  21.487  0.00  0.00    +0.000 A 
ATOM      6  C   UNL     1      -0.312  10.523  22.399  0.00  0.00    +0.000 A 
ENDROOT
BRANCH   1  11
ATOM      7  N   UNL     1      -4.696  12.668  25.189  0.00  0.00    +0.000 N 
ATOM      8  C   UNL     1      -3.579  12.775  24.333  0.00  0.00    +0.000 A 
ATOM      9  N   UNL     1      -2.850  13.901  24.202  0.00  0.00    +0.000 NA
ATOM     10  C   UNL     1      -1.895  13.578  23.310  0.00  0.00    +0.000 A 
ATOM     11  C   UNL     1      -2.064  12.258  22.916  0.00  0.00    +0.000 A 
ATOM     12  N   UNL     1      -3.133  11.764  23.568  0.00  0.00    +0.000 N 
ATOM     13  H   UNL     1      -4.994  13.475  25.755  0.00  0.00    +0.000 HD
ATOM     14  H   UNL     1      -5.214  11.781  25.255  0.00  0.00    +0.000 HD
ATOM     15  H   UNL     1      -3.544  10.807  23.515  0.00  0.00    +0.000 HD
ENDBRANCH   1  11
BRANCH   4  16
ATOM     16  N   UNL     1       1.235   9.381  19.182  0.00  0.00    +0.000 N 
ATOM     17  C   UNL     1       1.780   8.160  19.339  0.00  0.00    +0.000 A 
ATOM     18  C   UNL     1       2.485   7.894  18.188  0.00  0.00    +0.000 A 
ATOM     19  N   UNL     1       2.355   8.956  17.367  0.00  0.00    +0.000 NA
ATOM     20  N   UNL     1       1.590   9.840  17.992  0.00  0.00    +0.000 NA
BRANCH  18  21
ATOM     21  C   UNL     1       3.246   6.671  17.867  0.00  0.00    +0.000 A 
ATOM     22  C   UNL     1       4.502   6.739  17.232  0.00  0.00    +0.000 A 
ATOM     23  C   UNL     1       5.213   5.571  16.943  0.00  0.00    +0.000 A 
ATOM     24  F   UNL     1       6.425   5.649  16.338  0.00  0.00    +0.000 F 
ATOM     25  C   UNL     1       4.679   4.326  17.279  0.00  0.00    +0.000 A 
ATOM     26  C   UNL     1       3.433   4.246  17.906  0.00  0.00    +0.000 A 
ATOM     27  F   UNL     1       2.914   3.038  18.231  0.00  0.00    +0.000 F 
ATOM     28  C   UNL     1       2.721   5.411  18.201  0.00  0.00    +0.000 A 
ENDBRANCH  18  21
ENDBRANCH   4  16
TORSDOF 3
ENDMDL
MODEL 6
REMARK VINA RESULT:      -8.1      4.181      6.161
REMARK  Name = 
REMARK  3 active torsions:
REMARK  status: ('A' for Active; 'I' for Inactive)
REMARK    1  A    between atoms: C_5  and  C_6
REMARK    2  A    between atoms: C_9  and  N_10
REMARK    3  A    between atoms: C_12  and  C_13
REMARK                            x       y       z     vdW  Elec       q    Type
REMARK                         _______ _______ _______ _____ _____    ______ ____
ROOT
ATOM      1  C   UNL     1      -1.166  11.334  22.379  0.00  0.00    +0.000 A 
ATOM      2  C   UNL     1      -0.689  10.211  23.078  0.00  0.00    +0.000 A 
ATOM      3  C   UNL     1       0.083   9.246  22.436  0.00  0.00    +0.000 A 
ATOM      4  C   UNL     1       0.407   9.378  21.075  0.00  0.00    +0.000 A 
ATOM      5  C   UNL     1      -0.056  10.502  20.375  0.00  0.00    +0.000 A 
ATOM      6  C   UNL     1      -0.836  11.468  21.017  0.00  0.00    +0.000 A 
ENDROOT
BRANCH   1  11
ATOM      7  N   UNL     1      -4.931  13.544  24.575  0.00  0.00    +0.000 N 
ATOM      8  C   UNL     1      -3.648  13.317  24.032  0.00  0.00    +0.000 A 
ATOM      9  N   UNL     1      -2.661  14.234  24.057  0.00  0.00    +0.000 NA
ATOM     10  C   UNL     1      -1.625  13.625  23.451  0.00  0.00    +0.000 A 
ATOM     11  C   UNL     1      -2.006  12.347  23.068  0.00  0.00    +0.000 A 
ATOM     12  N   UNL     1      -3.287  12.166  23.439  0.00  0.00    +0.000 N 
ATOM     13  H   UNL     1      -5.154  14.445  25.019  0.00  0.00    +0.000 HD
ATOM     14  H   UNL     1      -5.648  12.806  24.534  0.00  0.00    +0.000 HD
ATOM     15  H   UNL     1      -3.891  11.326  23.313  0.00  0.00    +0.000 HD
ENDBRANCH   1  11
BRANCH   4  16
ATOM     16  N   UNL     1       1.192   8.378  20.399  0.00  0.00    +0.000 N 
ATOM     17  C   UNL     1       1.399   7.104  20.781  0.00  0.00    +0.000 A 
ATOM     18  C   UNL     1       2.195   6.529  19.818  0.00  0.00    +0.000 A 
ATOM     19  N   UNL     1       2.456   7.465  18.882  0.00  0.00    +0.000 NA
ATOM     20  N   UNL     1       1.834   8.573  19.257  0.00  0.00    +0.000 NA
BRANCH  18  21
ATOM     21  C   UNL     1       2.685   5.137  19.774  0.00  0.00    +0.000 A 
ATOM     22  C   UNL     1       3.349   4.633  18.638  0.00  0.00    +0.000 A 
ATOM     23  C   UNL     1       3.814   3.315  18.618  0.00  0.00    +0.000 A 
ATOM     24  F   UNL     1       4.459   2.841  17.522  0.00  0.00    +0.000 F 
ATOM     25  C   UNL     1       3.619   2.487  19.725  0.00  0.00    +0.000 A 
ATOM     26  C   UNL     1       2.959   2.976  20.856  0.00  0.00    +0.000 A 
ATOM     27  F   UNL     1       2.768   2.173  21.930  0.00  0.00    +0.000 F 
ATOM     28  C   UNL     1       2.497   4.294  20.882  0.00  0.00    +0.000 A 
ENDBRANCH  18  21
ENDBRANCH   4  16
TORSDOF 3
ENDMDL
MODEL 7
REMARK VINA RESULT:      -8.0      0.605      2.131
REMARK  Name = 
REMARK  3 active torsions:
REMARK  status: ('A' for Active; 'I' for Inactive)
REMARK    1  A    between atoms: C_5  and  C_6
REMARK    2  A    between atoms: C_9  and  N_10
REMARK    3  A    between atoms: C_12  and  C_13
REMARK                            x       y       z     vdW  Elec       q    Type
REMARK                         _______ _______ _______ _____ _____    ______ ____
ROOT
ATOM      1  C   UNL     1       1.686   8.098  20.032  0.00  0.00    +0.000 A 
ATOM      2  C   UNL     1       2.080   8.529  18.753  0.00  0.00    +0.000 A 
ATOM      3  C   UNL     1       2.824   7.699  17.919  0.00  0.00    +0.000 A 
ATOM      4  C   UNL     1       3.193   6.408  18.336  0.00  0.00    +0.000 A 
ATOM      5  C   UNL     1       2.792   5.969  19.606  0.00  0.00    +0.000 A 
ATOM      6  C   UNL     1       2.050   6.803  20.447  0.00  0.00    +0.000 A 
ENDROOT
BRANCH   1  11
ATOM      7  N   UNL     1      -0.329  12.090  22.003  0.00  0.00    +0.000 N 
ATOM      8  C   UNL     1       0.024  10.741  21.788  0.00  0.00    +0.000 A 
ATOM      9  N   UNL     1      -0.413   9.728  22.562  0.00  0.00    +0.000 NA
ATOM     10  C   UNL     1       0.144   8.629  22.019  0.00  0.00    +0.000 A 
ATOM     11  C   UNL     1       0.910   8.999  20.923  0.00  0.00    +0.000 A 
ATOM     12  N   UNL     1       0.828  10.336  20.789  0.00  0.00    +0.000 N 
ATOM     13  H   UNL     1      -0.951  12.345  22.784  0.00  0.00    +0.000 HD
ATOM     14  H   UNL     1       0.028  12.825  21.377  0.00  0.00    +0.000 HD
ATOM     15  H   UNL     1       1.274  10.949  20.074  0.00  0.00    +0.000 HD
ENDBRANCH   1  11
BRANCH   4  16
ATOM     16  N   UNL     1       3.975   5.549  17.486  0.00  0.00    +0.000 N 
ATOM     17  C   UNL     1       4.509   5.850  16.288  0.00  0.00    +0.000 A 
ATOM     18  C   UNL     1       5.181   4.726  15.864  0.00  0.00    +0.000 A 
ATOM     19  N   UNL     1       5.034   3.774  16.809  0.00  0.00    +0.000 NA
ATOM     20  N   UNL     1       4.303   4.300  17.781  0.00  0.00    +0.000 NA
BRANCH  18  21
ATOM     21  C   UNL     1       5.948   4.559  14.614  0.00  0.00    +0.000 A 
ATOM     22  C   UNL     1       7.109   5.317  14.364  0.00  0.00    +0.000 A 
ATOM     23  C   UNL     1       7.828   5.140  13.178  0.00  0.00    +0.000 A 
ATOM     24  F   UNL     1       8.949   5.869  12.950  0.00  0.00    +0.000 F 
ATOM     25  C   UNL     1       7.395   4.210  12.230  0.00  0.00    +0.000 A 
ATOM     26  C   UNL     1       6.243   3.455  12.467  0.00  0.00    +0.000 A 
ATOM     27  F   UNL     1       5.822   2.555  11.547  0.00  0.00    +0.000 F 
ATOM     28  C   UNL     1       5.525   3.626  13.653  0.00  0.00    +0.000 A 
ENDBRANCH  18  21
ENDBRANCH   4  16
TORSDOF 3
ENDMDL
MODEL 8
REMARK VINA RESULT:      -8.0      4.485      9.882
REMARK  Name = 
REMARK  3 active torsions:
REMARK  status: ('A' for Active; 'I' for Inactive)
REMARK    1  A    between atoms: C_5  and  C_6
REMARK    2  A    between atoms: C_9  and  N_10
REMARK    3  A    between atoms: C_12  and  C_13
REMARK                            x       y       z     vdW  Elec       q    Type
REMARK                         _______ _______ _______ _____ _____    ______ ____
ROOT
ATOM      1  C   UNL     1       5.347   4.897  15.294  0.00  0.00    +0.000 A 
ATOM      2  C   UNL     1       5.290   6.269  15.596  0.00  0.00    +0.000 A 
ATOM      3  C   UNL     1       4.566   6.729  16.692  0.00  0.00    +0.000 A 
ATOM      4  C   UNL     1       3.879   5.829  17.526  0.00  0.00    +0.000 A 
ATOM      5  C   UNL     1       3.942   4.458  17.236  0.00  0.00    +0.000 A 
ATOM      6  C   UNL     1       4.663   3.996  16.133  0.00  0.00    +0.000 A 
ENDROOT
BRANCH   1  11
ATOM      7  N   UNL     1       6.857   2.191  11.515  0.00  0.00    +0.000 N 
ATOM      8  C   UNL     1       6.768   3.242  12.454  0.00  0.00    +0.000 A 
ATOM      9  N   UNL     1       7.574   4.321  12.436  0.00  0.00    +0.000 NA
ATOM     10  C   UNL     1       7.158   5.065  13.478  0.00  0.00    +0.000 A 
ATOM     11  C   UNL     1       6.105   4.419  14.109  0.00  0.00    +0.000 A 
ATOM     12  N   UNL     1       5.870   3.268  13.453  0.00  0.00    +0.000 N 
ATOM     13  H   UNL     1       7.564   2.223  10.768  0.00  0.00    +0.000 HD
ATOM     14  H   UNL     1       6.211   1.391  11.571  0.00  0.00    +0.000 HD
ATOM     15  H   UNL     1       5.151   2.539  13.651  0.00  0.00    +0.000 HD
ENDBRANCH   1  11
BRANCH   4  16
ATOM     16  N   UNL     1       3.116   6.297  18.653  0.00  0.00    +0.000 N 
ATOM     17  C   UNL     1       2.566   7.514  18.821  0.00  0.00    +0.000 A 
ATOM     18  C   UNL     1       1.922   7.490  20.037  0.00  0.00    +0.000 A 
ATOM     19  N   UNL     1       2.101   6.267  20.577  0.00  0.00    +0.000 NA
ATOM     20  N   UNL     1       2.824   5.564  19.717  0.00  0.00    +0.000 NA
BRANCH  18  21
ATOM     21  C   UNL     1       1.152   8.582  20.664  0.00  0.00    +0.000 A 
ATOM     22  C   UNL     1       0.643   9.649  19.897  0.00  0.00    +0.000 A 
ATOM     23  C   UNL     1      -0.091  10.670  20.507  0.00  0.00    +0.000 A 
ATOM     24  F   UNL     1      -0.584  11.689  19.759  0.00  0.00    +0.000 F 
ATOM     25  C   UNL     1      -0.321  10.641  21.884  0.00  0.00    +0.000 A 
ATOM     26  C   UNL     1       0.182   9.589  22.654  0.00  0.00    +0.000 A 
ATOM     27  F   UNL     1      -0.039   9.561  23.991  0.00  0.00    +0.000 F 
ATOM     28  C   UNL     1       0.912   8.563  22.048  0.00  0.00    +0.000 A 
ENDBRANCH  18  21
ENDBRANCH   4  16
TORSDOF 3
ENDMDL
MODEL 9
REMARK VINA RESULT:      -8.0      4.471      9.873
REMARK  Name = 
REMARK  3 active torsions:
REMARK  status: ('A' for Active; 'I' for Inactive)
REMARK    1  A    between atoms: C_5  and  C_6
REMARK    2  A    between atoms: C_9  and  N_10
REMARK    3  A    between atoms: C_12  and  C_13
REMARK                            x       y       z     vdW  Elec       q    Type
REMARK                         _______ _______ _______ _____ _____    ______ ____
ROOT
ATOM      1  C   UNL     1       5.400   4.901  15.228  0.00  0.00    +0.000 A 
ATOM      2  C   UNL     1       5.294   6.276  15.499  0.00  0.00    +0.000 A 
ATOM      3  C   UNL     1       4.578   6.733  16.601  0.00  0.00    +0.000 A 
ATOM      4  C   UNL     1       3.949   5.827  17.473  0.00  0.00    +0.000 A 
ATOM      5  C   UNL     1       4.062   4.453  17.215  0.00  0.00    +0.000 A 
ATOM      6  C   UNL     1       4.775   3.993  16.105  0.00  0.00    +0.000 A 
ENDROOT
BRANCH   1  11
ATOM      7  N   UNL     1       6.897   2.189  11.448  0.00  0.00    +0.000 N 
ATOM      8  C   UNL     1       6.806   3.245  12.380  0.00  0.00    +0.000 A 
ATOM      9  N   UNL     1       7.597   4.334  12.344  0.00  0.00    +0.000 NA
ATOM     10  C   UNL     1       7.185   5.080  13.387  0.00  0.00    +0.000 A 
ATOM     11  C   UNL     1       6.149   4.424  14.037  0.00  0.00    +0.000 A 
ATOM     12  N   UNL     1       5.921   3.265  13.392  0.00  0.00    +0.000 N 
ATOM     13  H   UNL     1       7.593   2.225  10.691  0.00  0.00    +0.000 HD
ATOM     14  H   UNL     1       6.263   1.380  11.518  0.00  0.00    +0.000 HD
ATOM     15  H   UNL     1       5.216   2.528  13.605  0.00  0.00    +0.000 HD
ENDBRANCH   1  11
BRANCH   4  16
ATOM     16  N   UNL     1       3.194   6.291  18.608  0.00  0.00    +0.000 N 
ATOM     17  C   UNL     1       2.608   7.492  18.764  0.00  0.00    +0.000 A 
ATOM     18  C   UNL     1       1.991   7.471  19.994  0.00  0.00    +0.000 A 
ATOM     19  N   UNL     1       2.222   6.265  20.553  0.00  0.00    +0.000 NA
ATOM     20  N   UNL     1       2.949   5.569  19.691  0.00  0.00    +0.000 NA
BRANCH  18  21
ATOM     21  C   UNL     1       1.198   8.549  20.617  0.00  0.00    +0.000 A 
ATOM     22  C   UNL     1       0.911   8.539  21.997  0.00  0.00    +0.000 A 
ATOM     23  C   UNL     1       0.166   9.572  22.571  0.00  0.00    +0.000 A 
ATOM     24  F   UNL     1      -0.098   9.557  23.902  0.00  0.00    +0.000 F 
ATOM     25  C   UNL     1      -0.303  10.622  21.778  0.00  0.00    +0.000 A 
ATOM     26  C   UNL     1      -0.026  10.640  20.408  0.00  0.00    +0.000 A 
ATOM     27  F   UNL     1      -0.482  11.657  19.638  0.00  0.00    +0.000 F 
ATOM     28  C   UNL     1       0.722   9.611  19.831  0.00  0.00    +0.000 A 
ENDBRANCH  18  21
ENDBRANCH   4  16
TORSDOF 3
ENDMDL
