MODEL 1
REMARK VINA RESULT:      -7.5      0.000      0.000
REMARK  Name = 
REMARK  15 active torsions:
REMARK  status: ('A' for Active; 'I' for Inactive)
REMARK    1  A    between atoms: C_2  and  C_3
REMARK    2  A    between atoms: C_2  and  C_19
REMARK    3  A    between atoms: C_6  and  O_7
REMARK    4  A    between atoms: O_7  and  C_8
REMARK    5  A    between atoms: C_9  and  C_10
REMARK    6  A    between atoms: C_11  and  C_12
REMARK    7  A    between atoms: C_12  and  C_13
REMARK    8  A    between atoms: C_13  and  C_14
REMARK    9  A    between atoms: N_16  and  O_17
REMARK   10  A    between atoms: C_21  and  O_22
REMARK   11  A    between atoms: O_22  and  C_23
REMARK   12  A    between atoms: C_24  and  O_25
REMARK   13  A    between atoms: O_25  and  C_26
REMARK   14  A    between atoms: C_27  and  O_28
REMARK   15  A    between atoms: O_28  and  C_29
REMARK                            x       y       z     vdW  Elec       q    Type
REMARK                         _______ _______ _______ _____ _____    ______ ____
ROOT
ATOM      1  C   UNL     1       1.124   9.513  19.237  0.00  0.00    +0.000 A 
ATOM      2  C   UNL     1       0.829   8.845  20.424  0.00  0.00    +0.000 A 
ATOM      3  C   UNL     1       1.419   7.608  20.692  0.00  0.00    +0.000 A 
ATOM      4  C   UNL     1       2.324   7.017  19.795  0.00  0.00    +0.000 A 
ATOM      5  C   UNL     1       2.634   7.699  18.607  0.00  0.00    +0.000 A 
ATOM      6  C   UNL     1       2.030   8.939  18.339  0.00  0.00    +0.000 A 
ENDROOT
BRANCH   1   8
ATOM      7  C   UNL     1       1.274  11.883  18.896  0.00  0.00    +0.000 C 
ATOM      8  C   UNL     1       0.480  10.795  18.899  0.00  0.00    +0.000 C 
BRANCH   8   9
ATOM      9  C   UNL     1      -0.963  10.937  18.573  0.00  0.00    +0.000 A 
ATOM     10  C   UNL     1      -1.798  11.716  19.372  0.00  0.00    +0.000 A 
ATOM     11  C   UNL     1      -3.164  11.842  19.102  0.00  0.00    +0.000 A 
ATOM     12  C   UNL     1      -3.723  11.180  17.985  0.00  0.00    +0.000 A 
ATOM     13  C   UNL     1      -2.886  10.407  17.151  0.00  0.00    +0.000 A 
ATOM     14  C   UNL     1      -1.515  10.314  17.450  0.00  0.00    +0.000 A 
BRANCH  11  15
ATOM     15  O   UNL     1      -4.001  12.579  19.913  0.00  0.00    +0.000 OA
ATOM     16  C   UNL     1      -3.393  13.156  21.069  0.00  0.00    +0.000 C 
ENDBRANCH  11  15
BRANCH  12  17
ATOM     17  O   UNL     1      -5.089  11.311  17.853  0.00  0.00    +0.000 OA
ATOM     18  C   UNL     1      -5.572  12.319  16.971  0.00  0.00    +0.000 C 
ENDBRANCH  12  17
BRANCH  13  19
ATOM     19  O   UNL     1      -3.451   9.731  16.099  0.00  0.00    +0.000 OA
ATOM     20  C   UNL     1      -3.147  10.165  14.778  0.00  0.00    +0.000 C 
ENDBRANCH  13  19
ENDBRANCH   8   9
ENDBRANCH   1   8
BRANCH   4  21
ATOM     21  O   UNL     1       2.770   5.806  20.254  0.00  0.00    +0.000 OA
ATOM     22  C   UNL     1       2.002   4.635  20.024  0.00  0.00    +0.000 C 
ENDBRANCH   4  21
BRANCH   5  23
ATOM     23  C   UNL     1       3.550   7.227  17.618  0.00  0.00    +0.000 C 
ATOM     24  C   UNL     1       4.320   6.793  16.800  0.00  0.00    +0.000 C 
BRANCH  24  25
ATOM     25  C   UNL     1       5.237   6.212  15.815  0.00  0.00    +0.000 C 
BRANCH  25  26
ATOM     26  C   UNL     1       6.218   5.281  16.508  0.00  0.00    +0.000 C 
BRANCH  26  27
ATOM     27  C   UNL     1       5.507   4.189  17.266  0.00  0.00    +0.000 C 
ATOM     28  O   UNL     1       4.612   3.487  16.805  0.00  0.00    +0.000 OA
ATOM     29  N   UNL     1       5.955   4.050  18.557  0.00  0.00    +0.000 N 
ATOM     30  H   UNL     1       6.797   4.478  18.925  0.00  0.00    +0.000 HD
BRANCH  29  31
ATOM     31  O   UNL     1       5.377   3.007  19.312  0.00  0.00    +0.000 OA
ATOM     32  H   UNL     1       4.710   3.485  19.853  0.00  0.00    +0.000 HD
ENDBRANCH  29  31
ENDBRANCH  26  27
ENDBRANCH  25  26
ENDBRANCH  24  25
ENDBRANCH   5  23
TORSDOF 11
ENDMDL
MODEL 2
REMARK VINA RESULT:      -7.5      0.582      2.413
REMARK  Name = 
REMARK  15 active torsions:
REMARK  status: ('A' for Active; 'I' for Inactive)
REMARK    1  A    between atoms: C_2  and  C_3
REMARK    2  A    between atoms: C_2  and  C_19
REMARK    3  A    between atoms: C_6  and  O_7
REMARK    4  A    between atoms: O_7  and  C_8
REMARK    5  A    between atoms: C_9  and  C_10
REMARK    6  A    between atoms: C_11  and  C_12
REMARK    7  A    between atoms: C_12  and  C_13
REMARK    8  A    between atoms: C_13  and  C_14
REMARK    9  A    between atoms: N_16  and  O_17
REMARK   10  A    between atoms: C_21  and  O_22
REMARK   11  A    between atoms: O_22  and  C_23
REMARK   12  A    between atoms: C_24  and  O_25
REMARK   13  A    between atoms: O_25  and  C_26
REMARK   14  A    between atoms: C_27  and  O_28
REMARK   15  A    between atoms: O_28  and  C_29
REMARK                            x       y       z     vdW  Elec       q    Type
REMARK                         _______ _______ _______ _____ _____    ______ ____
ROOT
ATOM      1  C   UNL     1       1.174   9.447  19.253  0.00  0.00    +0.000 A 
ATOM      2  C   UNL     1       0.850   8.812  20.451  0.00  0.00    +0.000 A 
ATOM      3  C   UNL     1       1.400   7.563  20.746  0.00  0.00    +0.000 A 
ATOM      4  C   UNL     1       2.292   6.927  19.867  0.00  0.00    +0.000 A 
ATOM      5  C   UNL     1       2.631   7.575  18.669  0.00  0.00    +0.000 A 
ATOM      6  C   UNL     1       2.067   8.828  18.372  0.00  0.00    +0.000 A 
ENDROOT
BRANCH   1   8
ATOM      7  C   UNL     1       1.412  11.792  18.805  0.00  0.00    +0.000 C 
ATOM      8  C   UNL     1       0.573  10.742  18.886  0.00  0.00    +0.000 C 
BRANCH   8   9
ATOM      9  C   UNL     1      -0.875  10.935  18.610  0.00  0.00    +0.000 A 
ATOM     10  C   UNL     1      -1.485  10.288  17.536  0.00  0.00    +0.000 A 
ATOM     11  C   UNL     1      -2.838  10.477  17.239  0.00  0.00    +0.000 A 
ATOM     12  C   UNL     1      -3.623  11.329  18.048  0.00  0.00    +0.000 A 
ATOM     13  C   UNL     1      -3.026  11.972  19.154  0.00  0.00    +0.000 A 
ATOM     14  C   UNL     1      -1.665  11.748  19.427  0.00  0.00    +0.000 A 
BRANCH  11  15
ATOM     15  O   UNL     1      -3.435   9.871  16.153  0.00  0.00    +0.000 OA
ATOM     16  C   UNL     1      -2.966  10.292  14.873  0.00  0.00    +0.000 C 
ENDBRANCH  11  15
BRANCH  12  17
ATOM     17  O   UNL     1      -4.923  11.501  17.625  0.00  0.00    +0.000 OA
ATOM     18  C   UNL     1      -5.949  10.842  18.359  0.00  0.00    +0.000 C 
ENDBRANCH  12  17
BRANCH  13  19
ATOM     19  O   UNL     1      -3.788  12.834  19.903  0.00  0.00    +0.000 OA
ATOM     20  C   UNL     1      -3.127  13.681  20.836  0.00  0.00    +0.000 C 
ENDBRANCH  13  19
ENDBRANCH   8   9
ENDBRANCH   1   8
BRANCH   4  21
ATOM     21  O   UNL     1       2.697   5.711  20.353  0.00  0.00    +0.000 OA
ATOM     22  C   UNL     1       1.823   4.595  20.285  0.00  0.00    +0.000 C 
ENDBRANCH   4  21
BRANCH   5  23
ATOM     23  C   UNL     1       3.537   7.056  17.695  0.00  0.00    +0.000 C 
ATOM     24  C   UNL     1       4.331   6.618  16.902  0.00  0.00    +0.000 C 
BRANCH  24  25
ATOM     25  C   UNL     1       5.328   6.067  15.979  0.00  0.00    +0.000 C 
BRANCH  25  26
ATOM     26  C   UNL     1       5.070   4.585  15.763  0.00  0.00    +0.000 C 
BRANCH  26  27
ATOM     27  C   UNL     1       4.751   3.882  17.057  0.00  0.00    +0.000 C 
ATOM     28  O   UNL     1       3.687   3.323  17.306  0.00  0.00    +0.000 OA
ATOM     29  N   UNL     1       5.783   3.928  17.963  0.00  0.00    +0.000 N 
ATOM     30  H   UNL     1       6.730   4.219  17.746  0.00  0.00    +0.000 HD
BRANCH  29  31
ATOM     31  O   UNL     1       5.582   3.239  19.178  0.00  0.00    +0.000 OA
ATOM     32  H   UNL     1       4.766   3.662  19.527  0.00  0.00    +0.000 HD
ENDBRANCH  29  31
ENDBRANCH  26  27
ENDBRANCH  25  26
ENDBRANCH  24  25
ENDBRANCH   5  23
TORSDOF 11
ENDMDL
MODEL 3
REMARK VINA RESULT:      -7.4      0.869      2.567
REMARK  Name = 
REMARK  15 active torsions:
REMARK  status: ('A' for Active; 'I' for Inactive)
REMARK    1  A    between atoms: C_2  and  C_3
REMARK    2  A    between atoms: C_2  and  C_19
REMARK    3  A    between atoms: C_6  and  O_7
REMARK    4  A    between atoms: O_7  and  C_8
REMARK    5  A    between atoms: C_9  and  C_10
REMARK    6  A    between atoms: C_11  and  C_12
REMARK    7  A    between atoms: C_12  and  C_13
REMARK    8  A    between atoms: C_13  and  C_14
REMARK    9  A    between atoms: N_16  and  O_17
REMARK   10  A    between atoms: C_21  and  O_22
REMARK   11  A    between atoms: O_22  and  C_23
REMARK   12  A    between atoms: C_24  and  O_25
REMARK   13  A    between atoms: O_25  and  C_26
REMARK   14  A    between atoms: C_27  and  O_28
REMARK   15  A    between atoms: O_28  and  C_29
REMARK                            x       y       z     vdW  Elec       q    Type
REMARK                         _______ _______ _______ _____ _____    ______ ____
ROOT
ATOM      1  C   UNL     1       0.866   9.575  19.428  0.00  0.00    +0.000 A 
ATOM      2  C   UNL     1       0.484   9.065  20.668  0.00  0.00    +0.000 A 
ATOM      3  C   UNL     1       0.982   7.833  21.097  0.00  0.00    +0.000 A 
ATOM      4  C   UNL     1       1.880   7.091  20.313  0.00  0.00    +0.000 A 
ATOM      5  C   UNL     1       2.278   7.614  19.072  0.00  0.00    +0.000 A 
ATOM      6  C   UNL     1       1.766   8.849  18.641  0.00  0.00    +0.000 A 
ENDROOT
BRANCH   1   8
ATOM      7  C   UNL     1       1.208  11.832  18.692  0.00  0.00    +0.000 C 
ATOM      8  C   UNL     1       0.320  10.846  18.922  0.00  0.00    +0.000 C 
BRANCH   8   9
ATOM      9  C   UNL     1      -1.125  11.084  18.663  0.00  0.00    +0.000 A 
ATOM     10  C   UNL     1      -1.745  10.528  17.545  0.00  0.00    +0.000 A 
ATOM     11  C   UNL     1      -3.095  10.761  17.264  0.00  0.00    +0.000 A 
ATOM     12  C   UNL     1      -3.866  11.564  18.135  0.00  0.00    +0.000 A 
ATOM     13  C   UNL     1      -3.258  12.114  19.285  0.00  0.00    +0.000 A 
ATOM     14  C   UNL     1      -1.901  11.847  19.539  0.00  0.00    +0.000 A 
BRANCH  11  15
ATOM     15  O   UNL     1      -3.702  10.247  16.138  0.00  0.00    +0.000 OA
ATOM     16  C   UNL     1      -2.975  10.396  14.919  0.00  0.00    +0.000 C 
ENDBRANCH  11  15
BRANCH  12  17
ATOM     17  O   UNL     1      -5.163  11.788  17.727  0.00  0.00    +0.000 OA
ATOM     18  C   UNL     1      -6.198  11.077  18.397  0.00  0.00    +0.000 C 
ENDBRANCH  12  17
BRANCH  13  19
ATOM     19  O   UNL     1      -4.005  12.931  20.096  0.00  0.00    +0.000 OA
ATOM     20  C   UNL     1      -3.519  13.210  21.404  0.00  0.00    +0.000 C 
ENDBRANCH  13  19
ENDBRANCH   8   9
ENDBRANCH   1   8
BRANCH   4  21
ATOM     21  O   UNL     1       2.229   5.915  20.923  0.00  0.00    +0.000 OA
ATOM     22  C   UNL     1       1.570   4.709  20.567  0.00  0.00    +0.000 C 
ENDBRANCH   4  21
BRANCH   5  23
ATOM     23  C   UNL     1       3.198   6.979  18.183  0.00  0.00    +0.000 C 
ATOM     24  C   UNL     1       4.002   6.467  17.446  0.00  0.00    +0.000 C 
BRANCH  24  25
ATOM     25  C   UNL     1       5.022   5.866  16.582  0.00  0.00    +0.000 C 
BRANCH  25  26
ATOM     26  C   UNL     1       6.337   5.754  17.336  0.00  0.00    +0.000 C 
BRANCH  26  27
ATOM     27  C   UNL     1       6.197   4.911  18.577  0.00  0.00    +0.000 C 
ATOM     28  O   UNL     1       6.540   5.261  19.703  0.00  0.00    +0.000 OA
ATOM     29  N   UNL     1       5.642   3.679  18.331  0.00  0.00    +0.000 N 
ATOM     30  H   UNL     1       5.188   3.412  17.465  0.00  0.00    +0.000 HD
BRANCH  29  31
ATOM     31  O   UNL     1       5.424   2.853  19.455  0.00  0.00    +0.000 OA
ATOM     32  H   UNL     1       4.445   2.869  19.540  0.00  0.00    +0.000 HD
ENDBRANCH  29  31
ENDBRANCH  26  27
ENDBRANCH  25  26
ENDBRANCH  24  25
ENDBRANCH   5  23
TORSDOF 11
ENDMDL
MODEL 4
REMARK VINA RESULT:      -7.4      1.811      3.118
REMARK  Name = 
REMARK  15 active torsions:
REMARK  status: ('A' for Active; 'I' for Inactive)
REMARK    1  A    between atoms: C_2  and  C_3
REMARK    2  A    between atoms: C_2  and  C_19
REMARK    3  A    between atoms: C_6  and  O_7
REMARK    4  A    between atoms: O_7  and  C_8
REMARK    5  A    between atoms: C_9  and  C_10
REMARK    6  A    between atoms: C_11  and  C_12
REMARK    7  A    between atoms: C_12  and  C_13
REMARK    8  A    between atoms: C_13  and  C_14
REMARK    9  A    between atoms: N_16  and  O_17
REMARK   10  A    between atoms: C_21  and  O_22
REMARK   11  A    between atoms: O_22  and  C_23
REMARK   12  A    between atoms: C_24  and  O_25
REMARK   13  A    between atoms: O_25  and  C_26
REMARK   14  A    between atoms: C_27  and  O_28
REMARK   15  A    between atoms: O_28  and  C_29
REMARK                            x       y       z     vdW  Elec       q    Type
REMARK                         _______ _______ _______ _____ _____    ______ ____
ROOT
ATOM      1  C   UNL     1       1.476   8.776  19.138  0.00  0.00    +0.000 A 
ATOM      2  C   UNL     1       1.132   8.416  20.440  0.00  0.00    +0.000 A 
ATOM      3  C   UNL     1       1.516   7.171  20.941  0.00  0.00    +0.000 A 
ATOM      4  C   UNL     1       2.259   6.265  20.167  0.00  0.00    +0.000 A 
ATOM      5  C   UNL     1       2.620   6.635  18.861  0.00  0.00    +0.000 A 
ATOM      6  C   UNL     1       2.223   7.886  18.359  0.00  0.00    +0.000 A 
ENDROOT
BRANCH   1   8
ATOM      7  C   UNL     1       2.021  10.898  18.159  0.00  0.00    +0.000 C 
ATOM      8  C   UNL     1       1.044  10.061  18.560  0.00  0.00    +0.000 C 
BRANCH   8   9
ATOM      9  C   UNL     1      -0.379  10.464  18.404  0.00  0.00    +0.000 A 
ATOM     10  C   UNL     1      -1.160   9.927  17.382  0.00  0.00    +0.000 A 
ATOM     11  C   UNL     1      -2.492  10.312  17.198  0.00  0.00    +0.000 A 
ATOM     12  C   UNL     1      -3.077  11.256  18.071  0.00  0.00    +0.000 A 
ATOM     13  C   UNL     1      -2.307  11.791  19.126  0.00  0.00    +0.000 A 
ATOM     14  C   UNL     1      -0.974  11.370  19.285  0.00  0.00    +0.000 A 
BRANCH  11  15
ATOM     15  O   UNL     1      -3.256   9.813  16.163  0.00  0.00    +0.000 OA
ATOM     16  C   UNL     1      -2.916  10.283  14.859  0.00  0.00    +0.000 C 
ENDBRANCH  11  15
BRANCH  12  17
ATOM     17  O   UNL     1      -4.369  11.619  17.756  0.00  0.00    +0.000 OA
ATOM     18  C   UNL     1      -5.426  10.946  18.431  0.00  0.00    +0.000 C 
ENDBRANCH  12  17
BRANCH  13  19
ATOM     19  O   UNL     1      -2.873  12.743  19.936  0.00  0.00    +0.000 OA
ATOM     20  C   UNL     1      -2.029  13.747  20.487  0.00  0.00    +0.000 C 
ENDBRANCH  13  19
ENDBRANCH   8   9
ENDBRANCH   1   8
BRANCH   4  21
ATOM     21  O   UNL     1       2.514   5.106  20.853  0.00  0.00    +0.000 OA
ATOM     22  C   UNL     1       1.564   4.052  20.841  0.00  0.00    +0.000 C 
ENDBRANCH   4  21
BRANCH   5  23
ATOM     23  C   UNL     1       3.389   5.825  17.972  0.00  0.00    +0.000 C 
ATOM     24  C   UNL     1       4.070   5.162  17.231  0.00  0.00    +0.000 C 
BRANCH  24  25
ATOM     25  C   UNL     1       4.944   4.375  16.357  0.00  0.00    +0.000 C 
BRANCH  25  26
ATOM     26  C   UNL     1       6.057   5.255  15.812  0.00  0.00    +0.000 C 
BRANCH  26  27
ATOM     27  C   UNL     1       6.463   4.839  14.421  0.00  0.00    +0.000 C 
ATOM     28  O   UNL     1       5.866   4.015  13.735  0.00  0.00    +0.000 OA
ATOM     29  N   UNL     1       7.596   5.477  13.978  0.00  0.00    +0.000 N 
ATOM     30  H   UNL     1       8.020   6.281  14.427  0.00  0.00    +0.000 HD
BRANCH  29  31
ATOM     31  O   UNL     1       8.007   5.183  12.660  0.00  0.00    +0.000 OA
ATOM     32  H   UNL     1       7.189   5.355  12.142  0.00  0.00    +0.000 HD
ENDBRANCH  29  31
ENDBRANCH  26  27
ENDBRANCH  25  26
ENDBRANCH  24  25
ENDBRANCH   5  23
TORSDOF 11
ENDMDL
MODEL 5
REMARK VINA RESULT:      -7.3      1.116      1.185
REMARK  Name = 
REMARK  15 active torsions:
REMARK  status: ('A' for Active; 'I' for Inactive)
REMARK    1  A    between atoms: C_2  and  C_3
REMARK    2  A    between atoms: C_2  and  C_19
REMARK    3  A    between atoms: C_6  and  O_7
REMARK    4  A    between atoms: O_7  and  C_8
REMARK    5  A    between atoms: C_9  and  C_10
REMARK    6  A    between atoms: C_11  and  C_12
REMARK    7  A    between atoms: C_12  and  C_13
REMARK    8  A    between atoms: C_13  and  C_14
REMARK    9  A    between atoms: N_16  and  O_17
REMARK   10  A    between atoms: C_21  and  O_22
REMARK   11  A    between atoms: O_22  and  C_23
REMARK   12  A    between atoms: C_24  and  O_25
REMARK   13  A    between atoms: O_25  and  C_26
REMARK   14  A    between atoms: C_27  and  O_28
REMARK   15  A    between atoms: O_28  and  C_29
REMARK                            x       y       z     vdW  Elec       q    Type
REMARK                         _______ _______ _______ _____ _____    ______ ____
ROOT
ATOM      1  C   UNL     1       1.042   9.523  19.371  0.00  0.00    +0.000 A 
ATOM      2  C   UNL     1       0.609   8.902  20.542  0.00  0.00    +0.000 A 
ATOM      3  C   UNL     1       1.120   7.652  20.895  0.00  0.00    +0.000 A 
ATOM      4  C   UNL     1       2.079   7.000  20.103  0.00  0.00    +0.000 A 
ATOM      5  C   UNL     1       2.528   7.634  18.933  0.00  0.00    +0.000 A 
ATOM      6  C   UNL     1       2.003   8.889  18.577  0.00  0.00    +0.000 A 
ENDROOT
BRANCH   1   8
ATOM      7  C   UNL     1       1.366  11.827  18.786  0.00  0.00    +0.000 C 
ATOM      8  C   UNL     1       0.486  10.819  18.942  0.00  0.00    +0.000 C 
BRANCH   8   9
ATOM      9  C   UNL     1      -0.958  11.057  18.682  0.00  0.00    +0.000 A 
ATOM     10  C   UNL     1      -1.687  11.935  19.482  0.00  0.00    +0.000 A 
ATOM     11  C   UNL     1      -3.053  12.152  19.275  0.00  0.00    +0.000 A 
ATOM     12  C   UNL     1      -3.720  11.484  18.223  0.00  0.00    +0.000 A 
ATOM     13  C   UNL     1      -2.989  10.611  17.388  0.00  0.00    +0.000 A 
ATOM     14  C   UNL     1      -1.615  10.427  17.621  0.00  0.00    +0.000 A 
BRANCH  11  15
ATOM     15  O   UNL     1      -3.787  12.989  20.090  0.00  0.00    +0.000 OA
ATOM     16  C   UNL     1      -3.941  12.559  21.442  0.00  0.00    +0.000 C 
ENDBRANCH  11  15
BRANCH  12  17
ATOM     17  O   UNL     1      -5.077  11.714  18.153  0.00  0.00    +0.000 OA
ATOM     18  C   UNL     1      -5.562  12.472  17.051  0.00  0.00    +0.000 C 
ENDBRANCH  12  17
BRANCH  13  19
ATOM     19  O   UNL     1      -3.659   9.933  16.401  0.00  0.00    +0.000 OA
ATOM     20  C   UNL     1      -3.382  10.267  15.046  0.00  0.00    +0.000 C 
ENDBRANCH  13  19
ENDBRANCH   8   9
ENDBRANCH   1   8
BRANCH   4  21
ATOM     21  O   UNL     1       2.429   5.786  20.632  0.00  0.00    +0.000 OA
ATOM     22  C   UNL     1       1.532   4.689  20.544  0.00  0.00    +0.000 C 
ENDBRANCH   4  21
BRANCH   5  23
ATOM     23  C   UNL     1       3.511   7.099  18.047  0.00  0.00    +0.000 C 
ATOM     24  C   UNL     1       4.361   6.633  17.331  0.00  0.00    +0.000 C 
BRANCH  24  25
ATOM     25  C   UNL     1       5.410   6.033  16.503  0.00  0.00    +0.000 C 
BRANCH  25  26
ATOM     26  C   UNL     1       6.775   6.334  17.099  0.00  0.00    +0.000 C 
BRANCH  26  27
ATOM     27  C   UNL     1       7.044   5.498  18.324  0.00  0.00    +0.000 C 
ATOM     28  O   UNL     1       6.660   4.343  18.480  0.00  0.00    +0.000 OA
ATOM     29  N   UNL     1       7.770   6.164  19.281  0.00  0.00    +0.000 N 
ATOM     30  H   UNL     1       8.254   7.043  19.132  0.00  0.00    +0.000 HD
BRANCH  29  31
ATOM     31  O   UNL     1       8.113   5.426  20.434  0.00  0.00    +0.000 OA
ATOM     32  H   UNL     1       8.924   5.887  20.745  0.00  0.00    +0.000 HD
ENDBRANCH  29  31
ENDBRANCH  26  27
ENDBRANCH  25  26
ENDBRANCH  24  25
ENDBRANCH   5  23
TORSDOF 11
ENDMDL
MODEL 6
REMARK VINA RESULT:      -7.3      3.912      9.922
REMARK  Name = 
REMARK  15 active torsions:
REMARK  status: ('A' for Active; 'I' for Inactive)
REMARK    1  A    between atoms: C_2  and  C_3
REMARK    2  A    between atoms: C_2  and  C_19
REMARK    3  A    between atoms: C_6  and  O_7
REMARK    4  A    between atoms: O_7  and  C_8
REMARK    5  A    between atoms: C_9  and  C_10
REMARK    6  A    between atoms: C_11  and  C_12
REMARK    7  A    between atoms: C_12  and  C_13
REMARK    8  A    between atoms: C_13  and  C_14
REMARK    9  A    between atoms: N_16  and  O_17
REMARK   10  A    between atoms: C_21  and  O_22
REMARK   11  A    between atoms: O_22  and  C_23
REMARK   12  A    between atoms: C_24  and  O_25
REMARK   13  A    between atoms: O_25  and  C_26
REMARK   14  A    between atoms: C_27  and  O_28
REMARK   15  A    between atoms: O_28  and  C_29
REMARK                            x       y       z     vdW  Elec       q    Type
REMARK                         _______ _______ _______ _____ _____    ______ ____
ROOT
ATOM      1  C   UNL     1       1.982   7.876  19.257  0.00  0.00    +0.000 A 
ATOM      2  C   UNL     1       2.238   8.596  18.091  0.00  0.00    +0.000 A 
ATOM      3  C   UNL     1       1.709   9.879  17.937  0.00  0.00    +0.000 A 
ATOM      4  C   UNL     1       0.930  10.478  18.940  0.00  0.00    +0.000 A 
ATOM      5  C   UNL     1       0.687   9.758  20.121  0.00  0.00    +0.000 A 
ATOM      6  C   UNL     1       1.214   8.464  20.268  0.00  0.00    +0.000 A 
ENDROOT
BRANCH   1   8
ATOM      7  C   UNL     1       2.008   5.820  20.494  0.00  0.00    +0.000 C 
ATOM      8  C   UNL     1       2.481   6.500  19.432  0.00  0.00    +0.000 C 
BRANCH   8   9
ATOM      9  C   UNL     1       3.455   5.849  18.516  0.00  0.00    +0.000 A 
ATOM     10  C   UNL     1       3.349   4.492  18.218  0.00  0.00    +0.000 A 
ATOM     11  C   UNL     1       4.270   3.851  17.382  0.00  0.00    +0.000 A 
ATOM     12  C   UNL     1       5.330   4.589  16.808  0.00  0.00    +0.000 A 
ATOM     13  C   UNL     1       5.436   5.970  17.081  0.00  0.00    +0.000 A 
ATOM     14  C   UNL     1       4.484   6.580  17.917  0.00  0.00    +0.000 A 
BRANCH  11  15
ATOM     15  O   UNL     1       4.192   2.500  17.117  0.00  0.00    +0.000 OA
ATOM     16  C   UNL     1       3.463   1.723  18.066  0.00  0.00    +0.000 C 
ENDBRANCH  11  15
BRANCH  12  17
ATOM     17  O   UNL     1       6.220   3.847  16.062  0.00  0.00    +0.000 OA
ATOM     18  C   UNL     1       6.136   3.946  14.645  0.00  0.00    +0.000 C 
ENDBRANCH  12  17
BRANCH  13  19
ATOM     19  O   UNL     1       6.497   6.663  16.557  0.00  0.00    +0.000 OA
ATOM     20  C   UNL     1       7.439   7.238  17.456  0.00  0.00    +0.000 C 
ENDBRANCH  13  19
ENDBRANCH   8   9
ENDBRANCH   1   8
BRANCH   4  21
ATOM     21  O   UNL     1       0.510  11.729  18.572  0.00  0.00    +0.000 OA
ATOM     22  C   UNL     1       1.356  12.850  18.777  0.00  0.00    +0.000 C 
ENDBRANCH   4  21
BRANCH   5  23
ATOM     23  C   UNL     1      -0.069  10.250  21.228  0.00  0.00    +0.000 C 
ATOM     24  C   UNL     1      -0.691  10.701  22.156  0.00  0.00    +0.000 C 
BRANCH  24  25
ATOM     25  C   UNL     1      -1.442  11.302  23.263  0.00  0.00    +0.000 C 
BRANCH  25  26
ATOM     26  C   UNL     1      -2.198  12.524  22.771  0.00  0.00    +0.000 C 
BRANCH  26  27
ATOM     27  C   UNL     1      -3.653  12.474  23.163  0.00  0.00    +0.000 C 
ATOM     28  O   UNL     1      -4.585  12.339  22.376  0.00  0.00    +0.000 OA
ATOM     29  N   UNL     1      -3.850  12.602  24.516  0.00  0.00    +0.000 N 
ATOM     30  H   UNL     1      -3.118  12.540  25.215  0.00  0.00    +0.000 HD
BRANCH  29  31
ATOM     31  O   UNL     1      -5.183  12.505  24.968  0.00  0.00    +0.000 OA
ATOM     32  H   UNL     1      -5.559  11.822  24.368  0.00  0.00    +0.000 HD
ENDBRANCH  29  31
ENDBRANCH  26  27
ENDBRANCH  25  26
ENDBRANCH  24  25
ENDBRANCH   5  23
TORSDOF 11
ENDMDL
MODEL 7
REMARK VINA RESULT:      -7.2      1.584      2.853
REMARK  Name = 
REMARK  15 active torsions:
REMARK  status: ('A' for Active; 'I' for Inactive)
REMARK    1  A    between atoms: C_2  and  C_3
REMARK    2  A    between atoms: C_2  and  C_19
REMARK    3  A    between atoms: C_6  and  O_7
REMARK    4  A    between atoms: O_7  and  C_8
REMARK    5  A    between atoms: C_9  and  C_10
REMARK    6  A    between atoms: C_11  and  C_12
REMARK    7  A    between atoms: C_12  and  C_13
REMARK    8  A    between atoms: C_13  and  C_14
REMARK    9  A    between atoms: N_16  and  O_17
REMARK   10  A    between atoms: C_21  and  O_22
REMARK   11  A    between atoms: O_22  and  C_23
REMARK   12  A    between atoms: C_24  and  O_25
REMARK   13  A    between atoms: O_25  and  C_26
REMARK   14  A    between atoms: C_27  and  O_28
REMARK   15  A    between atoms: O_28  and  C_29
REMARK                            x       y       z     vdW  Elec       q    Type
REMARK                         _______ _______ _______ _____ _____    ______ ____
ROOT
ATOM      1  C   UNL     1       1.265   9.339  19.198  0.00  0.00    +0.000 A 
ATOM      2  C   UNL     1       1.999   9.505  18.024  0.00  0.00    +0.000 A 
ATOM      3  C   UNL     1       2.839   8.482  17.580  0.00  0.00    +0.000 A 
ATOM      4  C   UNL     1       2.955   7.271  18.281  0.00  0.00    +0.000 A 
ATOM      5  C   UNL     1       2.202   7.098  19.453  0.00  0.00    +0.000 A 
ATOM      6  C   UNL     1       1.366   8.135  19.901  0.00  0.00    +0.000 A 
ENDROOT
BRANCH   1   8
ATOM      7  C   UNL     1       0.891  11.110  20.774  0.00  0.00    +0.000 C 
ATOM      8  C   UNL     1       0.409  10.418  19.723  0.00  0.00    +0.000 C 
BRANCH   8   9
ATOM      9  C   UNL     1      -0.924  10.766  19.163  0.00  0.00    +0.000 A 
ATOM     10  C   UNL     1      -1.733  11.710  19.793  0.00  0.00    +0.000 A 
ATOM     11  C   UNL     1      -3.002  12.033  19.301  0.00  0.00    +0.000 A 
ATOM     12  C   UNL     1      -3.482  11.405  18.129  0.00  0.00    +0.000 A 
ATOM     13  C   UNL     1      -2.664  10.465  17.466  0.00  0.00    +0.000 A 
ATOM     14  C   UNL     1      -1.389  10.176  17.985  0.00  0.00    +0.000 A 
BRANCH  11  15
ATOM     15  O   UNL     1      -3.822  12.936  19.944  0.00  0.00    +0.000 OA
ATOM     16  C   UNL     1      -3.352  13.411  21.205  0.00  0.00    +0.000 C 
ENDBRANCH  11  15
BRANCH  12  17
ATOM     17  O   UNL     1      -4.770  11.741  17.774  0.00  0.00    +0.000 OA
ATOM     18  C   UNL     1      -5.825  10.922  18.265  0.00  0.00    +0.000 C 
ENDBRANCH  12  17
BRANCH  13  19
ATOM     19  O   UNL     1      -3.161   9.828  16.357  0.00  0.00    +0.000 OA
ATOM     20  C   UNL     1      -2.880  10.383  15.078  0.00  0.00    +0.000 C 
ENDBRANCH  13  19
ENDBRANCH   8   9
ENDBRANCH   1   8
BRANCH   4  21
ATOM     21  O   UNL     1       3.839   6.419  17.671  0.00  0.00    +0.000 OA
ATOM     22  C   UNL     1       3.471   5.070  17.431  0.00  0.00    +0.000 C 
ENDBRANCH   4  21
BRANCH   5  23
ATOM     23  C   UNL     1       2.207   5.915  20.252  0.00  0.00    +0.000 C 
ATOM     24  C   UNL     1       2.203   4.895  20.894  0.00  0.00    +0.000 C 
BRANCH  24  25
ATOM     25  C   UNL     1       2.203   3.626  21.627  0.00  0.00    +0.000 C 
BRANCH  25  26
ATOM     26  C   UNL     1       1.366   2.599  20.882  0.00  0.00    +0.000 C 
BRANCH  26  27
ATOM     27  C   UNL     1       1.965   2.262  19.540  0.00  0.00    +0.000 C 
ATOM     28  O   UNL     1       1.341   2.235  18.483  0.00  0.00    +0.000 OA
ATOM     29  N   UNL     1       3.305   1.971  19.607  0.00  0.00    +0.000 N 
ATOM     30  H   UNL     1       3.896   2.147  20.412  0.00  0.00    +0.000 HD
BRANCH  29  31
ATOM     31  O   UNL     1       3.951   1.703  18.381  0.00  0.00    +0.000 OA
ATOM     32  H   UNL     1       3.829   2.546  17.890  0.00  0.00    +0.000 HD
ENDBRANCH  29  31
ENDBRANCH  26  27
ENDBRANCH  25  26
ENDBRANCH  24  25
ENDBRANCH   5  23
TORSDOF 11
ENDMDL
MODEL 8
REMARK VINA RESULT:      -7.2      1.859      2.182
REMARK  Name = 
REMARK  15 active torsions:
REMARK  status: ('A' for Active; 'I' for Inactive)
REMARK    1  A    between atoms: C_2  and  C_3
REMARK    2  A    between atoms: C_2  and  C_19
REMARK    3  A    between atoms: C_6  and  O_7
REMARK    4  A    between atoms: O_7  and  C_8
REMARK    5  A    between atoms: C_9  and  C_10
REMARK    6  A    between atoms: C_11  and  C_12
REMARK    7  A    between atoms: C_12  and  C_13
REMARK    8  A    between atoms: C_13  and  C_14
REMARK    9  A    between atoms: N_16  and  O_17
REMARK   10  A    between atoms: C_21  and  O_22
REMARK   11  A    between atoms: O_22  and  C_23
REMARK   12  A    between atoms: C_24  and  O_25
REMARK   13  A    between atoms: O_25  and  C_26
REMARK   14  A    between atoms: C_27  and  O_28
REMARK   15  A    between atoms: O_28  and  C_29
REMARK                            x       y       z     vdW  Elec       q    Type
REMARK                         _______ _______ _______ _____ _____    ______ ____
ROOT
ATOM      1  C   UNL     1       1.642   8.603  19.013  0.00  0.00    +0.000 A 
ATOM      2  C   UNL     1       1.300   8.202  20.304  0.00  0.00    +0.000 A 
ATOM      3  C   UNL     1       1.672   6.936  20.759  0.00  0.00    +0.000 A 
ATOM      4  C   UNL     1       2.403   6.050  19.950  0.00  0.00    +0.000 A 
ATOM      5  C   UNL     1       2.762   6.461  18.656  0.00  0.00    +0.000 A 
ATOM      6  C   UNL     1       2.376   7.734  18.200  0.00  0.00    +0.000 A 
ENDROOT
BRANCH   1   8
ATOM      7  C   UNL     1       2.191  10.688  17.959  0.00  0.00    +0.000 C 
ATOM      8  C   UNL     1       1.222   9.912  18.482  0.00  0.00    +0.000 C 
BRANCH   8   9
ATOM      9  C   UNL     1      -0.182  10.401  18.498  0.00  0.00    +0.000 A 
ATOM     10  C   UNL     1      -0.609  11.300  19.474  0.00  0.00    +0.000 A 
ATOM     11  C   UNL     1      -1.932  11.751  19.526  0.00  0.00    +0.000 A 
ATOM     12  C   UNL     1      -2.866  11.305  18.563  0.00  0.00    +0.000 A 
ATOM     13  C   UNL     1      -2.442  10.414  17.553  0.00  0.00    +0.000 A 
ATOM     14  C   UNL     1      -1.101   9.992  17.528  0.00  0.00    +0.000 A 
BRANCH  11  15
ATOM     15  O   UNL     1      -2.369  12.609  20.514  0.00  0.00    +0.000 OA
ATOM     16  C   UNL     1      -1.936  12.300  21.839  0.00  0.00    +0.000 C 
ENDBRANCH  11  15
BRANCH  12  17
ATOM     17  O   UNL     1      -4.155  11.753  18.750  0.00  0.00    +0.000 OA
ATOM     18  C   UNL     1      -5.008  11.802  17.612  0.00  0.00    +0.000 C 
ENDBRANCH  12  17
BRANCH  13  19
ATOM     19  O   UNL     1      -3.370   9.952  16.654  0.00  0.00    +0.000 OA
ATOM     20  C   UNL     1      -2.990   9.847  15.287  0.00  0.00    +0.000 C 
ENDBRANCH  13  19
ENDBRANCH   8   9
ENDBRANCH   1   8
BRANCH   4  21
ATOM     21  O   UNL     1       2.648   4.865  20.594  0.00  0.00    +0.000 OA
ATOM     22  C   UNL     1       1.565   4.060  21.034  0.00  0.00    +0.000 C 
ENDBRANCH   4  21
BRANCH   5  23
ATOM     23  C   UNL     1       3.518   5.674  17.736  0.00  0.00    +0.000 C 
ATOM     24  C   UNL     1       4.190   5.020  16.980  0.00  0.00    +0.000 C 
BRANCH  24  25
ATOM     25  C   UNL     1       5.047   4.222  16.099  0.00  0.00    +0.000 C 
BRANCH  25  26
ATOM     26  C   UNL     1       6.330   4.981  15.801  0.00  0.00    +0.000 C 
BRANCH  26  27
ATOM     27  C   UNL     1       6.822   4.714  14.402  0.00  0.00    +0.000 C 
ATOM     28  O   UNL     1       7.694   5.363  13.832  0.00  0.00    +0.000 OA
ATOM     29  N   UNL     1       6.185   3.657  13.800  0.00  0.00    +0.000 N 
ATOM     30  H   UNL     1       5.592   2.989  14.281  0.00  0.00    +0.000 HD
BRANCH  29  31
ATOM     31  O   UNL     1       6.632   3.308  12.507  0.00  0.00    +0.000 OA
ATOM     32  H   UNL     1       6.610   2.325  12.535  0.00  0.00    +0.000 HD
ENDBRANCH  29  31
ENDBRANCH  26  27
ENDBRANCH  25  26
ENDBRANCH  24  25
ENDBRANCH   5  23
TORSDOF 11
ENDMDL
MODEL 9
REMARK VINA RESULT:      -7.1      1.423      3.597
REMARK  Name = 
REMARK  15 active torsions:
REMARK  status: ('A' for Active; 'I' for Inactive)
REMARK    1  A    between atoms: C_2  and  C_3
REMARK    2  A    between atoms: C_2  and  C_19
REMARK    3  A    between atoms: C_6  and  O_7
REMARK    4  A    between atoms: O_7  and  C_8
REMARK    5  A    between atoms: C_9  and  C_10
REMARK    6  A    between atoms: C_11  and  C_12
REMARK    7  A    between atoms: C_12  and  C_13
REMARK    8  A    between atoms: C_13  and  C_14
REMARK    9  A    between atoms: N_16  and  O_17
REMARK   10  A    between atoms: C_21  and  O_22
REMARK   11  A    between atoms: O_22  and  C_23
REMARK   12  A    between atoms: C_24  and  O_25
REMARK   13  A    between atoms: O_25  and  C_26
REMARK   14  A    between atoms: C_27  and  O_28
REMARK   15  A    between atoms: O_28  and  C_29
REMARK                            x       y       z     vdW  Elec       q    Type
REMARK                         _______ _______ _______ _____ _____    ______ ____
ROOT
ATOM      1  C   UNL     1       1.350   9.249  19.196  0.00  0.00    +0.000 A 
ATOM      2  C   UNL     1       2.082   9.418  18.022  0.00  0.00    +0.000 A 
ATOM      3  C   UNL     1       2.862   8.369  17.531  0.00  0.00    +0.000 A 
ATOM      4  C   UNL     1       2.918   7.127  18.186  0.00  0.00    +0.000 A 
ATOM      5  C   UNL     1       2.166   6.952  19.359  0.00  0.00    +0.000 A 
ATOM      6  C   UNL     1       1.391   8.015  19.853  0.00  0.00    +0.000 A 
ENDROOT
BRANCH   1   8
ATOM      7  C   UNL     1       1.129  11.043  20.773  0.00  0.00    +0.000 C 
ATOM      8  C   UNL     1       0.557  10.351  19.769  0.00  0.00    +0.000 C 
BRANCH   8   9
ATOM      9  C   UNL     1      -0.804  10.724  19.302  0.00  0.00    +0.000 A 
ATOM     10  C   UNL     1      -1.373  10.091  18.199  0.00  0.00    +0.000 A 
ATOM     11  C   UNL     1      -2.640  10.444  17.723  0.00  0.00    +0.000 A 
ATOM     12  C   UNL     1      -3.379  11.455  18.378  0.00  0.00    +0.000 A 
ATOM     13  C   UNL     1      -2.827  12.089  19.512  0.00  0.00    +0.000 A 
ATOM     14  C   UNL     1      -1.555  11.698  19.966  0.00  0.00    +0.000 A 
BRANCH  11  15
ATOM     15  O   UNL     1      -3.190   9.848  16.607  0.00  0.00    +0.000 OA
ATOM     16  C   UNL     1      -2.696  10.311  15.351  0.00  0.00    +0.000 C 
ENDBRANCH  11  15
BRANCH  12  17
ATOM     17  O   UNL     1      -4.582  11.775  17.785  0.00  0.00    +0.000 OA
ATOM     18  C   UNL     1      -5.758  11.169  18.309  0.00  0.00    +0.000 C 
ENDBRANCH  12  17
BRANCH  13  19
ATOM     19  O   UNL     1      -3.534  13.102  20.108  0.00  0.00    +0.000 OA
ATOM     20  C   UNL     1      -4.196  12.830  21.338  0.00  0.00    +0.000 C 
ENDBRANCH  13  19
ENDBRANCH   8   9
ENDBRANCH   1   8
BRANCH   4  21
ATOM     21  O   UNL     1       3.749   6.253  17.537  0.00  0.00    +0.000 OA
ATOM     22  C   UNL     1       5.122   6.571  17.369  0.00  0.00    +0.000 C 
ENDBRANCH   4  21
BRANCH   5  23
ATOM     23  C   UNL     1       2.114   5.742  20.114  0.00  0.00    +0.000 C 
ATOM     24  C   UNL     1       2.097   4.735  20.776  0.00  0.00    +0.000 C 
BRANCH  24  25
ATOM     25  C   UNL     1       2.100   3.539  21.624  0.00  0.00    +0.000 C 
BRANCH  25  26
ATOM     26  C   UNL     1       3.191   2.584  21.166  0.00  0.00    +0.000 C 
BRANCH  26  27
ATOM     27  C   UNL     1       3.253   2.490  19.664  0.00  0.00    +0.000 C 
ATOM     28  O   UNL     1       2.376   2.003  18.957  0.00  0.00    +0.000 OA
ATOM     29  N   UNL     1       4.413   3.004  19.140  0.00  0.00    +0.000 N 
ATOM     30  H   UNL     1       5.081   3.568  19.656  0.00  0.00    +0.000 HD
BRANCH  29  31
ATOM     31  O   UNL     1       4.520   3.006  17.732  0.00  0.00    +0.000 OA
ATOM     32  H   UNL     1       3.624   3.297  17.454  0.00  0.00    +0.000 HD
ENDBRANCH  29  31
ENDBRANCH  26  27
ENDBRANCH  25  26
ENDBRANCH  24  25
ENDBRANCH   5  23
TORSDOF 11
ENDMDL
