MODEL 1
REMARK VINA RESULT:      -7.9      0.000      0.000
REMARK  Name = 
REMARK  7 active torsions:
REMARK  status: ('A' for Active; 'I' for Inactive)
REMARK    1  A    between atoms: C_1  and  O_2
REMARK    2  A    between atoms: O_2  and  C_3
REMARK    3  A    between atoms: C_8  and  N_9
REMARK    4  A    between atoms: C_13  and  C_15
REMARK    5  A    between atoms: C_15  and  C_16
REMARK    6  A    between atoms: C_16  and  C_17
REMARK    7  A    between atoms: C_27  and  C_28
REMARK                            x       y       z     vdW  Elec       q    Type
REMARK                         _______ _______ _______ _____ _____    ______ ____
ROOT
ATOM      1  C   UNL     1       0.772   8.352  21.202  0.00  0.00    +0.000 C 
ENDROOT
BRANCH   1   6
ATOM      2  N   UNL     1       4.079   6.402  17.800  0.00  0.00    +0.000 N 
ATOM      3  C   UNL     1       3.857   7.805  17.412  0.00  0.00    +0.000 C 
ATOM      4  C   UNL     1       2.408   8.197  17.755  0.00  0.00    +0.000 C 
ATOM      5  N   UNL     1       2.068   7.917  19.154  0.00  0.00    +0.000 N 
ATOM      6  C   UNL     1       1.140   8.734  19.785  0.00  0.00    +0.000 C 
ATOM      7  O   UNL     1       0.664   9.733  19.242  0.00  0.00    +0.000 OA
ATOM      8  C   UNL     1       2.424   6.555  19.614  0.00  0.00    +0.000 C 
ATOM      9  C   UNL     1       3.866   6.157  19.235  0.00  0.00    +0.000 C 
BRANCH   2  15
ATOM     10  C   UNL     1       4.451   4.260  16.638  0.00  0.00    +0.000 A 
ATOM     11  C   UNL     1       5.268   3.462  15.820  0.00  0.00    +0.000 A 
ATOM     12  C   UNL     1       6.500   3.929  15.368  0.00  0.00    +0.000 A 
ATOM     13  C   UNL     1       6.939   5.187  15.752  0.00  0.00    +0.000 A 
ATOM     14  C   UNL     1       6.142   5.977  16.585  0.00  0.00    +0.000 A 
ATOM     15  C   UNL     1       4.881   5.551  17.048  0.00  0.00    +0.000 A 
BRANCH  10  17
ATOM     16  C   UNL     1       3.128   2.656  17.814  0.00  0.00    +0.000 C 
ATOM     17  O   UNL     1       3.200   3.852  17.049  0.00  0.00    +0.000 OA
ENDBRANCH  10  17
ENDBRANCH   2  15
ENDBRANCH   1   6
BRANCH   1  18
ATOM     18  C   UNL     1       1.232   9.383  22.224  0.00  0.00    +0.000 C 
BRANCH  18  19
ATOM     19  C   UNL     1       0.141  10.356  22.493  0.00  0.00    +0.000 A 
ATOM     20  N   UNL     1      -1.006  10.096  23.093  0.00  0.00    +0.000 NA
ATOM     21  N   UNL     1      -1.746  11.253  23.119  0.00  0.00    +0.000 NA
ATOM     22  C   UNL     1      -1.037  12.191  22.532  0.00  0.00    +0.000 A 
ATOM     23  C   UNL     1      -1.291  13.544  22.269  0.00  0.00    +0.000 A 
ATOM     24  C   UNL     1      -0.360  14.260  21.633  0.00  0.00    +0.000 A 
ATOM     25  C   UNL     1       0.935  13.606  21.214  0.00  0.00    +0.000 A 
ATOM     26  N   UNL     1       1.894  14.374  20.564  0.00  0.00    +0.000 N 
ATOM     27  C   UNL     1       2.114  15.796  20.829  0.00  0.00    +0.000 C 
ATOM     28  C   UNL     1       2.001  16.566  19.518  0.00  0.00    +0.000 C 
ATOM     29  C   UNL     1       3.006  16.030  18.486  0.00  0.00    +0.000 C 
ATOM     30  C   UNL     1       2.829  16.742  17.146  0.00  0.00    +0.000 C 
ATOM     31  C   UNL     1       2.858  14.505  18.329  0.00  0.00    +0.000 C 
ATOM     32  C   UNL     1       2.903  13.782  19.682  0.00  0.00    +0.000 C 
ATOM     33  N   UNL     1       1.162  12.332  21.425  0.00  0.00    +0.000 NA
ATOM     34  N   UNL     1       0.167  11.677  22.100  0.00  0.00    +0.000 N 
ENDBRANCH  18  19
ENDBRANCH   1  18
TORSDOF 5
ENDMDL
MODEL 2
REMARK VINA RESULT:      -7.6      3.150      5.237
REMARK  Name = 
REMARK  7 active torsions:
REMARK  status: ('A' for Active; 'I' for Inactive)
REMARK    1  A    between atoms: C_1  and  O_2
REMARK    2  A    between atoms: O_2  and  C_3
REMARK    3  A    between atoms: C_8  and  N_9
REMARK    4  A    between atoms: C_13  and  C_15
REMARK    5  A    between atoms: C_15  and  C_16
REMARK    6  A    between atoms: C_16  and  C_17
REMARK    7  A    between atoms: C_27  and  C_28
REMARK                            x       y       z     vdW  Elec       q    Type
REMARK                         _______ _______ _______ _____ _____    ______ ____
ROOT
ATOM      1  C   UNL     1       0.933  10.863  18.707  0.00  0.00    +0.000 C 
ENDROOT
BRANCH   1   6
ATOM      2  N   UNL     1       2.233   5.960  19.471  0.00  0.00    +0.000 N 
ATOM      3  C   UNL     1       1.379   6.349  20.605  0.00  0.00    +0.000 C 
ATOM      4  C   UNL     1       1.621   7.835  20.929  0.00  0.00    +0.000 C 
ATOM      5  N   UNL     1       1.460   8.698  19.754  0.00  0.00    +0.000 N 
ATOM      6  C   UNL     1       1.007   9.996  19.945  0.00  0.00    +0.000 C 
ATOM      7  O   UNL     1       0.652  10.415  21.049  0.00  0.00    +0.000 OA
ATOM      8  C   UNL     1       2.190   8.241  18.550  0.00  0.00    +0.000 C 
ATOM      9  C   UNL     1       1.971   6.743  18.253  0.00  0.00    +0.000 C 
BRANCH   2  15
ATOM     10  C   UNL     1       4.227   4.518  19.320  0.00  0.00    +0.000 A 
ATOM     11  C   UNL     1       4.779   3.226  19.311  0.00  0.00    +0.000 A 
ATOM     12  C   UNL     1       3.963   2.101  19.403  0.00  0.00    +0.000 A 
ATOM     13  C   UNL     1       2.587   2.256  19.478  0.00  0.00    +0.000 A 
ATOM     14  C   UNL     1       2.030   3.538  19.463  0.00  0.00    +0.000 A 
ATOM     15  C   UNL     1       2.820   4.702  19.391  0.00  0.00    +0.000 A 
BRANCH  10  17
ATOM     16  C   UNL     1       5.676   5.952  18.075  0.00  0.00    +0.000 C 
ATOM     17  O   UNL     1       5.010   5.652  19.294  0.00  0.00    +0.000 OA
ENDBRANCH  10  17
ENDBRANCH   2  15
ENDBRANCH   1   6
BRANCH   1  18
ATOM     18  C   UNL     1       0.107  12.124  18.926  0.00  0.00    +0.000 C 
BRANCH  18  19
ATOM     19  C   UNL     1      -1.310  11.877  18.550  0.00  0.00    +0.000 A 
ATOM     20  N   UNL     1      -1.735  11.342  17.420  0.00  0.00    +0.000 NA
ATOM     21  N   UNL     1      -3.108  11.316  17.451  0.00  0.00    +0.000 NA
ATOM     22  C   UNL     1      -3.489  11.835  18.597  0.00  0.00    +0.000 A 
ATOM     23  C   UNL     1      -4.753  12.066  19.157  0.00  0.00    +0.000 A 
ATOM     24  C   UNL     1      -4.826  12.632  20.365  0.00  0.00    +0.000 A 
ATOM     25  C   UNL     1      -3.561  13.008  21.096  0.00  0.00    +0.000 A 
ATOM     26  N   UNL     1      -3.661  13.584  22.357  0.00  0.00    +0.000 N 
ATOM     27  C   UNL     1      -4.717  13.262  23.317  0.00  0.00    +0.000 C 
ATOM     28  C   UNL     1      -5.419  14.551  23.731  0.00  0.00    +0.000 C 
ATOM     29  C   UNL     1      -4.412  15.549  24.324  0.00  0.00    +0.000 C 
ATOM     30  C   UNL     1      -5.101  16.872  24.654  0.00  0.00    +0.000 C 
ATOM     31  C   UNL     1      -3.231  15.763  23.360  0.00  0.00    +0.000 C 
ATOM     32  C   UNL     1      -2.606  14.434  22.914  0.00  0.00    +0.000 C 
ATOM     33  N   UNL     1      -2.376  12.828  20.561  0.00  0.00    +0.000 NA
ATOM     34  N   UNL     1      -2.390  12.224  19.331  0.00  0.00    +0.000 N 
ENDBRANCH  18  19
ENDBRANCH   1  18
TORSDOF 5
ENDMDL
MODEL 3
REMARK VINA RESULT:      -7.5      2.282     10.070
REMARK  Name = 
REMARK  7 active torsions:
REMARK  status: ('A' for Active; 'I' for Inactive)
REMARK    1  A    between atoms: C_1  and  O_2
REMARK    2  A    between atoms: O_2  and  C_3
REMARK    3  A    between atoms: C_8  and  N_9
REMARK    4  A    between atoms: C_13  and  C_15
REMARK    5  A    between atoms: C_15  and  C_16
REMARK    6  A    between atoms: C_16  and  C_17
REMARK    7  A    between atoms: C_27  and  C_28
REMARK                            x       y       z     vdW  Elec       q    Type
REMARK                         _______ _______ _______ _____ _____    ______ ____
ROOT
ATOM      1  C   UNL     1       2.423   6.840  20.681  0.00  0.00    +0.000 C 
ENDROOT
BRANCH   1   6
ATOM      2  N   UNL     1      -0.490  10.881  21.906  0.00  0.00    +0.000 N 
ATOM      3  C   UNL     1      -0.699  10.634  20.470  0.00  0.00    +0.000 C 
ATOM      4  C   UNL     1       0.609  10.098  19.857  0.00  0.00    +0.000 C 
ATOM      5  N   UNL     1       1.129   8.933  20.581  0.00  0.00    +0.000 N 
ATOM      6  C   UNL     1       1.844   7.979  19.869  0.00  0.00    +0.000 C 
ATOM      7  O   UNL     1       1.977   8.031  18.645  0.00  0.00    +0.000 OA
ATOM      8  C   UNL     1       1.205   9.104  22.049  0.00  0.00    +0.000 C 
ATOM      9  C   UNL     1      -0.096   9.674  22.651  0.00  0.00    +0.000 C 
BRANCH   2  15
ATOM     10  C   UNL     1      -0.530  13.263  22.541  0.00  0.00    +0.000 A 
ATOM     11  C   UNL     1      -1.203  14.332  23.158  0.00  0.00    +0.000 A 
ATOM     12  C   UNL     1      -2.438  14.139  23.772  0.00  0.00    +0.000 A 
ATOM     13  C   UNL     1      -3.000  12.871  23.799  0.00  0.00    +0.000 A 
ATOM     14  C   UNL     1      -2.326  11.799  23.208  0.00  0.00    +0.000 A 
ATOM     15  C   UNL     1      -1.085  11.954  22.560  0.00  0.00    +0.000 A 
BRANCH  10  17
ATOM     16  C   UNL     1       1.191  14.751  21.815  0.00  0.00    +0.000 C 
ATOM     17  O   UNL     1       0.662  13.433  21.871  0.00  0.00    +0.000 OA
ENDBRANCH  10  17
ENDBRANCH   2  15
ENDBRANCH   1   6
BRANCH   1  18
ATOM     18  C   UNL     1       1.398   5.753  20.976  0.00  0.00    +0.000 C 
BRANCH  18  19
ATOM     19  C   UNL     1       2.068   4.430  21.065  0.00  0.00    +0.000 A 
ATOM     20  N   UNL     1       1.991   3.583  22.076  0.00  0.00    +0.000 NA
ATOM     21  N   UNL     1       2.776   2.495  21.781  0.00  0.00    +0.000 NA
ATOM     22  C   UNL     1       3.315   2.702  20.601  0.00  0.00    +0.000 A 
ATOM     23  C   UNL     1       4.195   1.944  19.816  0.00  0.00    +0.000 A 
ATOM     24  C   UNL     1       4.584   2.431  18.635  0.00  0.00    +0.000 A 
ATOM     25  C   UNL     1       4.074   3.774  18.171  0.00  0.00    +0.000 A 
ATOM     26  N   UNL     1       4.483   4.255  16.933  0.00  0.00    +0.000 N 
ATOM     27  C   UNL     1       4.761   3.400  15.779  0.00  0.00    +0.000 C 
ATOM     28  C   UNL     1       6.172   3.688  15.279  0.00  0.00    +0.000 C 
ATOM     29  C   UNL     1       6.327   5.175  14.920  0.00  0.00    +0.000 C 
ATOM     30  C   UNL     1       7.765   5.478  14.505  0.00  0.00    +0.000 C 
ATOM     31  C   UNL     1       5.889   6.063  16.099  0.00  0.00    +0.000 C 
ATOM     32  C   UNL     1       4.494   5.685  16.615  0.00  0.00    +0.000 C 
ATOM     33  N   UNL     1       3.280   4.504  18.918  0.00  0.00    +0.000 NA
ATOM     34  N   UNL     1       2.914   3.923  20.102  0.00  0.00    +0.000 N 
ENDBRANCH  18  19
ENDBRANCH   1  18
TORSDOF 5
ENDMDL
MODEL 4
REMARK VINA RESULT:      -7.3      5.729     11.323
REMARK  Name = 
REMARK  7 active torsions:
REMARK  status: ('A' for Active; 'I' for Inactive)
REMARK    1  A    between atoms: C_1  and  O_2
REMARK    2  A    between atoms: O_2  and  C_3
REMARK    3  A    between atoms: C_8  and  N_9
REMARK    4  A    between atoms: C_13  and  C_15
REMARK    5  A    between atoms: C_15  and  C_16
REMARK    6  A    between atoms: C_16  and  C_17
REMARK    7  A    between atoms: C_27  and  C_28
REMARK                            x       y       z     vdW  Elec       q    Type
REMARK                         _______ _______ _______ _____ _____    ______ ____
ROOT
ATOM      1  C   UNL     1       8.047   9.032  17.725  0.00  0.00    +0.000 C 
ENDROOT
BRANCH   1   6
ATOM      2  N   UNL     1       9.262  14.007  18.029  0.00  0.00    +0.000 N 
ATOM      3  C   UNL     1      10.277  13.279  18.808  0.00  0.00    +0.000 C 
ATOM      4  C   UNL     1       9.622  12.047  19.460  0.00  0.00    +0.000 C 
ATOM      5  N   UNL     1       8.919  11.206  18.487  0.00  0.00    +0.000 N 
ATOM      6  C   UNL     1       8.850   9.839  18.722  0.00  0.00    +0.000 C 
ATOM      7  O   UNL     1       9.434   9.303  19.666  0.00  0.00    +0.000 OA
ATOM      8  C   UNL     1       8.002  11.940  17.586  0.00  0.00    +0.000 C 
ATOM      9  C   UNL     1       8.654  13.193  16.964  0.00  0.00    +0.000 C 
BRANCH   2  15
ATOM     10  C   UNL     1       8.240  16.187  18.561  0.00  0.00    +0.000 A 
ATOM     11  C   UNL     1       8.308  17.590  18.517  0.00  0.00    +0.000 A 
ATOM     12  C   UNL     1       9.381  18.233  17.904  0.00  0.00    +0.000 A 
ATOM     13  C   UNL     1      10.382  17.481  17.307  0.00  0.00    +0.000 A 
ATOM     14  C   UNL     1      10.308  16.085  17.327  0.00  0.00    +0.000 A 
ATOM     15  C   UNL     1       9.251  15.395  17.952  0.00  0.00    +0.000 A 
BRANCH  10  17
ATOM     16  C   UNL     1       6.581  16.205  20.280  0.00  0.00    +0.000 C 
ATOM     17  O   UNL     1       7.225  15.520  19.214  0.00  0.00    +0.000 OA
ENDBRANCH  10  17
ENDBRANCH   2  15
ENDBRANCH   1   6
BRANCH   1  18
ATOM     18  C   UNL     1       7.728   7.631  18.230  0.00  0.00    +0.000 C 
BRANCH  18  19
ATOM     19  C   UNL     1       7.461   6.724  17.083  0.00  0.00    +0.000 A 
ATOM     20  N   UNL     1       8.008   6.801  15.884  0.00  0.00    +0.000 NA
ATOM     21  N   UNL     1       7.475   5.801  15.107  0.00  0.00    +0.000 NA
ATOM     22  C   UNL     1       6.615   5.138  15.848  0.00  0.00    +0.000 A 
ATOM     23  C   UNL     1       5.784   4.042  15.581  0.00  0.00    +0.000 A 
ATOM     24  C   UNL     1       4.993   3.584  16.555  0.00  0.00    +0.000 A 
ATOM     25  C   UNL     1       5.009   4.247  17.910  0.00  0.00    +0.000 A 
ATOM     26  N   UNL     1       4.187   3.746  18.912  0.00  0.00    +0.000 N 
ATOM     27  C   UNL     1       3.846   2.330  19.052  0.00  0.00    +0.000 C 
ATOM     28  C   UNL     1       2.328   2.186  19.066  0.00  0.00    +0.000 C 
ATOM     29  C   UNL     1       1.715   3.021  20.201  0.00  0.00    +0.000 C 
ATOM     30  C   UNL     1       0.190   2.946  20.157  0.00  0.00    +0.000 C 
ATOM     31  C   UNL     1       2.203   4.479  20.124  0.00  0.00    +0.000 C 
ATOM     32  C   UNL     1       3.732   4.568  20.036  0.00  0.00    +0.000 C 
ATOM     33  N   UNL     1       5.757   5.297  18.154  0.00  0.00    +0.000 NA
ATOM     34  N   UNL     1       6.552   5.689  17.110  0.00  0.00    +0.000 N 
ENDBRANCH  18  19
ENDBRANCH   1  18
TORSDOF 5
ENDMDL
MODEL 5
REMARK VINA RESULT:      -7.3      3.247     10.650
REMARK  Name = 
REMARK  7 active torsions:
REMARK  status: ('A' for Active; 'I' for Inactive)
REMARK    1  A    between atoms: C_1  and  O_2
REMARK    2  A    between atoms: O_2  and  C_3
REMARK    3  A    between atoms: C_8  and  N_9
REMARK    4  A    between atoms: C_13  and  C_15
REMARK    5  A    between atoms: C_15  and  C_16
REMARK    6  A    between atoms: C_16  and  C_17
REMARK    7  A    between atoms: C_27  and  C_28
REMARK                            x       y       z     vdW  Elec       q    Type
REMARK                         _______ _______ _______ _____ _____    ______ ____
ROOT
ATOM      1  C   UNL     1      -0.245  11.529  18.765  0.00  0.00    +0.000 C 
ENDROOT
BRANCH   1   6
ATOM      2  N   UNL     1      -3.881  14.252  21.148  0.00  0.00    +0.000 N 
ATOM      3  C   UNL     1      -2.817  15.202  20.783  0.00  0.00    +0.000 C 
ATOM      4  C   UNL     1      -1.457  14.485  20.857  0.00  0.00    +0.000 C 
ATOM      5  N   UNL     1      -1.432  13.249  20.068  0.00  0.00    +0.000 N 
ATOM      6  C   UNL     1      -0.228  12.850  19.502  0.00  0.00    +0.000 C 
ATOM      7  O   UNL     1       0.790  13.542  19.564  0.00  0.00    +0.000 OA
ATOM      8  C   UNL     1      -2.578  12.343  20.307  0.00  0.00    +0.000 C 
ATOM      9  C   UNL     1      -3.935  13.075  20.266  0.00  0.00    +0.000 C 
BRANCH   2  15
ATOM     10  C   UNL     1      -5.070  14.548  23.287  0.00  0.00    +0.000 A 
ATOM     11  C   UNL     1      -6.195  15.024  23.982  0.00  0.00    +0.000 A 
ATOM     12  C   UNL     1      -7.250  15.629  23.304  0.00  0.00    +0.000 A 
ATOM     13  C   UNL     1      -7.203  15.740  21.922  0.00  0.00    +0.000 A 
ATOM     14  C   UNL     1      -6.098  15.248  21.222  0.00  0.00    +0.000 A 
ATOM     15  C   UNL     1      -5.001  14.647  21.871  0.00  0.00    +0.000 A 
BRANCH  10  17
ATOM     16  C   UNL     1      -4.063  12.629  24.291  0.00  0.00    +0.000 C 
ATOM     17  O   UNL     1      -3.982  14.002  23.935  0.00  0.00    +0.000 OA
ENDBRANCH  10  17
ENDBRANCH   2  15
ENDBRANCH   1   6
BRANCH   1  18
ATOM     18  C   UNL     1       1.066  10.767  18.902  0.00  0.00    +0.000 C 
BRANCH  18  19
ATOM     19  C   UNL     1       0.907   9.646  19.866  0.00  0.00    +0.000 A 
ATOM     20  N   UNL     1       0.213   9.677  20.989  0.00  0.00    +0.000 NA
ATOM     21  N   UNL     1       0.343   8.454  21.603  0.00  0.00    +0.000 NA
ATOM     22  C   UNL     1       1.113   7.708  20.843  0.00  0.00    +0.000 A 
ATOM     23  C   UNL     1       1.585   6.395  20.975  0.00  0.00    +0.000 A 
ATOM     24  C   UNL     1       2.379   5.899  20.022  0.00  0.00    +0.000 A 
ATOM     25  C   UNL     1       2.749   6.753  18.833  0.00  0.00    +0.000 A 
ATOM     26  N   UNL     1       3.566   6.213  17.848  0.00  0.00    +0.000 N 
ATOM     27  C   UNL     1       3.554   4.801  17.465  0.00  0.00    +0.000 C 
ATOM     28  C   UNL     1       4.967   4.242  17.590  0.00  0.00    +0.000 C 
ATOM     29  C   UNL     1       5.946   5.047  16.719  0.00  0.00    +0.000 C 
ATOM     30  C   UNL     1       7.375   4.543  16.914  0.00  0.00    +0.000 C 
ATOM     31  C   UNL     1       5.838   6.550  17.033  0.00  0.00    +0.000 C 
ATOM     32  C   UNL     1       4.388   7.048  16.969  0.00  0.00    +0.000 C 
ATOM     33  N   UNL     1       2.341   7.995  18.724  0.00  0.00    +0.000 NA
ATOM     34  N   UNL     1       1.515   8.417  19.732  0.00  0.00    +0.000 N 
ENDBRANCH  18  19
ENDBRANCH   1  18
TORSDOF 5
ENDMDL
MODEL 6
REMARK VINA RESULT:      -7.3      3.434      5.302
REMARK  Name = 
REMARK  7 active torsions:
REMARK  status: ('A' for Active; 'I' for Inactive)
REMARK    1  A    between atoms: C_1  and  O_2
REMARK    2  A    between atoms: O_2  and  C_3
REMARK    3  A    between atoms: C_8  and  N_9
REMARK    4  A    between atoms: C_13  and  C_15
REMARK    5  A    between atoms: C_15  and  C_16
REMARK    6  A    between atoms: C_16  and  C_17
REMARK    7  A    between atoms: C_27  and  C_28
REMARK                            x       y       z     vdW  Elec       q    Type
REMARK                         _______ _______ _______ _____ _____    ______ ____
ROOT
ATOM      1  C   UNL     1       0.311  11.031  18.435  0.00  0.00    +0.000 C 
ENDROOT
BRANCH   1   6
ATOM      2  N   UNL     1       2.457   6.516  19.585  0.00  0.00    +0.000 N 
ATOM      3  C   UNL     1       1.520   6.826  20.678  0.00  0.00    +0.000 C 
ATOM      4  C   UNL     1       1.482   8.351  20.889  0.00  0.00    +0.000 C 
ATOM      5  N   UNL     1       1.196   9.081  19.650  0.00  0.00    +0.000 N 
ATOM      6  C   UNL     1       0.511  10.286  19.736  0.00  0.00    +0.000 C 
ATOM      7  O   UNL     1       0.060  10.714  20.801  0.00  0.00    +0.000 OA
ATOM      8  C   UNL     1       2.025   8.677  18.492  0.00  0.00    +0.000 C 
ATOM      9  C   UNL     1       2.087   7.147  18.308  0.00  0.00    +0.000 C 
BRANCH   2  15
ATOM     10  C   UNL     1       2.759   4.094  19.930  0.00  0.00    +0.000 A 
ATOM     11  C   UNL     1       3.596   2.966  19.873  0.00  0.00    +0.000 A 
ATOM     12  C   UNL     1       4.924   3.082  19.472  0.00  0.00    +0.000 A 
ATOM     13  C   UNL     1       5.436   4.330  19.149  0.00  0.00    +0.000 A 
ATOM     14  C   UNL     1       4.617   5.459  19.226  0.00  0.00    +0.000 A 
ATOM     15  C   UNL     1       3.263   5.383  19.608  0.00  0.00    +0.000 A 
BRANCH  10  17
ATOM     16  C   UNL     1       0.654   3.018  19.585  0.00  0.00    +0.000 C 
ATOM     17  O   UNL     1       1.424   4.003  20.262  0.00  0.00    +0.000 OA
ENDBRANCH  10  17
ENDBRANCH   2  15
ENDBRANCH   1   6
BRANCH   1  18
ATOM     18  C   UNL     1      -0.561  12.269  18.598  0.00  0.00    +0.000 C 
BRANCH  18  19
ATOM     19  C   UNL     1      -1.989  11.918  18.381  0.00  0.00    +0.000 A 
ATOM     20  N   UNL     1      -2.487  11.290  17.331  0.00  0.00    +0.000 NA
ATOM     21  N   UNL     1      -3.847  11.187  17.502  0.00  0.00    +0.000 NA
ATOM     22  C   UNL     1      -4.147  11.756  18.648  0.00  0.00    +0.000 A 
ATOM     23  C   UNL     1      -5.363  11.949  19.317  0.00  0.00    +0.000 A 
ATOM     24  C   UNL     1      -5.355  12.586  20.492  0.00  0.00    +0.000 A 
ATOM     25  C   UNL     1      -4.051  13.078  21.070  0.00  0.00    +0.000 A 
ATOM     26  N   UNL     1      -4.065  13.726  22.299  0.00  0.00    +0.000 N 
ATOM     27  C   UNL     1      -5.002  13.406  23.377  0.00  0.00    +0.000 C 
ATOM     28  C   UNL     1      -5.740  14.677  23.784  0.00  0.00    +0.000 C 
ATOM     29  C   UNL     1      -4.745  15.766  24.216  0.00  0.00    +0.000 C 
ATOM     30  C   UNL     1      -5.481  17.066  24.537  0.00  0.00    +0.000 C 
ATOM     31  C   UNL     1      -3.678  15.986  23.128  0.00  0.00    +0.000 C 
ATOM     32  C   UNL     1      -3.017  14.669  22.699  0.00  0.00    +0.000 C 
ATOM     33  N   UNL     1      -2.915  12.933  20.430  0.00  0.00    +0.000 NA
ATOM     34  N   UNL     1      -3.009  12.253  19.245  0.00  0.00    +0.000 N 
ENDBRANCH  18  19
ENDBRANCH   1  18
TORSDOF 5
ENDMDL
MODEL 7
REMARK VINA RESULT:      -7.3      3.899      5.675
REMARK  Name = 
REMARK  7 active torsions:
REMARK  status: ('A' for Active; 'I' for Inactive)
REMARK    1  A    between atoms: C_1  and  O_2
REMARK    2  A    between atoms: O_2  and  C_3
REMARK    3  A    between atoms: C_8  and  N_9
REMARK    4  A    between atoms: C_13  and  C_15
REMARK    5  A    between atoms: C_15  and  C_16
REMARK    6  A    between atoms: C_16  and  C_17
REMARK    7  A    between atoms: C_27  and  C_28
REMARK                            x       y       z     vdW  Elec       q    Type
REMARK                         _______ _______ _______ _____ _____    ______ ____
ROOT
ATOM      1  C   UNL     1       0.037  10.870  18.989  0.00  0.00    +0.000 C 
ENDROOT
BRANCH   1   6
ATOM      2  N   UNL     1       3.230   6.920  18.269  0.00  0.00    +0.000 N 
ATOM      3  C   UNL     1       2.302   6.519  19.339  0.00  0.00    +0.000 C 
ATOM      4  C   UNL     1       1.920   7.762  20.164  0.00  0.00    +0.000 C 
ATOM      5  N   UNL     1       1.410   8.854  19.328  0.00  0.00    +0.000 N 
ATOM      6  C   UNL     1       0.469   9.718  19.870  0.00  0.00    +0.000 C 
ATOM      7  O   UNL     1      -0.016   9.545  20.991  0.00  0.00    +0.000 OA
ATOM      8  C   UNL     1       2.252   9.174  18.153  0.00  0.00    +0.000 C 
ATOM      9  C   UNL     1       2.660   7.920  17.352  0.00  0.00    +0.000 C 
BRANCH   2  15
ATOM     10  C   UNL     1       4.138   4.694  17.720  0.00  0.00    +0.000 A 
ATOM     11  C   UNL     1       5.204   3.916  17.239  0.00  0.00    +0.000 A 
ATOM     12  C   UNL     1       6.407   4.508  16.862  0.00  0.00    +0.000 A 
ATOM     13  C   UNL     1       6.564   5.880  16.986  0.00  0.00    +0.000 A 
ATOM     14  C   UNL     1       5.517   6.658  17.487  0.00  0.00    +0.000 A 
ATOM     15  C   UNL     1       4.278   6.101  17.861  0.00  0.00    +0.000 A 
BRANCH  10  17
ATOM     16  C   UNL     1       2.592   2.892  17.457  0.00  0.00    +0.000 C 
ATOM     17  O   UNL     1       2.914   4.147  18.043  0.00  0.00    +0.000 OA
ENDBRANCH  10  17
ENDBRANCH   2  15
ENDBRANCH   1   6
BRANCH   1  18
ATOM     18  C   UNL     1      -1.138  11.642  19.572  0.00  0.00    +0.000 C 
BRANCH  18  19
ATOM     19  C   UNL     1      -2.324  11.514  18.685  0.00  0.00    +0.000 A 
ATOM     20  N   UNL     1      -2.326  11.052  17.448  0.00  0.00    +0.000 NA
ATOM     21  N   UNL     1      -3.611  11.125  16.967  0.00  0.00    +0.000 NA
ATOM     22  C   UNL     1      -4.363  11.630  17.920  0.00  0.00    +0.000 A 
ATOM     23  C   UNL     1      -5.729  11.933  17.985  0.00  0.00    +0.000 A 
ATOM     24  C   UNL     1      -6.217  12.460  19.112  0.00  0.00    +0.000 A 
ATOM     25  C   UNL     1      -5.297  12.716  20.281  0.00  0.00    +0.000 A 
ATOM     26  N   UNL     1      -5.828  13.252  21.447  0.00  0.00    +0.000 N 
ATOM     27  C   UNL     1      -7.182  12.975  21.927  0.00  0.00    +0.000 C 
ATOM     28  C   UNL     1      -7.916  14.297  22.129  0.00  0.00    +0.000 C 
ATOM     29  C   UNL     1      -7.150  15.197  23.112  0.00  0.00    +0.000 C 
ATOM     30  C   UNL     1      -7.839  16.554  23.243  0.00  0.00    +0.000 C 
ATOM     31  C   UNL     1      -5.684  15.357  22.668  0.00  0.00    +0.000 C 
ATOM     32  C   UNL     1      -5.013  14.003  22.405  0.00  0.00    +0.000 C 
ATOM     33  N   UNL     1      -4.010  12.469  20.212  0.00  0.00    +0.000 NA
ATOM     34  N   UNL     1      -3.597  11.911  19.031  0.00  0.00    +0.000 N 
ENDBRANCH  18  19
ENDBRANCH   1  18
TORSDOF 5
ENDMDL
MODEL 8
REMARK VINA RESULT:      -7.2      2.984     10.691
REMARK  Name = 
REMARK  7 active torsions:
REMARK  status: ('A' for Active; 'I' for Inactive)
REMARK    1  A    between atoms: C_1  and  O_2
REMARK    2  A    between atoms: O_2  and  C_3
REMARK    3  A    between atoms: C_8  and  N_9
REMARK    4  A    between atoms: C_13  and  C_15
REMARK    5  A    between atoms: C_15  and  C_16
REMARK    6  A    between atoms: C_16  and  C_17
REMARK    7  A    between atoms: C_27  and  C_28
REMARK                            x       y       z     vdW  Elec       q    Type
REMARK                         _______ _______ _______ _____ _____    ______ ____
ROOT
ATOM      1  C   UNL     1      -0.263  11.521  18.624  0.00  0.00    +0.000 C 
ENDROOT
BRANCH   1   6
ATOM      2  N   UNL     1      -2.890  14.770  21.600  0.00  0.00    +0.000 N 
ATOM      3  C   UNL     1      -2.129  15.595  20.648  0.00  0.00    +0.000 C 
ATOM      4  C   UNL     1      -0.795  14.895  20.331  0.00  0.00    +0.000 C 
ATOM      5  N   UNL     1      -0.981  13.511  19.885  0.00  0.00    +0.000 N 
ATOM      6  C   UNL     1      -0.065  12.976  18.989  0.00  0.00    +0.000 C 
ATOM      7  O   UNL     1       0.841  13.649  18.492  0.00  0.00    +0.000 OA
ATOM      8  C   UNL     1      -1.871  12.700  20.747  0.00  0.00    +0.000 C 
ATOM      9  C   UNL     1      -3.190  13.423  21.089  0.00  0.00    +0.000 C 
BRANCH   2  15
ATOM     10  C   UNL     1      -3.182  15.546  23.922  0.00  0.00    +0.000 A 
ATOM     11  C   UNL     1      -3.981  16.185  24.885  0.00  0.00    +0.000 A 
ATOM     12  C   UNL     1      -5.252  16.653  24.561  0.00  0.00    +0.000 A 
ATOM     13  C   UNL     1      -5.747  16.463  23.279  0.00  0.00    +0.000 A 
ATOM     14  C   UNL     1      -4.967  15.807  22.323  0.00  0.00    +0.000 A 
ATOM     15  C   UNL     1      -3.669  15.336  22.604  0.00  0.00    +0.000 A 
BRANCH  10  17
ATOM     16  C   UNL     1      -0.918  16.138  24.402  0.00  0.00    +0.000 C 
ATOM     17  O   UNL     1      -1.896  15.128  24.193  0.00  0.00    +0.000 OA
ENDBRANCH  10  17
ENDBRANCH   2  15
ENDBRANCH   1   6
BRANCH   1  18
ATOM     18  C   UNL     1       1.028  10.718  18.703  0.00  0.00    +0.000 C 
BRANCH  18  19
ATOM     19  C   UNL     1       0.894   9.634  19.711  0.00  0.00    +0.000 A 
ATOM     20  N   UNL     1       0.205   9.697  20.836  0.00  0.00    +0.000 NA
ATOM     21  N   UNL     1       0.360   8.502  21.498  0.00  0.00    +0.000 NA
ATOM     22  C   UNL     1       1.138   7.740  20.763  0.00  0.00    +0.000 A 
ATOM     23  C   UNL     1       1.633   6.441  20.944  0.00  0.00    +0.000 A 
ATOM     24  C   UNL     1       2.431   5.922  20.006  0.00  0.00    +0.000 A 
ATOM     25  C   UNL     1       2.780   6.734  18.783  0.00  0.00    +0.000 A 
ATOM     26  N   UNL     1       3.601   6.169  17.815  0.00  0.00    +0.000 N 
ATOM     27  C   UNL     1       3.611   4.743  17.489  0.00  0.00    +0.000 C 
ATOM     28  C   UNL     1       5.035   4.214  17.626  0.00  0.00    +0.000 C 
ATOM     29  C   UNL     1       5.995   5.000  16.719  0.00  0.00    +0.000 C 
ATOM     30  C   UNL     1       7.433   4.528  16.925  0.00  0.00    +0.000 C 
ATOM     31  C   UNL     1       5.863   6.512  16.974  0.00  0.00    +0.000 C 
ATOM     32  C   UNL     1       4.404   6.982  16.898  0.00  0.00    +0.000 C 
ATOM     33  N   UNL     1       2.350   7.964  18.627  0.00  0.00    +0.000 NA
ATOM     34  N   UNL     1       1.522   8.411  19.622  0.00  0.00    +0.000 N 
ENDBRANCH  18  19
ENDBRANCH   1  18
TORSDOF 5
ENDMDL
MODEL 9
REMARK VINA RESULT:      -7.2      3.187      4.251
REMARK  Name = 
REMARK  7 active torsions:
REMARK  status: ('A' for Active; 'I' for Inactive)
REMARK    1  A    between atoms: C_1  and  O_2
REMARK    2  A    between atoms: O_2  and  C_3
REMARK    3  A    between atoms: C_8  and  N_9
REMARK    4  A    between atoms: C_13  and  C_15
REMARK    5  A    between atoms: C_15  and  C_16
REMARK    6  A    between atoms: C_16  and  C_17
REMARK    7  A    between atoms: C_27  and  C_28
REMARK                            x       y       z     vdW  Elec       q    Type
REMARK                         _______ _______ _______ _____ _____    ______ ____
ROOT
ATOM      1  C   UNL     1       1.093   6.850  20.966  0.00  0.00    +0.000 C 
ENDROOT
BRANCH   1   6
ATOM      2  N   UNL     1       4.300   5.164  17.334  0.00  0.00    +0.000 N 
ATOM      3  C   UNL     1       3.778   3.971  18.019  0.00  0.00    +0.000 C 
ATOM      4  C   UNL     1       3.538   4.308  19.502  0.00  0.00    +0.000 C 
ATOM      5  N   UNL     1       2.697   5.496  19.678  0.00  0.00    +0.000 N 
ATOM      6  C   UNL     1       1.880   5.568  20.798  0.00  0.00    +0.000 C 
ATOM      7  O   UNL     1       1.771   4.635  21.596  0.00  0.00    +0.000 OA
ATOM      8  C   UNL     1       3.114   6.670  18.877  0.00  0.00    +0.000 C 
ATOM      9  C   UNL     1       3.386   6.317  17.400  0.00  0.00    +0.000 C 
BRANCH   2  15
ATOM     10  C   UNL     1       6.560   5.618  16.460  0.00  0.00    +0.000 A 
ATOM     11  C   UNL     1       7.514   5.442  15.443  0.00  0.00    +0.000 A 
ATOM     12  C   UNL     1       7.211   4.708  14.299  0.00  0.00    +0.000 A 
ATOM     13  C   UNL     1       5.944   4.164  14.149  0.00  0.00    +0.000 A 
ATOM     14  C   UNL     1       4.983   4.355  15.145  0.00  0.00    +0.000 A 
ATOM     15  C   UNL     1       5.254   5.074  16.326  0.00  0.00    +0.000 A 
BRANCH  10  17
ATOM     16  C   UNL     1       7.609   7.481  17.524  0.00  0.00    +0.000 C 
ATOM     17  O   UNL     1       6.848   6.285  17.631  0.00  0.00    +0.000 OA
ENDBRANCH  10  17
ENDBRANCH   2  15
ENDBRANCH   1   6
BRANCH   1  18
ATOM     18  C   UNL     1       1.932   7.977  21.551  0.00  0.00    +0.000 C 
BRANCH  18  19
ATOM     19  C   UNL     1       1.048   9.018  22.141  0.00  0.00    +0.000 A 
ATOM     20  N   UNL     1       0.931   9.305  23.424  0.00  0.00    +0.000 NA
ATOM     21  N   UNL     1      -0.006  10.302  23.554  0.00  0.00    +0.000 NA
ATOM     22  C   UNL     1      -0.440  10.598  22.349  0.00  0.00    +0.000 A 
ATOM     23  C   UNL     1      -1.390  11.518  21.886  0.00  0.00    +0.000 A 
ATOM     24  C   UNL     1      -1.631  11.587  20.574  0.00  0.00    +0.000 A 
ATOM     25  C   UNL     1      -0.883  10.682  19.625  0.00  0.00    +0.000 A 
ATOM     26  N   UNL     1      -1.140  10.780  18.263  0.00  0.00    +0.000 N 
ATOM     27  C   UNL     1      -1.494  12.029  17.589  0.00  0.00    +0.000 C 
ATOM     28  C   UNL     1      -2.810  11.834  16.844  0.00  0.00    +0.000 C 
ATOM     29  C   UNL     1      -2.699  10.674  15.843  0.00  0.00    +0.000 C 
ATOM     30  C   UNL     1      -4.044  10.423  15.163  0.00  0.00    +0.000 C 
ATOM     31  C   UNL     1      -2.183   9.404  16.542  0.00  0.00    +0.000 C 
ATOM     32  C   UNL     1      -0.899   9.669  17.339  0.00  0.00    +0.000 C 
ATOM     33  N   UNL     1      -0.019   9.793  20.057  0.00  0.00    +0.000 NA
ATOM     34  N   UNL     1       0.183   9.803  21.411  0.00  0.00    +0.000 N 
ENDBRANCH  18  19
ENDBRANCH   1  18
TORSDOF 5
ENDMDL
