MODEL 1
REMARK VINA RESULT:     -10.0      0.000      0.000
REMARK  Name = 
REMARK  6 active torsions:
REMARK  status: ('A' for Active; 'I' for Inactive)
REMARK    1  A    between atoms: C_1  and  C_2
REMARK    2  A    between atoms: C_8  and  N_9
REMARK    3  A    between atoms: C_18  and  C_19
REMARK    4  A    between atoms: N_21  and  C_22
REMARK    5  A    between atoms: C_22  and  C_23
REMARK    6  A    between atoms: C_23  and  C_24
REMARK                            x       y       z     vdW  Elec       q    Type
REMARK                         _______ _______ _______ _____ _____    ______ ____
ROOT
ATOM      1  N   UNL     1      -1.534  12.123  23.245  0.00  0.00    +0.000 N 
ATOM      2  C   UNL     1      -0.936  11.197  22.421  0.00  0.00    +0.000 A 
ATOM      3  N   UNL     1      -0.666  11.304  21.159  0.00  0.00    +0.000 NA
ATOM      4  N   UNL     1      -0.012  10.196  20.698  0.00  0.00    +0.000 N 
ATOM      5  C   UNL     1       0.401  10.126  19.382  0.00  0.00    +0.000 A 
ATOM      6  O   UNL     1       0.091  10.906  18.487  0.00  0.00    +0.000 OA
ATOM      7  C   UNL     1       1.303   8.992  19.097  0.00  0.00    +0.000 A 
ATOM      8  C   UNL     1       2.004   8.950  17.886  0.00  0.00    +0.000 A 
ATOM      9  C   UNL     1       2.901   7.910  17.647  0.00  0.00    +0.000 A 
ATOM     10  C   UNL     1       3.073   6.894  18.597  0.00  0.00    +0.000 A 
ATOM     11  C   UNL     1       2.351   6.942  19.806  0.00  0.00    +0.000 A 
ATOM     12  C   UNL     1       1.490   8.013  20.085  0.00  0.00    +0.000 A 
ATOM     13  N   UNL     1       0.900   8.119  21.374  0.00  0.00    +0.000 NA
ATOM     14  C   UNL     1       0.239   9.205  21.610  0.00  0.00    +0.000 A 
ATOM     15  S   UNL     1      -0.435   9.665  23.146  0.00  0.00    +0.000 S 
ATOM     16  H   UNL     1      -1.576  11.881  24.226  0.00  0.00    +0.000 HD
ENDROOT
BRANCH   1  24
ATOM     17  C   UNL     1      -4.189  12.335  24.524  0.00  0.00    +0.000 C 
ATOM     18  C   UNL     1      -3.733  13.265  23.425  0.00  0.00    +0.000 A 
ATOM     19  C   UNL     1      -4.618  14.254  22.925  0.00  0.00    +0.000 A 
ATOM     20 CL   UNL     1      -6.266  14.385  23.447  0.00  0.00    +0.000 Cl
ATOM     21  C   UNL     1      -4.207  15.174  21.960  0.00  0.00    +0.000 A 
ATOM     22  C   UNL     1      -2.910  15.131  21.480  0.00  0.00    +0.000 A 
ATOM     23  C   UNL     1      -2.040  14.138  21.927  0.00  0.00    +0.000 A 
ATOM     24  C   UNL     1      -2.433  13.156  22.858  0.00  0.00    +0.000 A 
ENDBRANCH   1  24
BRANCH  10  25
ATOM     25  C   UNL     1       4.017   5.788  18.262  0.00  0.00    +0.000 C 
ATOM     26  O   UNL     1       5.160   5.801  18.702  0.00  0.00    +0.000 OA
ATOM     27  N   UNL     1       3.517   4.764  17.476  0.00  0.00    +0.000 N 
ATOM     28  H   UNL     1       2.517   4.703  17.330  0.00  0.00    +0.000 HD
BRANCH  27  29
ATOM     29  C   UNL     1       4.339   3.613  17.132  0.00  0.00    +0.000 C 
BRANCH  29  30
ATOM     30  C   UNL     1       3.762   2.313  17.703  0.00  0.00    +0.000 C 
BRANCH  30  31
ATOM     31  C   UNL     1       2.876   2.552  18.894  0.00  0.00    +0.000 A 
ATOM     32  C   UNL     1       1.491   2.767  18.726  0.00  0.00    +0.000 A 
ATOM     33  C   UNL     1       0.681   3.032  19.830  0.00  0.00    +0.000 A 
ATOM     34  C   UNL     1       1.234   3.086  21.108  0.00  0.00    +0.000 A 
ATOM     35  C   UNL     1       2.592   2.864  21.287  0.00  0.00    +0.000 A 
ATOM     36  C   UNL     1       3.410   2.597  20.188  0.00  0.00    +0.000 A 
ENDBRANCH  30  31
ENDBRANCH  29  30
ENDBRANCH  27  29
ENDBRANCH  10  25
TORSDOF 5
ENDMDL
MODEL 2
REMARK VINA RESULT:      -9.8      1.072      1.495
REMARK  Name = 
REMARK  6 active torsions:
REMARK  status: ('A' for Active; 'I' for Inactive)
REMARK    1  A    between atoms: C_1  and  C_2
REMARK    2  A    between atoms: C_8  and  N_9
REMARK    3  A    between atoms: C_18  and  C_19
REMARK    4  A    between atoms: N_21  and  C_22
REMARK    5  A    between atoms: C_22  and  C_23
REMARK    6  A    between atoms: C_23  and  C_24
REMARK                            x       y       z     vdW  Elec       q    Type
REMARK                         _______ _______ _______ _____ _____    ______ ____
ROOT
ATOM      1  N   UNL     1      -1.388  12.331  23.125  0.00  0.00    +0.000 N 
ATOM      2  C   UNL     1      -0.813  11.363  22.333  0.00  0.00    +0.000 A 
ATOM      3  N   UNL     1      -0.497  11.438  21.080  0.00  0.00    +0.000 NA
ATOM      4  N   UNL     1       0.112  10.289  20.656  0.00  0.00    +0.000 N 
ATOM      5  C   UNL     1       0.565  10.179  19.355  0.00  0.00    +0.000 A 
ATOM      6  O   UNL     1       0.327  10.962  18.440  0.00  0.00    +0.000 OA
ATOM      7  C   UNL     1       1.413   8.994  19.115  0.00  0.00    +0.000 A 
ATOM      8  C   UNL     1       2.151   8.898  17.930  0.00  0.00    +0.000 A 
ATOM      9  C   UNL     1       2.997   7.808  17.734  0.00  0.00    +0.000 A 
ATOM     10  C   UNL     1       3.083   6.797  18.702  0.00  0.00    +0.000 A 
ATOM     11  C   UNL     1       2.325   6.901  19.885  0.00  0.00    +0.000 A 
ATOM     12  C   UNL     1       1.513   8.021  20.121  0.00  0.00    +0.000 A 
ATOM     13  N   UNL     1       0.888   8.176  21.388  0.00  0.00    +0.000 NA
ATOM     14  C   UNL     1       0.278   9.299  21.587  0.00  0.00    +0.000 A 
ATOM     15  S   UNL     1      -0.421   9.816  23.094  0.00  0.00    +0.000 S 
ATOM     16  H   UNL     1      -1.476  12.106  24.107  0.00  0.00    +0.000 HD
ENDROOT
BRANCH   1  24
ATOM     17  C   UNL     1      -0.244  15.030  22.754  0.00  0.00    +0.000 C 
ATOM     18  C   UNL     1      -1.707  14.726  22.543  0.00  0.00    +0.000 A 
ATOM     19  C   UNL     1      -2.604  15.771  22.208  0.00  0.00    +0.000 A 
ATOM     20 CL   UNL     1      -2.118  17.433  22.132  0.00  0.00    +0.000 Cl
ATOM     21  C   UNL     1      -3.949  15.515  21.938  0.00  0.00    +0.000 A 
ATOM     22  C   UNL     1      -4.423  14.215  21.988  0.00  0.00    +0.000 A 
ATOM     23  C   UNL     1      -3.566  13.181  22.359  0.00  0.00    +0.000 A 
ATOM     24  C   UNL     1      -2.216  13.405  22.695  0.00  0.00    +0.000 A 
ENDBRANCH   1  24
BRANCH  10  25
ATOM     25  C   UNL     1       3.976   5.637  18.413  0.00  0.00    +0.000 C 
ATOM     26  O   UNL     1       5.032   5.509  19.021  0.00  0.00    +0.000 OA
ATOM     27  N   UNL     1       3.527   4.731  17.469  0.00  0.00    +0.000 N 
ATOM     28  H   UNL     1       2.561   4.775  17.168  0.00  0.00    +0.000 HD
BRANCH  27  29
ATOM     29  C   UNL     1       4.299   3.538  17.149  0.00  0.00    +0.000 C 
BRANCH  29  30
ATOM     30  C   UNL     1       3.636   2.270  17.696  0.00  0.00    +0.000 C 
BRANCH  30  31
ATOM     31  C   UNL     1       2.821   2.535  18.932  0.00  0.00    +0.000 A 
ATOM     32  C   UNL     1       1.441   2.816  18.835  0.00  0.00    +0.000 A 
ATOM     33  C   UNL     1       0.699   3.105  19.980  0.00  0.00    +0.000 A 
ATOM     34  C   UNL     1       1.316   3.117  21.229  0.00  0.00    +0.000 A 
ATOM     35  C   UNL     1       2.670   2.831  21.339  0.00  0.00    +0.000 A 
ATOM     36  C   UNL     1       3.419   2.540  20.198  0.00  0.00    +0.000 A 
ENDBRANCH  30  31
ENDBRANCH  29  30
ENDBRANCH  27  29
ENDBRANCH  10  25
TORSDOF 5
ENDMDL
MODEL 3
REMARK VINA RESULT:      -9.7      0.798      1.157
REMARK  Name = 
REMARK  6 active torsions:
REMARK  status: ('A' for Active; 'I' for Inactive)
REMARK    1  A    between atoms: C_1  and  C_2
REMARK    2  A    between atoms: C_8  and  N_9
REMARK    3  A    between atoms: C_18  and  C_19
REMARK    4  A    between atoms: N_21  and  C_22
REMARK    5  A    between atoms: C_22  and  C_23
REMARK    6  A    between atoms: C_23  and  C_24
REMARK                            x       y       z     vdW  Elec       q    Type
REMARK                         _______ _______ _______ _____ _____    ______ ____
ROOT
ATOM      1  N   UNL     1      -1.635  12.423  23.430  0.00  0.00    +0.000 N 
ATOM      2  C   UNL     1      -1.055  11.512  22.578  0.00  0.00    +0.000 A 
ATOM      3  N   UNL     1      -0.840  11.628  21.306  0.00  0.00    +0.000 NA
ATOM      4  N   UNL     1      -0.185  10.534  20.814  0.00  0.00    +0.000 N 
ATOM      5  C   UNL     1       0.174  10.477  19.481  0.00  0.00    +0.000 A 
ATOM      6  O   UNL     1      -0.187  11.254  18.603  0.00  0.00    +0.000 OA
ATOM      7  C   UNL     1       1.084   9.360  19.154  0.00  0.00    +0.000 A 
ATOM      8  C   UNL     1       1.735   9.336  17.916  0.00  0.00    +0.000 A 
ATOM      9  C   UNL     1       2.639   8.313  17.634  0.00  0.00    +0.000 A 
ATOM     10  C   UNL     1       2.869   7.296  18.572  0.00  0.00    +0.000 A 
ATOM     11  C   UNL     1       2.197   7.327  19.810  0.00  0.00    +0.000 A 
ATOM     12  C   UNL     1       1.329   8.381  20.129  0.00  0.00    +0.000 A 
ATOM     13  N   UNL     1       0.791   8.471  21.442  0.00  0.00    +0.000 NA
ATOM     14  C   UNL     1       0.121   9.544  21.710  0.00  0.00    +0.000 A 
ATOM     15  S   UNL     1      -0.497   9.986  23.275  0.00  0.00    +0.000 S 
ATOM     16  H   UNL     1      -1.633  12.176  24.411  0.00  0.00    +0.000 HD
ENDROOT
BRANCH   1  24
ATOM     17  C   UNL     1      -4.362  12.384  24.567  0.00  0.00    +0.000 C 
ATOM     18  C   UNL     1      -3.901  13.432  23.583  0.00  0.00    +0.000 A 
ATOM     19  C   UNL     1      -4.811  14.418  23.124  0.00  0.00    +0.000 A 
ATOM     20 CL   UNL     1      -6.488  14.418  23.559  0.00  0.00    +0.000 Cl
ATOM     21  C   UNL     1      -4.400  15.441  22.269  0.00  0.00    +0.000 A 
ATOM     22  C   UNL     1      -3.079  15.508  21.863  0.00  0.00    +0.000 A 
ATOM     23  C   UNL     1      -2.181  14.523  22.269  0.00  0.00    +0.000 A 
ATOM     24  C   UNL     1      -2.568  13.441  23.085  0.00  0.00    +0.000 A 
ENDBRANCH   1  24
BRANCH  10  25
ATOM     25  C   UNL     1       3.818   6.209  18.193  0.00  0.00    +0.000 C 
ATOM     26  O   UNL     1       4.138   6.053  17.021  0.00  0.00    +0.000 OA
ATOM     27  N   UNL     1       4.322   5.439  19.228  0.00  0.00    +0.000 N 
ATOM     28  H   UNL     1       4.191   5.754  20.181  0.00  0.00    +0.000 HD
BRANCH  27  29
ATOM     29  C   UNL     1       5.293   4.385  18.972  0.00  0.00    +0.000 C 
BRANCH  29  30
ATOM     30  C   UNL     1       4.731   3.001  19.313  0.00  0.00    +0.000 C 
BRANCH  30  31
ATOM     31  C   UNL     1       3.239   3.017  19.500  0.00  0.00    +0.000 A 
ATOM     32  C   UNL     1       2.680   3.181  20.785  0.00  0.00    +0.000 A 
ATOM     33  C   UNL     1       1.296   3.150  20.959  0.00  0.00    +0.000 A 
ATOM     34  C   UNL     1       0.456   2.959  19.864  0.00  0.00    +0.000 A 
ATOM     35  C   UNL     1       0.995   2.809  18.594  0.00  0.00    +0.000 A 
ATOM     36  C   UNL     1       2.378   2.839  18.410  0.00  0.00    +0.000 A 
ENDBRANCH  30  31
ENDBRANCH  29  30
ENDBRANCH  27  29
ENDBRANCH  10  25
TORSDOF 5
ENDMDL
MODEL 4
REMARK VINA RESULT:      -9.5      1.791      3.143
REMARK  Name = 
REMARK  6 active torsions:
REMARK  status: ('A' for Active; 'I' for Inactive)
REMARK    1  A    between atoms: C_1  and  C_2
REMARK    2  A    between atoms: C_8  and  N_9
REMARK    3  A    between atoms: C_18  and  C_19
REMARK    4  A    between atoms: N_21  and  C_22
REMARK    5  A    between atoms: C_22  and  C_23
REMARK    6  A    between atoms: C_23  and  C_24
REMARK                            x       y       z     vdW  Elec       q    Type
REMARK                         _______ _______ _______ _____ _____    ______ ____
ROOT
ATOM      1  N   UNL     1      -0.971  12.261  23.115  0.00  0.00    +0.000 N 
ATOM      2  C   UNL     1      -0.468  11.267  22.307  0.00  0.00    +0.000 A 
ATOM      3  N   UNL     1      -0.136  11.342  21.057  0.00  0.00    +0.000 NA
ATOM      4  N   UNL     1       0.385  10.158  20.613  0.00  0.00    +0.000 N 
ATOM      5  C   UNL     1       0.838  10.039  19.313  0.00  0.00    +0.000 A 
ATOM      6  O   UNL     1       0.669  10.856  18.414  0.00  0.00    +0.000 OA
ATOM      7  C   UNL     1       1.593   8.797  19.054  0.00  0.00    +0.000 A 
ATOM      8  C   UNL     1       2.331   8.667  17.872  0.00  0.00    +0.000 A 
ATOM      9  C   UNL     1       3.092   7.519  17.659  0.00  0.00    +0.000 A 
ATOM     10  C   UNL     1       3.090   6.485  18.607  0.00  0.00    +0.000 A 
ATOM     11  C   UNL     1       2.333   6.624  19.786  0.00  0.00    +0.000 A 
ATOM     12  C   UNL     1       1.609   7.798  20.041  0.00  0.00    +0.000 A 
ATOM     13  N   UNL     1       0.987   7.976  21.306  0.00  0.00    +0.000 NA
ATOM     14  C   UNL     1       0.466   9.139  21.525  0.00  0.00    +0.000 A 
ATOM     15  S   UNL     1      -0.203   9.679  23.038  0.00  0.00    +0.000 S 
ATOM     16  H   UNL     1      -1.085  12.023  24.091  0.00  0.00    +0.000 HD
ENDROOT
BRANCH   1  24
ATOM     17  C   UNL     1      -3.828  12.518  23.824  0.00  0.00    +0.000 C 
ATOM     18  C   UNL     1      -3.096  13.543  22.992  0.00  0.00    +0.000 A 
ATOM     19  C   UNL     1      -3.798  14.657  22.467  0.00  0.00    +0.000 A 
ATOM     20 CL   UNL     1      -5.511  14.851  22.644  0.00  0.00    +0.000 Cl
ATOM     21  C   UNL     1      -3.140  15.659  21.753  0.00  0.00    +0.000 A 
ATOM     22  C   UNL     1      -1.772  15.575  21.555  0.00  0.00    +0.000 A 
ATOM     23  C   UNL     1      -1.073  14.465  22.026  0.00  0.00    +0.000 A 
ATOM     24  C   UNL     1      -1.710  13.404  22.701  0.00  0.00    +0.000 A 
ENDBRANCH   1  24
BRANCH  10  25
ATOM     25  C   UNL     1       3.893   5.265  18.299  0.00  0.00    +0.000 C 
ATOM     26  O   UNL     1       4.207   4.493  19.198  0.00  0.00    +0.000 OA
ATOM     27  N   UNL     1       4.216   5.056  16.970  0.00  0.00    +0.000 N 
ATOM     28  H   UNL     1       3.747   5.605  16.260  0.00  0.00    +0.000 HD
BRANCH  27  29
ATOM     29  C   UNL     1       4.953   3.871  16.555  0.00  0.00    +0.000 C 
BRANCH  29  30
ATOM     30  C   UNL     1       6.380   4.214  16.117  0.00  0.00    +0.000 C 
BRANCH  30  31
ATOM     31  C   UNL     1       7.022   5.243  17.006  0.00  0.00    +0.000 A 
ATOM     32  C   UNL     1       7.551   4.876  18.262  0.00  0.00    +0.000 A 
ATOM     33  C   UNL     1       8.105   5.841  19.102  0.00  0.00    +0.000 A 
ATOM     34  C   UNL     1       8.142   7.177  18.706  0.00  0.00    +0.000 A 
ATOM     35  C   UNL     1       7.636   7.548  17.468  0.00  0.00    +0.000 A 
ATOM     36  C   UNL     1       7.081   6.588  16.621  0.00  0.00    +0.000 A 
ENDBRANCH  30  31
ENDBRANCH  29  30
ENDBRANCH  27  29
ENDBRANCH  10  25
TORSDOF 5
ENDMDL
MODEL 5
REMARK VINA RESULT:      -9.4      1.696      2.168
REMARK  Name = 
REMARK  6 active torsions:
REMARK  status: ('A' for Active; 'I' for Inactive)
REMARK    1  A    between atoms: C_1  and  C_2
REMARK    2  A    between atoms: C_8  and  N_9
REMARK    3  A    between atoms: C_18  and  C_19
REMARK    4  A    between atoms: N_21  and  C_22
REMARK    5  A    between atoms: C_22  and  C_23
REMARK    6  A    between atoms: C_23  and  C_24
REMARK                            x       y       z     vdW  Elec       q    Type
REMARK                         _______ _______ _______ _____ _____    ______ ____
ROOT
ATOM      1  N   UNL     1      -2.898  13.270  19.817  0.00  0.00    +0.000 N 
ATOM      2  C   UNL     1      -1.866  12.364  19.729  0.00  0.00    +0.000 A 
ATOM      3  N   UNL     1      -1.446  11.538  20.633  0.00  0.00    +0.000 NA
ATOM      4  N   UNL     1      -0.435  10.752  20.153  0.00  0.00    +0.000 N 
ATOM      5  C   UNL     1       0.127   9.774  20.951  0.00  0.00    +0.000 A 
ATOM      6  O   UNL     1      -0.064   9.627  22.154  0.00  0.00    +0.000 OA
ATOM      7  C   UNL     1       1.023   8.852  20.225  0.00  0.00    +0.000 A 
ATOM      8  C   UNL     1       1.447   7.668  20.840  0.00  0.00    +0.000 A 
ATOM      9  C   UNL     1       2.242   6.771  20.129  0.00  0.00    +0.000 A 
ATOM     10  C   UNL     1       2.645   7.068  18.819  0.00  0.00    +0.000 A 
ATOM     11  C   UNL     1       2.220   8.269  18.217  0.00  0.00    +0.000 A 
ATOM     12  C   UNL     1       1.372   9.154  18.899  0.00  0.00    +0.000 A 
ATOM     13  N   UNL     1       0.832  10.274  18.212  0.00  0.00    +0.000 NA
ATOM     14  C   UNL     1      -0.056  10.961  18.854  0.00  0.00    +0.000 A 
ATOM     15  S   UNL     1      -0.993  12.269  18.194  0.00  0.00    +0.000 S 
ATOM     16  H   UNL     1      -3.126  13.766  18.965  0.00  0.00    +0.000 HD
ENDROOT
BRANCH   1  24
ATOM     17  C   UNL     1      -5.466  12.371  20.968  0.00  0.00    +0.000 C 
ATOM     18  C   UNL     1      -4.653  13.497  21.561  0.00  0.00    +0.000 A 
ATOM     19  C   UNL     1      -5.147  14.208  22.683  0.00  0.00    +0.000 A 
ATOM     20 CL   UNL     1      -6.716  13.918  23.359  0.00  0.00    +0.000 Cl
ATOM     21  C   UNL     1      -4.391  15.207  23.298  0.00  0.00    +0.000 A 
ATOM     22  C   UNL     1      -3.130  15.510  22.814  0.00  0.00    +0.000 A 
ATOM     23  C   UNL     1      -2.647  14.852  21.685  0.00  0.00    +0.000 A 
ATOM     24  C   UNL     1      -3.402  13.878  21.000  0.00  0.00    +0.000 A 
ENDBRANCH   1  24
BRANCH  10  25
ATOM     25  C   UNL     1       3.529   6.084  18.128  0.00  0.00    +0.000 C 
ATOM     26  O   UNL     1       4.742   6.259  18.106  0.00  0.00    +0.000 OA
ATOM     27  N   UNL     1       2.908   4.983  17.566  0.00  0.00    +0.000 N 
ATOM     28  H   UNL     1       1.944   4.789  17.806  0.00  0.00    +0.000 HD
BRANCH  27  29
ATOM     29  C   UNL     1       3.684   3.938  16.912  0.00  0.00    +0.000 C 
BRANCH  29  30
ATOM     30  C   UNL     1       3.816   2.693  17.795  0.00  0.00    +0.000 C 
BRANCH  30  31
ATOM     31  C   UNL     1       2.911   2.741  18.995  0.00  0.00    +0.000 A 
ATOM     32  C   UNL     1       1.509   2.692  18.837  0.00  0.00    +0.000 A 
ATOM     33  C   UNL     1       0.672   2.782  19.949  0.00  0.00    +0.000 A 
ATOM     34  C   UNL     1       1.215   2.918  21.225  0.00  0.00    +0.000 A 
ATOM     35  C   UNL     1       2.592   2.955  21.394  0.00  0.00    +0.000 A 
ATOM     36  C   UNL     1       3.437   2.865  20.286  0.00  0.00    +0.000 A 
ENDBRANCH  30  31
ENDBRANCH  29  30
ENDBRANCH  27  29
ENDBRANCH  10  25
TORSDOF 5
ENDMDL
MODEL 6
REMARK VINA RESULT:      -9.2      2.151      3.710
REMARK  Name = 
REMARK  6 active torsions:
REMARK  status: ('A' for Active; 'I' for Inactive)
REMARK    1  A    between atoms: C_1  and  C_2
REMARK    2  A    between atoms: C_8  and  N_9
REMARK    3  A    between atoms: C_18  and  C_19
REMARK    4  A    between atoms: N_21  and  C_22
REMARK    5  A    between atoms: C_22  and  C_23
REMARK    6  A    between atoms: C_23  and  C_24
REMARK                            x       y       z     vdW  Elec       q    Type
REMARK                         _______ _______ _______ _____ _____    ______ ____
ROOT
ATOM      1  N   UNL     1      -1.287  12.170  23.320  0.00  0.00    +0.000 N 
ATOM      2  C   UNL     1      -0.736  11.240  22.468  0.00  0.00    +0.000 A 
ATOM      3  N   UNL     1      -0.454  11.373  21.211  0.00  0.00    +0.000 NA
ATOM      4  N   UNL     1       0.141  10.246  20.717  0.00  0.00    +0.000 N 
ATOM      5  C   UNL     1       0.557  10.197  19.400  0.00  0.00    +0.000 A 
ATOM      6  O   UNL     1       0.295  11.022  18.530  0.00  0.00    +0.000 OA
ATOM      7  C   UNL     1       1.395   9.024  19.081  0.00  0.00    +0.000 A 
ATOM      8  C   UNL     1       2.100   8.983  17.872  0.00  0.00    +0.000 A 
ATOM      9  C   UNL     1       2.939   7.903  17.602  0.00  0.00    +0.000 A 
ATOM     10  C   UNL     1       3.049   6.848  18.519  0.00  0.00    +0.000 A 
ATOM     11  C   UNL     1       2.324   6.897  19.725  0.00  0.00    +0.000 A 
ATOM     12  C   UNL     1       1.522   8.004  20.037  0.00  0.00    +0.000 A 
ATOM     13  N   UNL     1       0.932   8.100  21.326  0.00  0.00    +0.000 NA
ATOM     14  C   UNL     1       0.331   9.213  21.595  0.00  0.00    +0.000 A 
ATOM     15  S   UNL     1      -0.325   9.658  23.144  0.00  0.00    +0.000 S 
ATOM     16  H   UNL     1      -1.348  11.898  24.292  0.00  0.00    +0.000 HD
ENDROOT
BRANCH   1  24
ATOM     17  C   UNL     1      -4.041  12.334  24.377  0.00  0.00    +0.000 C 
ATOM     18  C   UNL     1      -3.468  13.355  23.423  0.00  0.00    +0.000 A 
ATOM     19  C   UNL     1      -4.283  14.416  22.953  0.00  0.00    +0.000 A 
ATOM     20 CL   UNL     1      -5.967  14.544  23.339  0.00  0.00    +0.000 Cl
ATOM     21  C   UNL     1      -3.767  15.415  22.126  0.00  0.00    +0.000 A 
ATOM     22  C   UNL     1      -2.432  15.381  21.760  0.00  0.00    +0.000 A 
ATOM     23  C   UNL     1      -1.628  14.322  22.176  0.00  0.00    +0.000 A 
ATOM     24  C   UNL     1      -2.124  13.263  22.964  0.00  0.00    +0.000 A 
ENDBRANCH   1  24
BRANCH  10  25
ATOM     25  C   UNL     1       3.932   5.702  18.150  0.00  0.00    +0.000 C 
ATOM     26  O   UNL     1       3.586   4.554  18.401  0.00  0.00    +0.000 OA
ATOM     27  N   UNL     1       5.111   6.016  17.497  0.00  0.00    +0.000 N 
ATOM     28  H   UNL     1       5.233   6.951  17.129  0.00  0.00    +0.000 HD
BRANCH  27  29
ATOM     29  C   UNL     1       6.020   4.970  17.049  0.00  0.00    +0.000 C 
BRANCH  29  30
ATOM     30  C   UNL     1       7.026   5.496  16.021  0.00  0.00    +0.000 C 
BRANCH  30  31
ATOM     31  C   UNL     1       6.804   4.916  14.651  0.00  0.00    +0.000 A 
ATOM     32  C   UNL     1       5.713   4.055  14.405  0.00  0.00    +0.000 A 
ATOM     33  C   UNL     1       5.537   3.484  13.144  0.00  0.00    +0.000 A 
ATOM     34  C   UNL     1       6.437   3.763  12.118  0.00  0.00    +0.000 A 
ATOM     35  C   UNL     1       7.506   4.618  12.344  0.00  0.00    +0.000 A 
ATOM     36  C   UNL     1       7.690   5.194  13.602  0.00  0.00    +0.000 A 
ENDBRANCH  30  31
ENDBRANCH  29  30
ENDBRANCH  27  29
ENDBRANCH  10  25
TORSDOF 5
ENDMDL
MODEL 7
REMARK VINA RESULT:      -9.2      1.106      1.686
REMARK  Name = 
REMARK  6 active torsions:
REMARK  status: ('A' for Active; 'I' for Inactive)
REMARK    1  A    between atoms: C_1  and  C_2
REMARK    2  A    between atoms: C_8  and  N_9
REMARK    3  A    between atoms: C_18  and  C_19
REMARK    4  A    between atoms: N_21  and  C_22
REMARK    5  A    between atoms: C_22  and  C_23
REMARK    6  A    between atoms: C_23  and  C_24
REMARK                            x       y       z     vdW  Elec       q    Type
REMARK                         _______ _______ _______ _____ _____    ______ ____
ROOT
ATOM      1  N   UNL     1      -1.730  12.064  23.591  0.00  0.00    +0.000 N 
ATOM      2  C   UNL     1      -1.124  11.263  22.649  0.00  0.00    +0.000 A 
ATOM      3  N   UNL     1      -0.909  11.520  21.399  0.00  0.00    +0.000 NA
ATOM      4  N   UNL     1      -0.225  10.501  20.796  0.00  0.00    +0.000 N 
ATOM      5  C   UNL     1       0.139  10.595  19.467  0.00  0.00    +0.000 A 
ATOM      6  O   UNL     1      -0.239  11.453  18.675  0.00  0.00    +0.000 OA
ATOM      7  C   UNL     1       1.078   9.543  19.028  0.00  0.00    +0.000 A 
ATOM      8  C   UNL     1       1.733   9.667  17.797  0.00  0.00    +0.000 A 
ATOM      9  C   UNL     1       2.664   8.703  17.414  0.00  0.00    +0.000 A 
ATOM     10  C   UNL     1       2.917   7.599  18.239  0.00  0.00    +0.000 A 
ATOM     11  C   UNL     1       2.241   7.480  19.470  0.00  0.00    +0.000 A 
ATOM     12  C   UNL     1       1.345   8.472  19.894  0.00  0.00    +0.000 A 
ATOM     13  N   UNL     1       0.802   8.408  21.206  0.00  0.00    +0.000 NA
ATOM     14  C   UNL     1       0.104   9.429  21.583  0.00  0.00    +0.000 A 
ATOM     15  S   UNL     1      -0.529   9.686  23.183  0.00  0.00    +0.000 S 
ATOM     16  H   UNL     1      -1.724  11.714  24.540  0.00  0.00    +0.000 HD
ENDROOT
BRANCH   1  24
ATOM     17  C   UNL     1      -0.880  14.891  23.482  0.00  0.00    +0.000 C 
ATOM     18  C   UNL     1      -2.320  14.464  23.330  0.00  0.00    +0.000 A 
ATOM     19  C   UNL     1      -3.335  15.443  23.186  0.00  0.00    +0.000 A 
ATOM     20 CL   UNL     1      -3.016  17.143  23.284  0.00  0.00    +0.000 Cl
ATOM     21  C   UNL     1      -4.666  15.081  22.975  0.00  0.00    +0.000 A 
ATOM     22  C   UNL     1      -5.009  13.743  22.895  0.00  0.00    +0.000 A 
ATOM     23  C   UNL     1      -4.032  12.767  23.079  0.00  0.00    +0.000 A 
ATOM     24  C   UNL     1      -2.687  13.089  23.351  0.00  0.00    +0.000 A 
ENDBRANCH   1  24
BRANCH  10  25
ATOM     25  C   UNL     1       3.895   6.582  17.752  0.00  0.00    +0.000 C 
ATOM     26  O   UNL     1       4.786   6.909  16.977  0.00  0.00    +0.000 OA
ATOM     27  N   UNL     1       3.750   5.297  18.246  0.00  0.00    +0.000 N 
ATOM     28  H   UNL     1       3.139   5.144  19.039  0.00  0.00    +0.000 HD
BRANCH  27  29
ATOM     29  C   UNL     1       4.681   4.242  17.874  0.00  0.00    +0.000 C 
BRANCH  29  30
ATOM     30  C   UNL     1       4.079   2.851  18.094  0.00  0.00    +0.000 C 
BRANCH  30  31
ATOM     31  C   UNL     1       3.055   2.835  19.196  0.00  0.00    +0.000 A 
ATOM     32  C   UNL     1       3.457   2.740  20.546  0.00  0.00    +0.000 A 
ATOM     33  C   UNL     1       2.502   2.681  21.561  0.00  0.00    +0.000 A 
ATOM     34  C   UNL     1       1.145   2.716  21.249  0.00  0.00    +0.000 A 
ATOM     35  C   UNL     1       0.739   2.822  19.926  0.00  0.00    +0.000 A 
ATOM     36  C   UNL     1       1.687   2.883  18.904  0.00  0.00    +0.000 A 
ENDBRANCH  30  31
ENDBRANCH  29  30
ENDBRANCH  27  29
ENDBRANCH  10  25
TORSDOF 5
ENDMDL
MODEL 8
REMARK VINA RESULT:      -9.2      1.846      2.522
REMARK  Name = 
REMARK  6 active torsions:
REMARK  status: ('A' for Active; 'I' for Inactive)
REMARK    1  A    between atoms: C_1  and  C_2
REMARK    2  A    between atoms: C_8  and  N_9
REMARK    3  A    between atoms: C_18  and  C_19
REMARK    4  A    between atoms: N_21  and  C_22
REMARK    5  A    between atoms: C_22  and  C_23
REMARK    6  A    between atoms: C_23  and  C_24
REMARK                            x       y       z     vdW  Elec       q    Type
REMARK                         _______ _______ _______ _____ _____    ______ ____
ROOT
ATOM      1  N   UNL     1      -2.690  13.579  20.370  0.00  0.00    +0.000 N 
ATOM      2  C   UNL     1      -1.692  12.654  20.161  0.00  0.00    +0.000 A 
ATOM      3  N   UNL     1      -1.271  11.735  20.968  0.00  0.00    +0.000 NA
ATOM      4  N   UNL     1      -0.303  10.967  20.381  0.00  0.00    +0.000 N 
ATOM      5  C   UNL     1       0.253   9.903  21.063  0.00  0.00    +0.000 A 
ATOM      6  O   UNL     1       0.097   9.649  22.254  0.00  0.00    +0.000 OA
ATOM      7  C   UNL     1       1.093   9.026  20.222  0.00  0.00    +0.000 A 
ATOM      8  C   UNL     1       1.497   7.778  20.709  0.00  0.00    +0.000 A 
ATOM      9  C   UNL     1       2.238   6.928  19.890  0.00  0.00    +0.000 A 
ATOM     10  C   UNL     1       2.605   7.334  18.599  0.00  0.00    +0.000 A 
ATOM     11  C   UNL     1       2.202   8.599  18.127  0.00  0.00    +0.000 A 
ATOM     12  C   UNL     1       1.407   9.440  18.919  0.00  0.00    +0.000 A 
ATOM     13  N   UNL     1       0.882  10.636  18.358  0.00  0.00    +0.000 NA
ATOM     14  C   UNL     1       0.039  11.286  19.094  0.00  0.00    +0.000 A 
ATOM     15  S   UNL     1      -0.876  12.678  18.592  0.00  0.00    +0.000 S 
ATOM     16  H   UNL     1      -2.930  14.159  19.577  0.00  0.00    +0.000 HD
ENDROOT
BRANCH   1  24
ATOM     17  C   UNL     1      -1.600  16.121  21.407  0.00  0.00    +0.000 C 
ATOM     18  C   UNL     1      -2.602  15.289  22.170  0.00  0.00    +0.000 A 
ATOM     19  C   UNL     1      -3.011  15.690  23.468  0.00  0.00    +0.000 A 
ATOM     20 CL   UNL     1      -2.326  17.057  24.283  0.00  0.00    +0.000 Cl
ATOM     21  C   UNL     1      -3.985  14.983  24.172  0.00  0.00    +0.000 A 
ATOM     22  C   UNL     1      -4.575  13.870  23.598  0.00  0.00    +0.000 A 
ATOM     23  C   UNL     1      -4.154  13.435  22.342  0.00  0.00    +0.000 A 
ATOM     24  C   UNL     1      -3.133  14.088  21.622  0.00  0.00    +0.000 A 
ENDBRANCH   1  24
BRANCH  10  25
ATOM     25  C   UNL     1       3.433   6.394  17.788  0.00  0.00    +0.000 C 
ATOM     26  O   UNL     1       4.445   6.795  17.225  0.00  0.00    +0.000 OA
ATOM     27  N   UNL     1       3.012   5.076  17.748  0.00  0.00    +0.000 N 
ATOM     28  H   UNL     1       2.304   4.769  18.403  0.00  0.00    +0.000 HD
BRANCH  27  29
ATOM     29  C   UNL     1       3.775   4.067  17.027  0.00  0.00    +0.000 C 
BRANCH  29  30
ATOM     30  C   UNL     1       3.728   2.708  17.733  0.00  0.00    +0.000 C 
BRANCH  30  31
ATOM     31  C   UNL     1       2.872   2.733  18.970  0.00  0.00    +0.000 A 
ATOM     32  C   UNL     1       1.466   2.803  18.868  0.00  0.00    +0.000 A 
ATOM     33  C   UNL     1       0.680   2.871  20.018  0.00  0.00    +0.000 A 
ATOM     34  C   UNL     1       1.278   2.868  21.276  0.00  0.00    +0.000 A 
ATOM     35  C   UNL     1       2.658   2.786  21.389  0.00  0.00    +0.000 A 
ATOM     36  C   UNL     1       3.453   2.718  20.244  0.00  0.00    +0.000 A 
ENDBRANCH  30  31
ENDBRANCH  29  30
ENDBRANCH  27  29
ENDBRANCH  10  25
TORSDOF 5
ENDMDL
MODEL 9
REMARK VINA RESULT:      -9.1      2.431      4.065
REMARK  Name = 
REMARK  6 active torsions:
REMARK  status: ('A' for Active; 'I' for Inactive)
REMARK    1  A    between atoms: C_1  and  C_2
REMARK    2  A    between atoms: C_8  and  N_9
REMARK    3  A    between atoms: C_18  and  C_19
REMARK    4  A    between atoms: N_21  and  C_22
REMARK    5  A    between atoms: C_22  and  C_23
REMARK    6  A    between atoms: C_23  and  C_24
REMARK                            x       y       z     vdW  Elec       q    Type
REMARK                         _______ _______ _______ _____ _____    ______ ____
ROOT
ATOM      1  N   UNL     1      -1.275  11.817  23.085  0.00  0.00    +0.000 N 
ATOM      2  C   UNL     1      -0.659  10.877  22.291  0.00  0.00    +0.000 A 
ATOM      3  N   UNL     1      -0.357  10.964  21.034  0.00  0.00    +0.000 NA
ATOM      4  N   UNL     1       0.306   9.847  20.607  0.00  0.00    +0.000 N 
ATOM      5  C   UNL     1       0.752   9.757  19.303  0.00  0.00    +0.000 A 
ATOM      6  O   UNL     1       0.466  10.524  18.388  0.00  0.00    +0.000 OA
ATOM      7  C   UNL     1       1.658   8.617  19.058  0.00  0.00    +0.000 A 
ATOM      8  C   UNL     1       2.389   8.555  17.866  0.00  0.00    +0.000 A 
ATOM      9  C   UNL     1       3.288   7.510  17.665  0.00  0.00    +0.000 A 
ATOM     10  C   UNL     1       3.435   6.507  18.634  0.00  0.00    +0.000 A 
ATOM     11  C   UNL     1       2.683   6.576  19.824  0.00  0.00    +0.000 A 
ATOM     12  C   UNL     1       1.817   7.653  20.065  0.00  0.00    +0.000 A 
ATOM     13  N   UNL     1       1.196   7.779  21.337  0.00  0.00    +0.000 NA
ATOM     14  C   UNL     1       0.531   8.870  21.539  0.00  0.00    +0.000 A 
ATOM     15  S   UNL     1      -0.180   9.354  23.051  0.00  0.00    +0.000 S 
ATOM     16  H   UNL     1      -1.343  11.589  24.068  0.00  0.00    +0.000 HD
ENDROOT
BRANCH   1  24
ATOM     17  C   UNL     1      -0.216  14.470  22.333  0.00  0.00    +0.000 C 
ATOM     18  C   UNL     1      -1.690  14.146  22.327  0.00  0.00    +0.000 A 
ATOM     19  C   UNL     1      -2.633  15.155  22.007  0.00  0.00    +0.000 A 
ATOM     20 CL   UNL     1      -2.179  16.803  21.721  0.00  0.00    +0.000 Cl
ATOM     21  C   UNL     1      -3.997  14.874  21.925  0.00  0.00    +0.000 A 
ATOM     22  C   UNL     1      -4.446  13.584  22.151  0.00  0.00    +0.000 A 
ATOM     23  C   UNL     1      -3.539  12.590  22.510  0.00  0.00    +0.000 A 
ATOM     24  C   UNL     1      -2.161  12.845  22.660  0.00  0.00    +0.000 A 
ENDBRANCH   1  24
BRANCH  10  25
ATOM     25  C   UNL     1       4.384   5.394  18.340  0.00  0.00    +0.000 C 
ATOM     26  O   UNL     1       4.450   4.428  19.090  0.00  0.00    +0.000 OA
ATOM     27  N   UNL     1       5.133   5.511  17.181  0.00  0.00    +0.000 N 
ATOM     28  H   UNL     1       4.877   6.216  16.502  0.00  0.00    +0.000 HD
BRANCH  27  29
ATOM     29  C   UNL     1       6.052   4.457  16.775  0.00  0.00    +0.000 C 
BRANCH  29  30
ATOM     30  C   UNL     1       5.514   3.664  15.580  0.00  0.00    +0.000 C 
BRANCH  30  31
ATOM     31  C   UNL     1       6.185   4.044  14.289  0.00  0.00    +0.000 A 
ATOM     32  C   UNL     1       5.851   3.385  13.087  0.00  0.00    +0.000 A 
ATOM     33  C   UNL     1       6.509   3.710  11.900  0.00  0.00    +0.000 A 
ATOM     34  C   UNL     1       7.500   4.689  11.894  0.00  0.00    +0.000 A 
ATOM     35  C   UNL     1       7.828   5.352  13.068  0.00  0.00    +0.000 A 
ATOM     36  C   UNL     1       7.175   5.034  14.259  0.00  0.00    +0.000 A 
ENDBRANCH  30  31
ENDBRANCH  29  30
ENDBRANCH  27  29
ENDBRANCH  10  25
TORSDOF 5
ENDMDL
