MODEL 1
REMARK VINA RESULT:      -7.7      0.000      0.000
REMARK  Name = 
REMARK  8 active torsions:
REMARK  status: ('A' for Active; 'I' for Inactive)
REMARK    1  A    between atoms: C_1  and  C_2
REMARK    2  A    between atoms: C_2  and  O_3
REMARK    3  A    between atoms: O_3  and  C_4
REMARK    4  A    between atoms: C_4  and  C_6
REMARK    5  A    between atoms: C_6  and  C_7
REMARK    6  A    between atoms: C_6  and  N_14
REMARK    7  A    between atoms: C_7  and  C_8
REMARK    8  A    between atoms: N_17  and  C_18
REMARK                            x       y       z     vdW  Elec       q    Type
REMARK                         _______ _______ _______ _____ _____    ______ ____
ROOT
ATOM      1  N   UNL     1       2.275   8.127  17.657  0.00  0.00    +0.000 N 
ATOM      2  C   UNL     1       1.503   8.975  18.408  0.00  0.00    +0.000 C 
ATOM      3  O   UNL     1       1.477   8.915  19.629  0.00  0.00    +0.000 OA
ATOM      4  N   UNL     1       0.804   9.882  17.638  0.00  0.00    +0.000 N 
ATOM      5  H   UNL     1       2.252   8.173  16.645  0.00  0.00    +0.000 HD
ATOM      6  H   UNL     1       0.350   9.439  16.851  0.00  0.00    +0.000 HD
ENDROOT
BRANCH   4   7
ATOM      7  C   UNL     1       0.082  10.936  18.248  0.00  0.00    +0.000 A 
ATOM      8  C   UNL     1       0.702  12.023  18.870  0.00  0.00    +0.000 A 
ATOM      9  C   UNL     1      -0.058  13.076  19.422  0.00  0.00    +0.000 A 
ATOM     10  C   UNL     1      -1.440  13.062  19.419  0.00  0.00    +0.000 A 
ATOM     11  C   UNL     1      -2.051  11.970  18.826  0.00  0.00    +0.000 A 
ATOM     12  C   UNL     1      -1.310  10.935  18.219  0.00  0.00    +0.000 A 
ATOM     13  C   UNL     1      -2.234   9.848  17.750  0.00  0.00    +0.000 C 
ATOM     14  C   UNL     1      -3.605  10.538  17.795  0.00  0.00    +0.000 C 
ATOM     15  C   UNL     1      -3.516  11.666  18.825  0.00  0.00    +0.000 C 
ATOM     16  C   UNL     1       0.821  14.175  19.937  0.00  0.00    +0.000 C 
ATOM     17  C   UNL     1       2.176  13.475  20.024  0.00  0.00    +0.000 C 
ATOM     18  C   UNL     1       2.159  12.341  18.993  0.00  0.00    +0.000 C 
ENDBRANCH   4   7
BRANCH   1  19
ATOM     19  C   UNL     1       3.113   7.087  18.279  0.00  0.00    +0.000 C 
BRANCH  19  20
ATOM     20  C   UNL     1       2.227   5.936  18.786  0.00  0.00    +0.000 C 
ATOM     21  O   UNL     1       2.012   5.710  19.972  0.00  0.00    +0.000 OA
BRANCH  20  22
ATOM     22  O   UNL     1       1.750   5.190  17.749  0.00  0.00    +0.000 OA
BRANCH  22  24
ATOM     23  C   UNL     1       2.892   3.088  17.446  0.00  0.00    +0.000 C 
ATOM     24  C   UNL     1       1.646   3.773  17.964  0.00  0.00    +0.000 C 
ENDBRANCH  22  24
ENDBRANCH  20  22
ENDBRANCH  19  20
BRANCH  19  25
ATOM     25  C   UNL     1       4.249   6.573  17.360  0.00  0.00    +0.000 C 
BRANCH  25  26
ATOM     26  C   UNL     1       5.537   6.218  18.060  0.00  0.00    +0.000 A 
ATOM     27  C   UNL     1       6.742   6.812  17.705  0.00  0.00    +0.000 A 
ATOM     28  C   UNL     1       7.889   6.467  18.391  0.00  0.00    +0.000 A 
ATOM     29  N   UNL     1       7.890   5.557  19.381  0.00  0.00    +0.000 NA
ATOM     30  N   UNL     1       6.722   4.960  19.735  0.00  0.00    +0.000 NA
ATOM     31  C   UNL     1       5.582   5.298  19.094  0.00  0.00    +0.000 A 
ENDBRANCH  25  26
ENDBRANCH  19  25
ENDBRANCH   1  19
TORSDOF 7
ENDMDL
MODEL 2
REMARK VINA RESULT:      -7.6      2.321      8.331
REMARK  Name = 
REMARK  8 active torsions:
REMARK  status: ('A' for Active; 'I' for Inactive)
REMARK    1  A    between atoms: C_1  and  C_2
REMARK    2  A    between atoms: C_2  and  O_3
REMARK    3  A    between atoms: O_3  and  C_4
REMARK    4  A    between atoms: C_4  and  C_6
REMARK    5  A    between atoms: C_6  and  C_7
REMARK    6  A    between atoms: C_6  and  N_14
REMARK    7  A    between atoms: C_7  and  C_8
REMARK    8  A    between atoms: N_17  and  C_18
REMARK                            x       y       z     vdW  Elec       q    Type
REMARK                         _______ _______ _______ _____ _____    ______ ____
ROOT
ATOM      1  N   UNL     1       2.030   7.948  20.653  0.00  0.00    +0.000 N 
ATOM      2  C   UNL     1       2.188   7.051  19.627  0.00  0.00    +0.000 C 
ATOM      3  O   UNL     1       1.474   7.071  18.635  0.00  0.00    +0.000 OA
ATOM      4  N   UNL     1       3.229   6.172  19.845  0.00  0.00    +0.000 N 
ATOM      5  H   UNL     1       2.610   7.888  21.481  0.00  0.00    +0.000 HD
ATOM      6  H   UNL     1       3.211   5.788  20.780  0.00  0.00    +0.000 HD
ENDROOT
BRANCH   4   7
ATOM      7  C   UNL     1       3.642   5.282  18.825  0.00  0.00    +0.000 A 
ATOM      8  C   UNL     1       4.623   5.604  17.884  0.00  0.00    +0.000 A 
ATOM      9  C   UNL     1       5.038   4.667  16.915  0.00  0.00    +0.000 A 
ATOM     10  C   UNL     1       4.467   3.412  16.817  0.00  0.00    +0.000 A 
ATOM     11  C   UNL     1       3.475   3.106  17.734  0.00  0.00    +0.000 A 
ATOM     12  C   UNL     1       3.086   4.008  18.745  0.00  0.00    +0.000 A 
ATOM     13  C   UNL     1       1.932   3.442  19.522  0.00  0.00    +0.000 C 
ATOM     14  C   UNL     1       1.952   1.962  19.112  0.00  0.00    +0.000 C 
ATOM     15  C   UNL     1       2.621   1.877  17.738  0.00  0.00    +0.000 C 
ATOM     16  C   UNL     1       6.170   5.197  16.087  0.00  0.00    +0.000 C 
ATOM     17  C   UNL     1       6.093   6.695  16.379  0.00  0.00    +0.000 C 
ATOM     18  C   UNL     1       5.447   6.847  17.761  0.00  0.00    +0.000 C 
ENDBRANCH   4   7
BRANCH   1  19
ATOM     19  C   UNL     1       0.983   8.985  20.620  0.00  0.00    +0.000 C 
BRANCH  19  20
ATOM     20  C   UNL     1       0.680   9.467  22.049  0.00  0.00    +0.000 C 
ATOM     21  O   UNL     1       1.532   9.598  22.921  0.00  0.00    +0.000 OA
BRANCH  20  22
ATOM     22  O   UNL     1      -0.654   9.690  22.220  0.00  0.00    +0.000 OA
BRANCH  22  24
ATOM     23  C   UNL     1      -1.510  11.939  22.365  0.00  0.00    +0.000 C 
ATOM     24  C   UNL     1      -1.024  10.732  23.137  0.00  0.00    +0.000 C 
ENDBRANCH  22  24
ENDBRANCH  20  22
ENDBRANCH  19  20
BRANCH  19  25
ATOM     25  C   UNL     1       1.311  10.166  19.674  0.00  0.00    +0.000 C 
BRANCH  25  26
ATOM     26  C   UNL     1       0.141  10.715  18.894  0.00  0.00    +0.000 A 
ATOM     27  C   UNL     1      -0.713   9.879  18.186  0.00  0.00    +0.000 A 
ATOM     28  C   UNL     1      -1.781  10.428  17.506  0.00  0.00    +0.000 A 
ATOM     29  N   UNL     1      -2.016  11.753  17.484  0.00  0.00    +0.000 NA
ATOM     30  N   UNL     1      -1.185  12.585  18.164  0.00  0.00    +0.000 NA
ATOM     31  C   UNL     1      -0.147  12.069  18.856  0.00  0.00    +0.000 A 
ENDBRANCH  25  26
ENDBRANCH  19  25
ENDBRANCH   1  19
TORSDOF 7
ENDMDL
MODEL 3
REMARK VINA RESULT:      -7.5      2.452      8.316
REMARK  Name = 
REMARK  8 active torsions:
REMARK  status: ('A' for Active; 'I' for Inactive)
REMARK    1  A    between atoms: C_1  and  C_2
REMARK    2  A    between atoms: C_2  and  O_3
REMARK    3  A    between atoms: O_3  and  C_4
REMARK    4  A    between atoms: C_4  and  C_6
REMARK    5  A    between atoms: C_6  and  C_7
REMARK    6  A    between atoms: C_6  and  N_14
REMARK    7  A    between atoms: C_7  and  C_8
REMARK    8  A    between atoms: N_17  and  C_18
REMARK                            x       y       z     vdW  Elec       q    Type
REMARK                         _______ _______ _______ _____ _____    ______ ____
ROOT
ATOM      1  N   UNL     1       1.767   8.658  20.536  0.00  0.00    +0.000 N 
ATOM      2  C   UNL     1       1.784   7.590  19.675  0.00  0.00    +0.000 C 
ATOM      3  O   UNL     1       0.963   7.471  18.777  0.00  0.00    +0.000 OA
ATOM      4  N   UNL     1       2.820   6.715  19.932  0.00  0.00    +0.000 N 
ATOM      5  H   UNL     1       2.437   8.715  21.295  0.00  0.00    +0.000 HD
ATOM      6  H   UNL     1       2.897   6.500  20.917  0.00  0.00    +0.000 HD
ENDROOT
BRANCH   4   7
ATOM      7  C   UNL     1       3.090   5.643  19.048  0.00  0.00    +0.000 A 
ATOM      8  C   UNL     1       3.921   5.768  17.932  0.00  0.00    +0.000 A 
ATOM      9  C   UNL     1       4.201   4.660  17.105  0.00  0.00    +0.000 A 
ATOM     10  C   UNL     1       3.636   3.418  17.328  0.00  0.00    +0.000 A 
ATOM     11  C   UNL     1       2.792   3.305  18.419  0.00  0.00    +0.000 A 
ATOM     12  C   UNL     1       2.543   4.386  19.289  0.00  0.00    +0.000 A 
ATOM     13  C   UNL     1       1.520   3.994  20.317  0.00  0.00    +0.000 C 
ATOM     14  C   UNL     1       1.497   2.463  20.192  0.00  0.00    +0.000 C 
ATOM     15  C   UNL     1       1.961   2.113  18.776  0.00  0.00    +0.000 C 
ATOM     16  C   UNL     1       5.195   5.008  16.038  0.00  0.00    +0.000 C 
ATOM     17  C   UNL     1       5.144   6.535  16.052  0.00  0.00    +0.000 C 
ATOM     18  C   UNL     1       4.704   6.953  17.460  0.00  0.00    +0.000 C 
ENDBRANCH   4   7
BRANCH   1  19
ATOM     19  C   UNL     1       0.752   9.720  20.432  0.00  0.00    +0.000 C 
BRANCH  19  20
ATOM     20  C   UNL     1       0.985  10.775  21.526  0.00  0.00    +0.000 C 
ATOM     21  O   UNL     1       1.406  11.906  21.307  0.00  0.00    +0.000 OA
BRANCH  20  22
ATOM     22  O   UNL     1       0.699  10.274  22.761  0.00  0.00    +0.000 OA
BRANCH  22  24
ATOM     23  C   UNL     1      -1.468  11.293  23.044  0.00  0.00    +0.000 C 
ATOM     24  C   UNL     1      -0.683  10.000  23.045  0.00  0.00    +0.000 C 
ENDBRANCH  22  24
ENDBRANCH  20  22
ENDBRANCH  19  20
BRANCH  19  25
ATOM     25  C   UNL     1       0.669  10.363  19.025  0.00  0.00    +0.000 C 
BRANCH  25  26
ATOM     26  C   UNL     1      -0.726  10.623  18.513  0.00  0.00    +0.000 A 
ATOM     27  C   UNL     1      -1.257   9.896  17.455  0.00  0.00    +0.000 A 
ATOM     28  C   UNL     1      -2.547  10.159  17.039  0.00  0.00    +0.000 A 
ATOM     29  N   UNL     1      -3.306  11.113  17.607  0.00  0.00    +0.000 NA
ATOM     30  N   UNL     1      -2.799  11.839  18.637  0.00  0.00    +0.000 NA
ATOM     31  C   UNL     1      -1.548  11.585  19.077  0.00  0.00    +0.000 A 
ENDBRANCH  25  26
ENDBRANCH  19  25
ENDBRANCH   1  19
TORSDOF 7
ENDMDL
MODEL 4
REMARK VINA RESULT:      -7.5      0.774      1.081
REMARK  Name = 
REMARK  8 active torsions:
REMARK  status: ('A' for Active; 'I' for Inactive)
REMARK    1  A    between atoms: C_1  and  C_2
REMARK    2  A    between atoms: C_2  and  O_3
REMARK    3  A    between atoms: O_3  and  C_4
REMARK    4  A    between atoms: C_4  and  C_6
REMARK    5  A    between atoms: C_6  and  C_7
REMARK    6  A    between atoms: C_6  and  N_14
REMARK    7  A    between atoms: C_7  and  C_8
REMARK    8  A    between atoms: N_17  and  C_18
REMARK                            x       y       z     vdW  Elec       q    Type
REMARK                         _______ _______ _______ _____ _____    ______ ____
ROOT
ATOM      1  N   UNL     1       2.342   8.115  17.575  0.00  0.00    +0.000 N 
ATOM      2  C   UNL     1       1.559   8.930  18.352  0.00  0.00    +0.000 C 
ATOM      3  O   UNL     1       1.471   8.780  19.562  0.00  0.00    +0.000 OA
ATOM      4  N   UNL     1       0.925   9.913  17.621  0.00  0.00    +0.000 N 
ATOM      5  H   UNL     1       2.370   8.236  16.569  0.00  0.00    +0.000 HD
ATOM      6  H   UNL     1       0.497   9.544  16.782  0.00  0.00    +0.000 HD
ENDROOT
BRANCH   4   7
ATOM      7  C   UNL     1       0.204  10.942  18.273  0.00  0.00    +0.000 A 
ATOM      8  C   UNL     1       0.825  12.006  18.931  0.00  0.00    +0.000 A 
ATOM      9  C   UNL     1       0.066  13.036  19.527  0.00  0.00    +0.000 A 
ATOM     10  C   UNL     1      -1.316  13.018  19.532  0.00  0.00    +0.000 A 
ATOM     11  C   UNL     1      -1.928  11.948  18.903  0.00  0.00    +0.000 A 
ATOM     12  C   UNL     1      -1.189  10.938  18.253  0.00  0.00    +0.000 A 
ATOM     13  C   UNL     1      -2.113   9.866  17.749  0.00  0.00    +0.000 C 
ATOM     14  C   UNL     1      -3.485  10.551  17.828  0.00  0.00    +0.000 C 
ATOM     15  C   UNL     1      -3.392  11.640  18.900  0.00  0.00    +0.000 C 
ATOM     16  C   UNL     1       0.945  14.118  20.078  0.00  0.00    +0.000 C 
ATOM     17  C   UNL     1       2.303  13.418  20.130  0.00  0.00    +0.000 C 
ATOM     18  C   UNL     1       2.281  12.323  19.058  0.00  0.00    +0.000 C 
ENDBRANCH   4   7
BRANCH   1  19
ATOM     19  C   UNL     1       3.119   7.006  18.156  0.00  0.00    +0.000 C 
BRANCH  19  20
ATOM     20  C   UNL     1       2.188   5.821  18.464  0.00  0.00    +0.000 C 
ATOM     21  O   UNL     1       1.553   5.211  17.610  0.00  0.00    +0.000 OA
BRANCH  20  22
ATOM     22  O   UNL     1       2.138   5.569  19.803  0.00  0.00    +0.000 OA
BRANCH  22  24
ATOM     23  C   UNL     1       2.112   3.834  21.476  0.00  0.00    +0.000 C 
ATOM     24  C   UNL     1       1.472   4.363  20.212  0.00  0.00    +0.000 C 
ENDBRANCH  22  24
ENDBRANCH  20  22
ENDBRANCH  19  20
BRANCH  19  25
ATOM     25  C   UNL     1       4.328   6.575  17.289  0.00  0.00    +0.000 C 
BRANCH  25  26
ATOM     26  C   UNL     1       5.585   6.241  18.052  0.00  0.00    +0.000 A 
ATOM     27  C   UNL     1       6.803   6.831  17.736  0.00  0.00    +0.000 A 
ATOM     28  C   UNL     1       7.920   6.507  18.478  0.00  0.00    +0.000 A 
ATOM     29  N   UNL     1       7.881   5.620  19.489  0.00  0.00    +0.000 NA
ATOM     30  N   UNL     1       6.700   5.028  19.806  0.00  0.00    +0.000 NA
ATOM     31  C   UNL     1       5.589   5.345  19.108  0.00  0.00    +0.000 A 
ENDBRANCH  25  26
ENDBRANCH  19  25
ENDBRANCH   1  19
TORSDOF 7
ENDMDL
MODEL 5
REMARK VINA RESULT:      -7.5      0.343      2.808
REMARK  Name = 
REMARK  8 active torsions:
REMARK  status: ('A' for Active; 'I' for Inactive)
REMARK    1  A    between atoms: C_1  and  C_2
REMARK    2  A    between atoms: C_2  and  O_3
REMARK    3  A    between atoms: O_3  and  C_4
REMARK    4  A    between atoms: C_4  and  C_6
REMARK    5  A    between atoms: C_6  and  C_7
REMARK    6  A    between atoms: C_6  and  N_14
REMARK    7  A    between atoms: C_7  and  C_8
REMARK    8  A    between atoms: N_17  and  C_18
REMARK                            x       y       z     vdW  Elec       q    Type
REMARK                         _______ _______ _______ _____ _____    ______ ____
ROOT
ATOM      1  N   UNL     1       2.193   7.974  17.689  0.00  0.00    +0.000 N 
ATOM      2  C   UNL     1       1.471   8.884  18.417  0.00  0.00    +0.000 C 
ATOM      3  O   UNL     1       1.532   8.931  19.638  0.00  0.00    +0.000 OA
ATOM      4  N   UNL     1       0.713   9.721  17.623  0.00  0.00    +0.000 N 
ATOM      5  H   UNL     1       2.098   7.931  16.681  0.00  0.00    +0.000 HD
ATOM      6  H   UNL     1       0.207   9.211  16.912  0.00  0.00    +0.000 HD
ENDROOT
BRANCH   4   7
ATOM      7  C   UNL     1       0.029  10.823  18.189  0.00  0.00    +0.000 A 
ATOM      8  C   UNL     1      -1.364  10.892  18.273  0.00  0.00    +0.000 A 
ATOM      9  C   UNL     1      -2.002  11.989  18.889  0.00  0.00    +0.000 A 
ATOM     10  C   UNL     1      -1.291  13.063  19.392  0.00  0.00    +0.000 A 
ATOM     11  C   UNL     1       0.088  13.003  19.282  0.00  0.00    +0.000 A 
ATOM     12  C   UNL     1       0.747  11.891  18.720  0.00  0.00    +0.000 A 
ATOM     13  C   UNL     1       2.225  12.151  18.648  0.00  0.00    +0.000 C 
ATOM     14  C   UNL     1       2.392  13.359  19.582  0.00  0.00    +0.000 C 
ATOM     15  C   UNL     1       1.052  14.096  19.622  0.00  0.00    +0.000 C 
ATOM     16  C   UNL     1      -3.487  11.794  18.956  0.00  0.00    +0.000 C 
ATOM     17  C   UNL     1      -3.700  10.676  17.936  0.00  0.00    +0.000 C 
ATOM     18  C   UNL     1      -2.390   9.883  17.865  0.00  0.00    +0.000 C 
ENDBRANCH   4   7
BRANCH   1  19
ATOM     19  C   UNL     1       3.080   6.993  18.338  0.00  0.00    +0.000 C 
BRANCH  19  20
ATOM     20  C   UNL     1       2.245   5.842  18.926  0.00  0.00    +0.000 C 
ATOM     21  O   UNL     1       1.952   5.748  20.113  0.00  0.00    +0.000 OA
BRANCH  20  22
ATOM     22  O   UNL     1       1.912   4.935  17.964  0.00  0.00    +0.000 OA
BRANCH  22  24
ATOM     23  C   UNL     1       0.990   2.803  18.609  0.00  0.00    +0.000 C 
ATOM     24  C   UNL     1       2.242   3.562  18.226  0.00  0.00    +0.000 C 
ENDBRANCH  22  24
ENDBRANCH  20  22
ENDBRANCH  19  20
BRANCH  19  25
ATOM     25  C   UNL     1       4.207   6.469  17.413  0.00  0.00    +0.000 C 
BRANCH  25  26
ATOM     26  C   UNL     1       5.519   6.172  18.097  0.00  0.00    +0.000 A 
ATOM     27  C   UNL     1       6.696   6.800  17.709  0.00  0.00    +0.000 A 
ATOM     28  C   UNL     1       7.866   6.509  18.380  0.00  0.00    +0.000 A 
ATOM     29  N   UNL     1       7.916   5.617  19.387  0.00  0.00    +0.000 NA
ATOM     30  N   UNL     1       6.776   4.988  19.772  0.00  0.00    +0.000 NA
ATOM     31  C   UNL     1       5.614   5.273  19.146  0.00  0.00    +0.000 A 
ENDBRANCH  25  26
ENDBRANCH  19  25
ENDBRANCH   1  19
TORSDOF 7
ENDMDL
MODEL 6
REMARK VINA RESULT:      -7.4      2.286      8.686
REMARK  Name = 
REMARK  8 active torsions:
REMARK  status: ('A' for Active; 'I' for Inactive)
REMARK    1  A    between atoms: C_1  and  C_2
REMARK    2  A    between atoms: C_2  and  O_3
REMARK    3  A    between atoms: O_3  and  C_4
REMARK    4  A    between atoms: C_4  and  C_6
REMARK    5  A    between atoms: C_6  and  C_7
REMARK    6  A    between atoms: C_6  and  N_14
REMARK    7  A    between atoms: C_7  and  C_8
REMARK    8  A    between atoms: N_17  and  C_18
REMARK                            x       y       z     vdW  Elec       q    Type
REMARK                         _______ _______ _______ _____ _____    ______ ____
ROOT
ATOM      1  N   UNL     1       2.085   7.948  20.663  0.00  0.00    +0.000 N 
ATOM      2  C   UNL     1       2.230   6.998  19.684  0.00  0.00    +0.000 C 
ATOM      3  O   UNL     1       1.480   6.944  18.721  0.00  0.00    +0.000 OA
ATOM      4  N   UNL     1       3.302   6.159  19.911  0.00  0.00    +0.000 N 
ATOM      5  H   UNL     1       2.697   7.949  21.471  0.00  0.00    +0.000 HD
ATOM      6  H   UNL     1       3.328   5.828  20.866  0.00  0.00    +0.000 HD
ENDROOT
BRANCH   4   7
ATOM      7  C   UNL     1       3.701   5.222  18.927  0.00  0.00    +0.000 A 
ATOM      8  C   UNL     1       3.080   3.982  18.762  0.00  0.00    +0.000 A 
ATOM      9  C   UNL     1       3.479   3.099  17.736  0.00  0.00    +0.000 A 
ATOM     10  C   UNL     1       4.526   3.393  16.883  0.00  0.00    +0.000 A 
ATOM     11  C   UNL     1       5.156   4.611  17.067  0.00  0.00    +0.000 A 
ATOM     12  C   UNL     1       4.737   5.531  18.050  0.00  0.00    +0.000 A 
ATOM     13  C   UNL     1       5.663   6.713  18.078  0.00  0.00    +0.000 C 
ATOM     14  C   UNL     1       6.425   6.566  16.752  0.00  0.00    +0.000 C 
ATOM     15  C   UNL     1       6.391   5.085  16.367  0.00  0.00    +0.000 C 
ATOM     16  C   UNL     1       2.604   1.882  17.688  0.00  0.00    +0.000 C 
ATOM     17  C   UNL     1       1.924   1.934  19.055  0.00  0.00    +0.000 C 
ATOM     18  C   UNL     1       1.907   3.404  19.490  0.00  0.00    +0.000 C 
ENDBRANCH   4   7
BRANCH   1  19
ATOM     19  C   UNL     1       1.010   8.954  20.612  0.00  0.00    +0.000 C 
BRANCH  19  20
ATOM     20  C   UNL     1       0.685   9.444  22.034  0.00  0.00    +0.000 C 
ATOM     21  O   UNL     1       1.525   9.586  22.916  0.00  0.00    +0.000 OA
BRANCH  20  22
ATOM     22  O   UNL     1      -0.652   9.660  22.186  0.00  0.00    +0.000 OA
BRANCH  22  24
ATOM     23  C   UNL     1      -1.023  12.004  22.607  0.00  0.00    +0.000 C 
ATOM     24  C   UNL     1      -1.046  10.608  23.190  0.00  0.00    +0.000 C 
ENDBRANCH  22  24
ENDBRANCH  20  22
ENDBRANCH  19  20
BRANCH  19  25
ATOM     25  C   UNL     1       1.311  10.134  19.655  0.00  0.00    +0.000 C 
BRANCH  25  26
ATOM     26  C   UNL     1       0.125  10.657  18.882  0.00  0.00    +0.000 A 
ATOM     27  C   UNL     1      -0.286  11.980  18.995  0.00  0.00    +0.000 A 
ATOM     28  C   UNL     1      -1.364  12.415  18.251  0.00  0.00    +0.000 A 
ATOM     29  N   UNL     1      -2.050  11.597  17.432  0.00  0.00    +0.000 NA
ATOM     30  N   UNL     1      -1.666  10.299  17.316  0.00  0.00    +0.000 NA
ATOM     31  C   UNL     1      -0.600   9.856  18.016  0.00  0.00    +0.000 A 
ENDBRANCH  25  26
ENDBRANCH  19  25
ENDBRANCH   1  19
TORSDOF 7
ENDMDL
MODEL 7
REMARK VINA RESULT:      -7.4      1.991      8.883
REMARK  Name = 
REMARK  8 active torsions:
REMARK  status: ('A' for Active; 'I' for Inactive)
REMARK    1  A    between atoms: C_1  and  C_2
REMARK    2  A    between atoms: C_2  and  O_3
REMARK    3  A    between atoms: O_3  and  C_4
REMARK    4  A    between atoms: C_4  and  C_6
REMARK    5  A    between atoms: C_6  and  C_7
REMARK    6  A    between atoms: C_6  and  N_14
REMARK    7  A    between atoms: C_7  and  C_8
REMARK    8  A    between atoms: N_17  and  C_18
REMARK                            x       y       z     vdW  Elec       q    Type
REMARK                         _______ _______ _______ _____ _____    ______ ____
ROOT
ATOM      1  N   UNL     1       1.624   8.931  18.488  0.00  0.00    +0.000 N 
ATOM      2  C   UNL     1       2.379   7.810  18.724  0.00  0.00    +0.000 C 
ATOM      3  O   UNL     1       2.593   7.401  19.856  0.00  0.00    +0.000 OA
ATOM      4  N   UNL     1       2.831   7.218  17.562  0.00  0.00    +0.000 N 
ATOM      5  H   UNL     1       1.492   9.271  17.543  0.00  0.00    +0.000 HD
ATOM      6  H   UNL     1       3.219   7.894  16.919  0.00  0.00    +0.000 HD
ENDROOT
BRANCH   4   7
ATOM      7  C   UNL     1       3.488   5.965  17.603  0.00  0.00    +0.000 A 
ATOM      8  C   UNL     1       2.810   4.754  17.762  0.00  0.00    +0.000 A 
ATOM      9  C   UNL     1       3.502   3.525  17.748  0.00  0.00    +0.000 A 
ATOM     10  C   UNL     1       4.877   3.460  17.627  0.00  0.00    +0.000 A 
ATOM     11  C   UNL     1       5.549   4.663  17.497  0.00  0.00    +0.000 A 
ATOM     12  C   UNL     1       4.871   5.898  17.453  0.00  0.00    +0.000 A 
ATOM     13  C   UNL     1       5.861   7.027  17.405  0.00  0.00    +0.000 C 
ATOM     14  C   UNL     1       7.165   6.306  17.031  0.00  0.00    +0.000 C 
ATOM     15  C   UNL     1       7.033   4.854  17.494  0.00  0.00    +0.000 C 
ATOM     16  C   UNL     1       2.558   2.363  17.829  0.00  0.00    +0.000 C 
ATOM     17  C   UNL     1       1.278   3.035  18.324  0.00  0.00    +0.000 C 
ATOM     18  C   UNL     1       1.339   4.498  17.870  0.00  0.00    +0.000 C 
ENDBRANCH   4   7
BRANCH   1  19
ATOM     19  C   UNL     1       1.033   9.711  19.589  0.00  0.00    +0.000 C 
BRANCH  19  20
ATOM     20  C   UNL     1       1.386  11.199  19.423  0.00  0.00    +0.000 C 
ATOM     21  O   UNL     1       1.860  11.679  18.399  0.00  0.00    +0.000 OA
BRANCH  20  22
ATOM     22  O   UNL     1       1.135  11.894  20.569  0.00  0.00    +0.000 OA
BRANCH  22  24
ATOM     23  C   UNL     1      -0.265  13.725  21.275  0.00  0.00    +0.000 C 
ATOM     24  C   UNL     1       0.923  13.309  20.436  0.00  0.00    +0.000 C 
ENDBRANCH  22  24
ENDBRANCH  20  22
ENDBRANCH  19  20
BRANCH  19  25
ATOM     25  C   UNL     1      -0.493   9.498  19.749  0.00  0.00    +0.000 C 
BRANCH  25  26
ATOM     26  C   UNL     1      -1.354  10.189  18.721  0.00  0.00    +0.000 A 
ATOM     27  C   UNL     1      -1.445   9.717  17.417  0.00  0.00    +0.000 A 
ATOM     28  C   UNL     1      -2.263  10.373  16.520  0.00  0.00    +0.000 A 
ATOM     29  N   UNL     1      -2.963  11.472  16.854  0.00  0.00    +0.000 NA
ATOM     30  N   UNL     1      -2.878  11.952  18.122  0.00  0.00    +0.000 NA
ATOM     31  C   UNL     1      -2.103  11.314  19.024  0.00  0.00    +0.000 A 
ENDBRANCH  25  26
ENDBRANCH  19  25
ENDBRANCH   1  19
TORSDOF 7
ENDMDL
MODEL 8
REMARK VINA RESULT:      -7.4      2.420      8.324
REMARK  Name = 
REMARK  8 active torsions:
REMARK  status: ('A' for Active; 'I' for Inactive)
REMARK    1  A    between atoms: C_1  and  C_2
REMARK    2  A    between atoms: C_2  and  O_3
REMARK    3  A    between atoms: O_3  and  C_4
REMARK    4  A    between atoms: C_4  and  C_6
REMARK    5  A    between atoms: C_6  and  C_7
REMARK    6  A    between atoms: C_6  and  N_14
REMARK    7  A    between atoms: C_7  and  C_8
REMARK    8  A    between atoms: N_17  and  C_18
REMARK                            x       y       z     vdW  Elec       q    Type
REMARK                         _______ _______ _______ _____ _____    ______ ____
ROOT
ATOM      1  N   UNL     1       1.844   8.209  20.894  0.00  0.00    +0.000 N 
ATOM      2  C   UNL     1       1.889   7.232  19.932  0.00  0.00    +0.000 C 
ATOM      3  O   UNL     1       1.040   7.149  19.056  0.00  0.00    +0.000 OA
ATOM      4  N   UNL     1       2.983   6.402  20.066  0.00  0.00    +0.000 N 
ATOM      5  H   UNL     1       2.539   8.235  21.632  0.00  0.00    +0.000 HD
ATOM      6  H   UNL     1       3.113   6.099  21.021  0.00  0.00    +0.000 HD
ENDROOT
BRANCH   4   7
ATOM      7  C   UNL     1       3.280   5.439  19.072  0.00  0.00    +0.000 A 
ATOM      8  C   UNL     1       4.077   5.716  17.958  0.00  0.00    +0.000 A 
ATOM      9  C   UNL     1       4.386   4.711  17.017  0.00  0.00    +0.000 A 
ATOM     10  C   UNL     1       3.884   3.428  17.123  0.00  0.00    +0.000 A 
ATOM     11  C   UNL     1       3.072   3.165  18.213  0.00  0.00    +0.000 A 
ATOM     12  C   UNL     1       2.796   4.139  19.194  0.00  0.00    +0.000 A 
ATOM     13  C   UNL     1       1.818   3.598  20.197  0.00  0.00    +0.000 C 
ATOM     14  C   UNL     1       1.861   2.088  19.917  0.00  0.00    +0.000 C 
ATOM     15  C   UNL     1       2.306   1.905  18.464  0.00  0.00    +0.000 C 
ATOM     16  C   UNL     1       5.336   5.213  15.971  0.00  0.00    +0.000 C 
ATOM     17  C   UNL     1       5.217   6.727  16.142  0.00  0.00    +0.000 C 
ATOM     18  C   UNL     1       4.793   6.978  17.594  0.00  0.00    +0.000 C 
ENDBRANCH   4   7
BRANCH   1  19
ATOM     19  C   UNL     1       0.765   9.211  20.930  0.00  0.00    +0.000 C 
BRANCH  19  20
ATOM     20  C   UNL     1       0.529   9.673  22.378  0.00  0.00    +0.000 C 
ATOM     21  O   UNL     1       1.375   9.604  23.264  0.00  0.00    +0.000 OA
BRANCH  20  22
ATOM     22  O   UNL     1      -0.744  10.129  22.548  0.00  0.00    +0.000 OA
BRANCH  22  24
ATOM     23  C   UNL     1      -2.363  11.834  23.081  0.00  0.00    +0.000 C 
ATOM     24  C   UNL     1      -0.895  11.509  22.918  0.00  0.00    +0.000 C 
ENDBRANCH  22  24
ENDBRANCH  20  22
ENDBRANCH  19  20
BRANCH  19  25
ATOM     25  C   UNL     1       1.000  10.409  19.977  0.00  0.00    +0.000 C 
BRANCH  25  26
ATOM     26  C   UNL     1      -0.167  10.769  19.091  0.00  0.00    +0.000 A 
ATOM     27  C   UNL     1      -0.868  11.957  19.263  0.00  0.00    +0.000 A 
ATOM     28  C   UNL     1      -1.915  12.249  18.413  0.00  0.00    +0.000 A 
ATOM     29  N   UNL     1      -2.300  11.413  17.432  0.00  0.00    +0.000 NA
ATOM     30  N   UNL     1      -1.631  10.244  17.255  0.00  0.00    +0.000 NA
ATOM     31  C   UNL     1      -0.589   9.947  18.060  0.00  0.00    +0.000 A 
ENDBRANCH  25  26
ENDBRANCH  19  25
ENDBRANCH   1  19
TORSDOF 7
ENDMDL
MODEL 9
REMARK VINA RESULT:      -7.3      2.516      8.645
REMARK  Name = 
REMARK  8 active torsions:
REMARK  status: ('A' for Active; 'I' for Inactive)
REMARK    1  A    between atoms: C_1  and  C_2
REMARK    2  A    between atoms: C_2  and  O_3
REMARK    3  A    between atoms: O_3  and  C_4
REMARK    4  A    between atoms: C_4  and  C_6
REMARK    5  A    between atoms: C_6  and  C_7
REMARK    6  A    between atoms: C_6  and  N_14
REMARK    7  A    between atoms: C_7  and  C_8
REMARK    8  A    between atoms: N_17  and  C_18
REMARK                            x       y       z     vdW  Elec       q    Type
REMARK                         _______ _______ _______ _____ _____    ______ ____
ROOT
ATOM      1  N   UNL     1       1.866   8.339  20.843  0.00  0.00    +0.000 N 
ATOM      2  C   UNL     1       1.870   7.255  20.003  0.00  0.00    +0.000 C 
ATOM      3  O   UNL     1       0.928   7.005  19.265  0.00  0.00    +0.000 OA
ATOM      4  N   UNL     1       3.038   6.524  20.083  0.00  0.00    +0.000 N 
ATOM      5  H   UNL     1       2.644   8.504  21.472  0.00  0.00    +0.000 HD
ATOM      6  H   UNL     1       3.312   6.352  21.041  0.00  0.00    +0.000 HD
ENDROOT
BRANCH   4   7
ATOM      7  C   UNL     1       3.286   5.466  19.176  0.00  0.00    +0.000 A 
ATOM      8  C   UNL     1       2.796   4.171  19.365  0.00  0.00    +0.000 A 
ATOM      9  C   UNL     1       3.027   3.159  18.410  0.00  0.00    +0.000 A 
ATOM     10  C   UNL     1       3.784   3.381  17.275  0.00  0.00    +0.000 A 
ATOM     11  C   UNL     1       4.291   4.658  17.105  0.00  0.00    +0.000 A 
ATOM     12  C   UNL     1       4.025   5.698  18.019  0.00  0.00    +0.000 A 
ATOM     13  C   UNL     1       4.781   6.935  17.627  0.00  0.00    +0.000 C 
ATOM     14  C   UNL     1       5.198   6.621  16.182  0.00  0.00    +0.000 C 
ATOM     15  C   UNL     1       5.245   5.098  16.039  0.00  0.00    +0.000 C 
ATOM     16  C   UNL     1       2.319   1.888  18.774  0.00  0.00    +0.000 C 
ATOM     17  C   UNL     1       2.003   2.121  20.251  0.00  0.00    +0.000 C 
ATOM     18  C   UNL     1       1.920   3.638  20.455  0.00  0.00    +0.000 C 
ENDBRANCH   4   7
BRANCH   1  19
ATOM     19  C   UNL     1       0.721   9.263  20.909  0.00  0.00    +0.000 C 
BRANCH  19  20
ATOM     20  C   UNL     1       0.493   9.711  22.363  0.00  0.00    +0.000 C 
ATOM     21  O   UNL     1       1.342   9.628  23.244  0.00  0.00    +0.000 OA
BRANCH  20  22
ATOM     22  O   UNL     1      -0.777  10.173  22.542  0.00  0.00    +0.000 OA
BRANCH  22  24
ATOM     23  C   UNL     1      -2.377  11.867  23.160  0.00  0.00    +0.000 C 
ATOM     24  C   UNL     1      -0.919  11.558  22.896  0.00  0.00    +0.000 C 
ENDBRANCH  22  24
ENDBRANCH  20  22
ENDBRANCH  19  20
BRANCH  19  25
ATOM     25  C   UNL     1       0.844  10.472  19.949  0.00  0.00    +0.000 C 
BRANCH  25  26
ATOM     26  C   UNL     1      -0.363  10.737  19.083  0.00  0.00    +0.000 A 
ATOM     27  C   UNL     1      -0.676   9.915  18.007  0.00  0.00    +0.000 A 
ATOM     28  C   UNL     1      -1.803  10.188  17.259  0.00  0.00    +0.000 A 
ATOM     29  N   UNL     1      -2.603  11.239  17.518  0.00  0.00    +0.000 NA
ATOM     30  N   UNL     1      -2.305  12.057  18.561  0.00  0.00    +0.000 NA
ATOM     31  C   UNL     1      -1.221  11.797  19.322  0.00  0.00    +0.000 A 
ENDBRANCH  25  26
ENDBRANCH  19  25
ENDBRANCH   1  19
TORSDOF 7
ENDMDL
