MODEL 1
REMARK VINA RESULT:      -8.4      0.000      0.000
REMARK  Name = 
REMARK  3 active torsions:
REMARK  status: ('A' for Active; 'I' for Inactive)
REMARK    1  A    between atoms: C_1  and  C_2
REMARK    2  A    between atoms: N_5  and  N_6
REMARK    3  A    between atoms: N_18  and  C_19
REMARK                            x       y       z     vdW  Elec       q    Type
REMARK                         _______ _______ _______ _____ _____    ______ ____
ROOT
ATOM      1  C   UNL     1       1.256   2.094  18.946  0.00  0.00    +0.000 C 
ATOM      2  C   UNL     1       1.718   3.379  18.283  0.00  0.00    +0.000 C 
ATOM      3  S   UNL     1       1.447   4.807  19.327  0.00  0.00    +0.000 S 
ATOM      4  C   UNL     1       3.035   5.465  18.976  0.00  0.00    +0.000 C 
ATOM      5  N   UNL     1       3.422   6.656  19.312  0.00  0.00    +0.000 NA
ATOM      6  N   UNL     1       3.820   4.553  18.295  0.00  0.00    +0.000 N 
ATOM      7  C   UNL     1       3.202   3.351  18.015  0.00  0.00    +0.000 C 
ATOM      8  O   UNL     1       3.718   2.339  17.561  0.00  0.00    +0.000 OA
ENDROOT
BRANCH   5   9
ATOM      9  N   UNL     1       2.483   7.404  20.031  0.00  0.00    +0.000 NA
ATOM     10  C   UNL     1       1.952   8.378  19.365  0.00  0.00    +0.000 C 
ATOM     11  C   UNL     1       2.175   8.798  17.901  0.00  0.00    +0.000 C 
ATOM     12  O   UNL     1       2.833   8.241  17.049  0.00  0.00    +0.000 OA
ATOM     13  N   UNL     1       1.428   9.950  17.743  0.00  0.00    +0.000 N 
ATOM     14  C   UNL     1       0.740  10.268  18.908  0.00  0.00    +0.000 A 
ATOM     15  C   UNL     1      -0.103  11.342  19.103  0.00  0.00    +0.000 A 
ATOM     16  C   UNL     1      -0.704  11.468  20.360  0.00  0.00    +0.000 A 
ATOM     17  C   UNL     1      -0.454  10.522  21.374  0.00  0.00    +0.000 A 
ATOM     18 BR   UNL     1      -1.305  10.732  23.052  0.00  0.00    +0.000 Br
ATOM     19  C   UNL     1       0.407   9.439  21.167  0.00  0.00    +0.000 A 
ATOM     20  C   UNL     1       0.992   9.342  19.917  0.00  0.00    +0.000 A 
ATOM     21  H   UNL     1       1.382  10.451  16.868  0.00  0.00    +0.000 HD
ENDBRANCH   5   9
BRANCH   6  22
ATOM     22  C   UNL     1       5.225   4.864  17.919  0.00  0.00    +0.000 C 
ATOM     23  C   UNL     1       5.911   3.867  16.968  0.00  0.00    +0.000 C 
ATOM     24  C   UNL     1       5.566   4.013  15.489  0.00  0.00    +0.000 C 
ATOM     25  C   UNL     1       5.488   5.454  14.979  0.00  0.00    +0.000 C 
ATOM     26  C   UNL     1       4.975   6.511  15.959  0.00  0.00    +0.000 C 
ATOM     27  C   UNL     1       5.423   6.296  17.398  0.00  0.00    +0.000 C 
ENDBRANCH   6  22
TORSDOF 2
ENDMDL
MODEL 2
REMARK VINA RESULT:      -8.3      1.185      1.760
REMARK  Name = 
REMARK  3 active torsions:
REMARK  status: ('A' for Active; 'I' for Inactive)
REMARK    1  A    between atoms: C_1  and  C_2
REMARK    2  A    between atoms: N_5  and  N_6
REMARK    3  A    between atoms: N_18  and  C_19
REMARK                            x       y       z     vdW  Elec       q    Type
REMARK                         _______ _______ _______ _____ _____    ______ ____
ROOT
ATOM      1  C   UNL     1       2.708   2.537  21.470  0.00  0.00    +0.000 C 
ATOM      2  C   UNL     1       2.179   3.301  20.269  0.00  0.00    +0.000 C 
ATOM      3  S   UNL     1       1.753   4.989  20.683  0.00  0.00    +0.000 S 
ATOM      4  C   UNL     1       2.521   5.623  19.238  0.00  0.00    +0.000 C 
ATOM      5  N   UNL     1       2.408   6.848  18.829  0.00  0.00    +0.000 NA
ATOM      6  N   UNL     1       3.261   4.649  18.592  0.00  0.00    +0.000 N 
ATOM      7  C   UNL     1       3.224   3.403  19.186  0.00  0.00    +0.000 C 
ATOM      8  O   UNL     1       3.901   2.425  18.900  0.00  0.00    +0.000 OA
ENDROOT
BRANCH   5   9
ATOM      9  N   UNL     1       1.642   7.680  19.654  0.00  0.00    +0.000 NA
ATOM     10  C   UNL     1       1.493   8.885  19.206  0.00  0.00    +0.000 C 
ATOM     11  C   UNL     1       1.998   9.510  17.893  0.00  0.00    +0.000 C 
ATOM     12  O   UNL     1       2.565   8.969  16.969  0.00  0.00    +0.000 OA
ATOM     13  N   UNL     1       1.633  10.841  17.969  0.00  0.00    +0.000 N 
ATOM     14  C   UNL     1       0.932  11.106  19.139  0.00  0.00    +0.000 A 
ATOM     15  C   UNL     1       0.413  12.320  19.536  0.00  0.00    +0.000 A 
ATOM     16  C   UNL     1      -0.271  12.360  20.756  0.00  0.00    +0.000 A 
ATOM     17  C   UNL     1      -0.422  11.194  21.533  0.00  0.00    +0.000 A 
ATOM     18 BR   UNL     1      -1.370  11.301  23.169  0.00  0.00    +0.000 Br
ATOM     19  C   UNL     1       0.113   9.969  21.124  0.00  0.00    +0.000 A 
ATOM     20  C   UNL     1       0.789   9.959  19.917  0.00  0.00    +0.000 A 
ATOM     21  H   UNL     1       1.835  11.503  17.233  0.00  0.00    +0.000 HD
ENDBRANCH   5   9
BRANCH   6  22
ATOM     22  C   UNL     1       4.040   4.953  17.362  0.00  0.00    +0.000 C 
ATOM     23  C   UNL     1       4.411   6.430  17.140  0.00  0.00    +0.000 C 
ATOM     24  C   UNL     1       5.610   6.941  17.932  0.00  0.00    +0.000 C 
ATOM     25  C   UNL     1       6.795   5.975  18.011  0.00  0.00    +0.000 C 
ATOM     26  C   UNL     1       6.472   4.481  18.055  0.00  0.00    +0.000 C 
ATOM     27  C   UNL     1       5.288   4.074  17.188  0.00  0.00    +0.000 C 
ENDBRANCH   6  22
TORSDOF 2
ENDMDL
MODEL 3
REMARK VINA RESULT:      -8.0      3.229      7.860
REMARK  Name = 
REMARK  3 active torsions:
REMARK  status: ('A' for Active; 'I' for Inactive)
REMARK    1  A    between atoms: C_1  and  C_2
REMARK    2  A    between atoms: N_5  and  N_6
REMARK    3  A    between atoms: N_18  and  C_19
REMARK                            x       y       z     vdW  Elec       q    Type
REMARK                         _______ _______ _______ _____ _____    ______ ____
ROOT
ATOM      1  C   UNL     1      -1.848  11.527  23.144  0.00  0.00    +0.000 C 
ATOM      2  C   UNL     1      -0.493  11.495  22.461  0.00  0.00    +0.000 C 
ATOM      3  S   UNL     1      -0.018   9.834  21.991  0.00  0.00    +0.000 S 
ATOM      4  C   UNL     1       0.533  10.353  20.409  0.00  0.00    +0.000 C 
ATOM      5  N   UNL     1       1.197   9.603  19.585  0.00  0.00    +0.000 NA
ATOM      6  N   UNL     1       0.170  11.663  20.152  0.00  0.00    +0.000 N 
ATOM      7  C   UNL     1      -0.512  12.287  21.177  0.00  0.00    +0.000 C 
ATOM      8  O   UNL     1      -1.065  13.378  21.144  0.00  0.00    +0.000 OA
ENDROOT
BRANCH   5   9
ATOM      9  N   UNL     1       1.426   8.296  20.028  0.00  0.00    +0.000 NA
ATOM     10  C   UNL     1       2.156   7.582  19.232  0.00  0.00    +0.000 C 
ATOM     11  C   UNL     1       2.832   7.977  17.906  0.00  0.00    +0.000 C 
ATOM     12  O   UNL     1       2.887   9.070  17.385  0.00  0.00    +0.000 OA
ATOM     13  N   UNL     1       3.405   6.810  17.437  0.00  0.00    +0.000 N 
ATOM     14  C   UNL     1       3.207   5.759  18.324  0.00  0.00    +0.000 A 
ATOM     15  C   UNL     1       3.647   4.461  18.179  0.00  0.00    +0.000 A 
ATOM     16  C   UNL     1       3.342   3.559  19.204  0.00  0.00    +0.000 A 
ATOM     17  C   UNL     1       2.619   3.979  20.339  0.00  0.00    +0.000 A 
ATOM     18 BR   UNL     1       2.246   2.722  21.704  0.00  0.00    +0.000 Br
ATOM     19  C   UNL     1       2.172   5.298  20.473  0.00  0.00    +0.000 A 
ATOM     20  C   UNL     1       2.482   6.166  19.442  0.00  0.00    +0.000 A 
ATOM     21  H   UNL     1       3.926   6.771  16.573  0.00  0.00    +0.000 HD
ENDBRANCH   5   9
BRANCH   6  22
ATOM     22  C   UNL     1       0.489  12.318  18.855  0.00  0.00    +0.000 C 
ATOM     23  C   UNL     1      -0.450  13.456  18.420  0.00  0.00    +0.000 C 
ATOM     24  C   UNL     1      -0.203  14.812  19.076  0.00  0.00    +0.000 C 
ATOM     25  C   UNL     1       1.269  15.202  19.227  0.00  0.00    +0.000 C 
ATOM     26  C   UNL     1       2.265  14.070  19.486  0.00  0.00    +0.000 C 
ATOM     27  C   UNL     1       1.950  12.780  18.740  0.00  0.00    +0.000 C 
ENDBRANCH   6  22
TORSDOF 2
ENDMDL
MODEL 4
REMARK VINA RESULT:      -7.9      3.623      8.428
REMARK  Name = 
REMARK  3 active torsions:
REMARK  status: ('A' for Active; 'I' for Inactive)
REMARK    1  A    between atoms: C_1  and  C_2
REMARK    2  A    between atoms: N_5  and  N_6
REMARK    3  A    between atoms: N_18  and  C_19
REMARK                            x       y       z     vdW  Elec       q    Type
REMARK                         _______ _______ _______ _____ _____    ______ ____
ROOT
ATOM      1  C   UNL     1      -3.600  10.695  16.807  0.00  0.00    +0.000 C 
ATOM      2  C   UNL     1      -2.822  10.346  18.063  0.00  0.00    +0.000 C 
ATOM      3  S   UNL     1      -1.148   9.831  17.694  0.00  0.00    +0.000 S 
ATOM      4  C   UNL     1      -0.478  10.802  18.992  0.00  0.00    +0.000 C 
ATOM      5  N   UNL     1       0.752  10.734  19.395  0.00  0.00    +0.000 NA
ATOM      6  N   UNL     1      -1.429  11.650  19.531  0.00  0.00    +0.000 N 
ATOM      7  C   UNL     1      -2.685  11.543  18.970  0.00  0.00    +0.000 C 
ATOM      8  O   UNL     1      -3.649  12.273  19.162  0.00  0.00    +0.000 OA
ENDROOT
BRANCH   5   9
ATOM      9  N   UNL     1       1.559   9.835  18.686  0.00  0.00    +0.000 NA
ATOM     10  C   UNL     1       1.761   8.709  19.290  0.00  0.00    +0.000 C 
ATOM     11  C   UNL     1       1.214   8.209  20.639  0.00  0.00    +0.000 C 
ATOM     12  O   UNL     1       0.408   8.743  21.370  0.00  0.00    +0.000 OA
ATOM     13  N   UNL     1       1.820   6.983  20.837  0.00  0.00    +0.000 N 
ATOM     14  C   UNL     1       2.635   6.644  19.764  0.00  0.00    +0.000 A 
ATOM     15  C   UNL     1       3.381   5.493  19.623  0.00  0.00    +0.000 A 
ATOM     16  C   UNL     1       4.128   5.350  18.449  0.00  0.00    +0.000 A 
ATOM     17  C   UNL     1       4.102   6.348  17.455  0.00  0.00    +0.000 A 
ATOM     18 BR   UNL     1       5.120   6.097  15.878  0.00  0.00    +0.000 Br
ATOM     19  C   UNL     1       3.346   7.514  17.610  0.00  0.00    +0.000 A 
ATOM     20  C   UNL     1       2.622   7.633  18.783  0.00  0.00    +0.000 A 
ATOM     21  H   UNL     1       1.642   6.415  21.653  0.00  0.00    +0.000 HD
ENDBRANCH   5   9
BRANCH   6  22
ATOM     22  C   UNL     1      -1.092  12.604  20.621  0.00  0.00    +0.000 C 
ATOM     23  C   UNL     1      -2.239  13.500  21.119  0.00  0.00    +0.000 C 
ATOM     24  C   UNL     1      -3.216  12.851  22.095  0.00  0.00    +0.000 C 
ATOM     25  C   UNL     1      -2.573  11.962  23.162  0.00  0.00    +0.000 C 
ATOM     26  C   UNL     1      -1.318  11.186  22.756  0.00  0.00    +0.000 C 
ATOM     27  C   UNL     1      -0.390  11.949  21.820  0.00  0.00    +0.000 C 
ENDBRANCH   6  22
TORSDOF 2
ENDMDL
MODEL 5
REMARK VINA RESULT:      -7.8      2.578      4.105
REMARK  Name = 
REMARK  3 active torsions:
REMARK  status: ('A' for Active; 'I' for Inactive)
REMARK    1  A    between atoms: C_1  and  C_2
REMARK    2  A    between atoms: N_5  and  N_6
REMARK    3  A    between atoms: N_18  and  C_19
REMARK                            x       y       z     vdW  Elec       q    Type
REMARK                         _______ _______ _______ _____ _____    ______ ____
ROOT
ATOM      1  C   UNL     1       5.313   5.262  16.036  0.00  0.00    +0.000 C 
ATOM      2  C   UNL     1       4.739   5.552  17.411  0.00  0.00    +0.000 C 
ATOM      3  S   UNL     1       4.014   7.185  17.504  0.00  0.00    +0.000 S 
ATOM      4  C   UNL     1       2.597   6.595  18.354  0.00  0.00    +0.000 C 
ATOM      5  N   UNL     1       1.703   7.359  18.901  0.00  0.00    +0.000 NA
ATOM      6  N   UNL     1       2.555   5.213  18.367  0.00  0.00    +0.000 N 
ATOM      7  C   UNL     1       3.622   4.595  17.747  0.00  0.00    +0.000 C 
ATOM      8  O   UNL     1       3.746   3.404  17.495  0.00  0.00    +0.000 OA
ENDROOT
BRANCH   5   9
ATOM      9  N   UNL     1       1.918   8.732  18.738  0.00  0.00    +0.000 NA
ATOM     10  C   UNL     1       1.316   9.475  19.611  0.00  0.00    +0.000 C 
ATOM     11  C   UNL     1       0.444   9.062  20.811  0.00  0.00    +0.000 C 
ATOM     12  O   UNL     1       0.218   7.948  21.231  0.00  0.00    +0.000 OA
ATOM     13  N   UNL     1      -0.013  10.253  21.345  0.00  0.00    +0.000 N 
ATOM     14  C   UNL     1       0.500  11.345  20.655  0.00  0.00    +0.000 A 
ATOM     15  C   UNL     1       0.261  12.676  20.920  0.00  0.00    +0.000 A 
ATOM     16  C   UNL     1       0.892  13.619  20.100  0.00  0.00    +0.000 A 
ATOM     17  C   UNL     1       1.742  13.206  19.055  0.00  0.00    +0.000 A 
ATOM     18 BR   UNL     1       2.583  14.524  17.985  0.00  0.00    +0.000 Br
ATOM     19  C   UNL     1       1.974  11.853  18.792  0.00  0.00    +0.000 A 
ATOM     20  C   UNL     1       1.332  10.942  19.613  0.00  0.00    +0.000 A 
ATOM     21  H   UNL     1      -0.613  10.289  22.156  0.00  0.00    +0.000 HD
ENDBRANCH   5   9
BRANCH   6  22
ATOM     22  C   UNL     1       1.426   4.475  18.995  0.00  0.00    +0.000 C 
ATOM     23  C   UNL     1       1.408   2.951  18.781  0.00  0.00    +0.000 C 
ATOM     24  C   UNL     1       2.336   2.141  19.681  0.00  0.00    +0.000 C 
ATOM     25  C   UNL     1       2.382   2.594  21.142  0.00  0.00    +0.000 C 
ATOM     26  C   UNL     1       2.225   4.092  21.410  0.00  0.00    +0.000 C 
ATOM     27  C   UNL     1       1.236   4.790  20.486  0.00  0.00    +0.000 C 
ENDBRANCH   6  22
TORSDOF 2
ENDMDL
MODEL 6
REMARK VINA RESULT:      -7.7      1.305      1.644
REMARK  Name = 
REMARK  3 active torsions:
REMARK  status: ('A' for Active; 'I' for Inactive)
REMARK    1  A    between atoms: C_1  and  C_2
REMARK    2  A    between atoms: N_5  and  N_6
REMARK    3  A    between atoms: N_18  and  C_19
REMARK                            x       y       z     vdW  Elec       q    Type
REMARK                         _______ _______ _______ _____ _____    ______ ____
ROOT
ATOM      1  C   UNL     1       1.718   2.974  20.942  0.00  0.00    +0.000 C 
ATOM      2  C   UNL     1       1.696   4.059  19.881  0.00  0.00    +0.000 C 
ATOM      3  S   UNL     1       1.225   5.648  20.556  0.00  0.00    +0.000 S 
ATOM      4  C   UNL     1       2.493   6.487  19.680  0.00  0.00    +0.000 C 
ATOM      5  N   UNL     1       2.592   7.777  19.597  0.00  0.00    +0.000 NA
ATOM      6  N   UNL     1       3.372   5.597  19.090  0.00  0.00    +0.000 N 
ATOM      7  C   UNL     1       3.066   4.265  19.284  0.00  0.00    +0.000 C 
ATOM      8  O   UNL     1       3.756   3.296  18.997  0.00  0.00    +0.000 OA
ENDROOT
BRANCH   5   9
ATOM      9  N   UNL     1       1.617   8.493  20.301  0.00  0.00    +0.000 NA
ATOM     10  C   UNL     1       1.099   9.480  19.644  0.00  0.00    +0.000 C 
ATOM     11  C   UNL     1       1.372   9.945  18.201  0.00  0.00    +0.000 C 
ATOM     12  O   UNL     1       2.067   9.420  17.359  0.00  0.00    +0.000 OA
ATOM     13  N   UNL     1       0.616  11.092  18.049  0.00  0.00    +0.000 N 
ATOM     14  C   UNL     1      -0.118  11.369  19.195  0.00  0.00    +0.000 A 
ATOM     15  C   UNL     1      -0.981  12.427  19.390  0.00  0.00    +0.000 A 
ATOM     16  C   UNL     1      -1.629  12.510  20.627  0.00  0.00    +0.000 A 
ATOM     17  C   UNL     1      -1.405  11.537  21.622  0.00  0.00    +0.000 A 
ATOM     18 BR   UNL     1      -2.320  11.689  23.273  0.00  0.00    +0.000 Br
ATOM     19  C   UNL     1      -0.524  10.471  21.416  0.00  0.00    +0.000 A 
ATOM     20  C   UNL     1       0.108  10.417  20.187  0.00  0.00    +0.000 A 
ATOM     21  H   UNL     1       0.596  11.618  17.187  0.00  0.00    +0.000 HD
ENDBRANCH   5   9
BRANCH   6  22
ATOM     22  C   UNL     1       4.557   6.067  18.324  0.00  0.00    +0.000 C 
ATOM     23  C   UNL     1       5.900   5.402  18.672  0.00  0.00    +0.000 C 
ATOM     24  C   UNL     1       6.143   4.028  18.054  0.00  0.00    +0.000 C 
ATOM     25  C   UNL     1       5.704   3.887  16.594  0.00  0.00    +0.000 C 
ATOM     26  C   UNL     1       4.468   4.678  16.161  0.00  0.00    +0.000 C 
ATOM     27  C   UNL     1       4.353   6.055  16.801  0.00  0.00    +0.000 C 
ENDBRANCH   6  22
TORSDOF 2
ENDMDL
MODEL 7
REMARK VINA RESULT:      -7.6      2.386      3.837
REMARK  Name = 
REMARK  3 active torsions:
REMARK  status: ('A' for Active; 'I' for Inactive)
REMARK    1  A    between atoms: C_1  and  C_2
REMARK    2  A    between atoms: N_5  and  N_6
REMARK    3  A    between atoms: N_18  and  C_19
REMARK                            x       y       z     vdW  Elec       q    Type
REMARK                         _______ _______ _______ _____ _____    ______ ____
ROOT
ATOM      1  C   UNL     1       5.208   6.234  15.595  0.00  0.00    +0.000 C 
ATOM      2  C   UNL     1       4.835   6.299  17.065  0.00  0.00    +0.000 C 
ATOM      3  S   UNL     1       3.876   7.761  17.450  0.00  0.00    +0.000 S 
ATOM      4  C   UNL     1       2.742   6.855  18.435  0.00  0.00    +0.000 C 
ATOM      5  N   UNL     1       1.840   7.396  19.193  0.00  0.00    +0.000 NA
ATOM      6  N   UNL     1       2.932   5.492  18.300  0.00  0.00    +0.000 N 
ATOM      7  C   UNL     1       3.966   5.131  17.459  0.00  0.00    +0.000 C 
ATOM      8  O   UNL     1       4.240   4.007  17.061  0.00  0.00    +0.000 OA
ENDROOT
BRANCH   5   9
ATOM      9  N   UNL     1       1.793   8.794  19.153  0.00  0.00    +0.000 NA
ATOM     10  C   UNL     1       1.084   9.332  20.092  0.00  0.00    +0.000 C 
ATOM     11  C   UNL     1       0.328   8.661  21.255  0.00  0.00    +0.000 C 
ATOM     12  O   UNL     1       0.321   7.492  21.574  0.00  0.00    +0.000 OA
ATOM     13  N   UNL     1      -0.329   9.695  21.896  0.00  0.00    +0.000 N 
ATOM     14  C   UNL     1      -0.041  10.919  21.304  0.00  0.00    +0.000 A 
ATOM     15  C   UNL     1      -0.516  12.155  21.689  0.00  0.00    +0.000 A 
ATOM     16  C   UNL     1      -0.088  13.266  20.955  0.00  0.00    +0.000 A 
ATOM     17  C   UNL     1       0.801  13.112  19.872  0.00  0.00    +0.000 A 
ATOM     18 BR   UNL     1       1.360  14.651  18.921  0.00  0.00    +0.000 Br
ATOM     19  C   UNL     1       1.273  11.853  19.487  0.00  0.00    +0.000 A 
ATOM     20  C   UNL     1       0.828  10.771  20.226  0.00  0.00    +0.000 A 
ATOM     21  H   UNL     1      -0.908   9.547  22.710  0.00  0.00    +0.000 HD
ENDBRANCH   5   9
BRANCH   6  22
ATOM     22  C   UNL     1       2.064   4.511  19.006  0.00  0.00    +0.000 C 
ATOM     23  C   UNL     1       1.466   3.387  18.142  0.00  0.00    +0.000 C 
ATOM     24  C   UNL     1       2.397   2.220  17.830  0.00  0.00    +0.000 C 
ATOM     25  C   UNL     1       3.266   1.752  19.000  0.00  0.00    +0.000 C 
ATOM     26  C   UNL     1       3.737   2.822  19.987  0.00  0.00    +0.000 C 
ATOM     27  C   UNL     1       2.709   3.910  20.264  0.00  0.00    +0.000 C 
ENDBRANCH   6  22
TORSDOF 2
ENDMDL
MODEL 8
REMARK VINA RESULT:      -7.5      3.640      8.244
REMARK  Name = 
REMARK  3 active torsions:
REMARK  status: ('A' for Active; 'I' for Inactive)
REMARK    1  A    between atoms: C_1  and  C_2
REMARK    2  A    between atoms: N_5  and  N_6
REMARK    3  A    between atoms: N_18  and  C_19
REMARK                            x       y       z     vdW  Elec       q    Type
REMARK                         _______ _______ _______ _____ _____    ______ ____
ROOT
ATOM      1  C   UNL     1      -3.326  11.139  16.403  0.00  0.00    +0.000 C 
ATOM      2  C   UNL     1      -2.793  10.472  17.658  0.00  0.00    +0.000 C 
ATOM      3  S   UNL     1      -1.105   9.914  17.457  0.00  0.00    +0.000 S 
ATOM      4  C   UNL     1      -0.628  10.535  19.027  0.00  0.00    +0.000 C 
ATOM      5  N   UNL     1       0.510  10.285  19.595  0.00  0.00    +0.000 NA
ATOM      6  N   UNL     1      -1.620  11.324  19.580  0.00  0.00    +0.000 N 
ATOM      7  C   UNL     1      -2.763  11.438  18.816  0.00  0.00    +0.000 C 
ATOM      8  O   UNL     1      -3.713  12.186  19.009  0.00  0.00    +0.000 OA
ENDROOT
BRANCH   5   9
ATOM      9  N   UNL     1       1.387   9.493  18.844  0.00  0.00    +0.000 NA
ATOM     10  C   UNL     1       1.707   8.371  19.403  0.00  0.00    +0.000 C 
ATOM     11  C   UNL     1       1.233   7.775  20.742  0.00  0.00    +0.000 C 
ATOM     12  O   UNL     1       0.391   8.203  21.501  0.00  0.00    +0.000 OA
ATOM     13  N   UNL     1       1.957   6.606  20.887  0.00  0.00    +0.000 N 
ATOM     14  C   UNL     1       2.782   6.385  19.791  0.00  0.00    +0.000 A 
ATOM     15  C   UNL     1       3.633   5.317  19.599  0.00  0.00    +0.000 A 
ATOM     16  C   UNL     1       4.370   5.287  18.410  0.00  0.00    +0.000 A 
ATOM     17  C   UNL     1       4.231   6.312  17.453  0.00  0.00    +0.000 A 
ATOM     18 BR   UNL     1       5.242   6.215  15.855  0.00  0.00    +0.000 Br
ATOM     19  C   UNL     1       3.370   7.393  17.660  0.00  0.00    +0.000 A 
ATOM     20  C   UNL     1       2.657   7.401  18.847  0.00  0.00    +0.000 A 
ATOM     21  H   UNL     1       1.848   5.996  21.684  0.00  0.00    +0.000 HD
ENDBRANCH   5   9
BRANCH   6  22
ATOM     22  C   UNL     1      -1.434  11.998  20.893  0.00  0.00    +0.000 C 
ATOM     23  C   UNL     1       0.016  12.132  21.390  0.00  0.00    +0.000 C 
ATOM     24  C   UNL     1       0.826  13.271  20.779  0.00  0.00    +0.000 C 
ATOM     25  C   UNL     1       0.069  14.591  20.612  0.00  0.00    +0.000 C 
ATOM     26  C   UNL     1      -1.424  14.499  20.291  0.00  0.00    +0.000 C 
ATOM     27  C   UNL     1      -2.144  13.357  20.996  0.00  0.00    +0.000 C 
ENDBRANCH   6  22
TORSDOF 2
ENDMDL
MODEL 9
REMARK VINA RESULT:      -7.4      3.719      8.801
REMARK  Name = 
REMARK  3 active torsions:
REMARK  status: ('A' for Active; 'I' for Inactive)
REMARK    1  A    between atoms: C_1  and  C_2
REMARK    2  A    between atoms: N_5  and  N_6
REMARK    3  A    between atoms: N_18  and  C_19
REMARK                            x       y       z     vdW  Elec       q    Type
REMARK                         _______ _______ _______ _____ _____    ______ ____
ROOT
ATOM      1  C   UNL     1       2.692  14.599  18.955  0.00  0.00    +0.000 C 
ATOM      2  C   UNL     1       1.578  13.635  18.590  0.00  0.00    +0.000 C 
ATOM      3  S   UNL     1       2.192  11.978  18.303  0.00  0.00    +0.000 S 
ATOM      4  C   UNL     1       0.892  11.250  19.230  0.00  0.00    +0.000 C 
ATOM      5  N   UNL     1       0.647   9.978  19.268  0.00  0.00    +0.000 NA
ATOM      6  N   UNL     1       0.163  12.206  19.914  0.00  0.00    +0.000 N 
ATOM      7  C   UNL     1       0.579  13.506  19.713  0.00  0.00    +0.000 C 
ATOM      8  O   UNL     1       0.202  14.507  20.309  0.00  0.00    +0.000 OA
ENDROOT
BRANCH   5   9
ATOM      9  N   UNL     1       1.532   9.182  18.531  0.00  0.00    +0.000 NA
ATOM     10  C   UNL     1       1.915   8.105  19.139  0.00  0.00    +0.000 C 
ATOM     11  C   UNL     1       1.507   7.565  20.523  0.00  0.00    +0.000 C 
ATOM     12  O   UNL     1       0.672   8.000  21.286  0.00  0.00    +0.000 OA
ATOM     13  N   UNL     1       2.283   6.436  20.707  0.00  0.00    +0.000 N 
ATOM     14  C   UNL     1       3.083   6.188  19.598  0.00  0.00    +0.000 A 
ATOM     15  C   UNL     1       3.971   5.145  19.436  0.00  0.00    +0.000 A 
ATOM     16  C   UNL     1       4.672   5.080  18.227  0.00  0.00    +0.000 A 
ATOM     17  C   UNL     1       4.462   6.044  17.221  0.00  0.00    +0.000 A 
ATOM     18 BR   UNL     1       5.427   5.899  15.598  0.00  0.00    +0.000 Br
ATOM     19  C   UNL     1       3.563   7.100  17.398  0.00  0.00    +0.000 A 
ATOM     20  C   UNL     1       2.887   7.145  18.605  0.00  0.00    +0.000 A 
ATOM     21  H   UNL     1       2.224   5.867  21.538  0.00  0.00    +0.000 HD
ENDBRANCH   5   9
BRANCH   6  22
ATOM     22  C   UNL     1      -0.969  11.831  20.803  0.00  0.00    +0.000 C 
ATOM     23  C   UNL     1      -0.744  12.035  22.312  0.00  0.00    +0.000 C 
ATOM     24  C   UNL     1      -0.917  13.462  22.824  0.00  0.00    +0.000 C 
ATOM     25  C   UNL     1      -2.104  14.225  22.231  0.00  0.00    +0.000 C 
ATOM     26  C   UNL     1      -2.473  13.918  20.778  0.00  0.00    +0.000 C 
ATOM     27  C   UNL     1      -2.311  12.454  20.391  0.00  0.00    +0.000 C 
ENDBRANCH   6  22
TORSDOF 2
ENDMDL
