MODEL 1
REMARK VINA RESULT:      -6.1      0.000      0.000
REMARK  Name = 
REMARK  10 active torsions:
REMARK  status: ('A' for Active; 'I' for Inactive)
REMARK    1  A    between atoms: C_8  and  O_9
REMARK    2  A    between atoms: C_17  and  O_18
REMARK    3  A    between atoms: C_20  and  O_21
REMARK    4  A    between atoms: O_21  and  C_22
REMARK    5  A    between atoms: C_24  and  C_25
REMARK    6  A    between atoms: C_25  and  O_26
REMARK    7  A    between atoms: C_27  and  O_28
REMARK    8  A    between atoms: C_29  and  O_30
REMARK    9  A    between atoms: C_31  and  O_32
REMARK   10  A    between atoms: C_34  and  O_35
REMARK                            x       y       z     vdW  Elec       q    Type
REMARK                         _______ _______ _______ _____ _____    ______ ____
ROOT
ATOM      1  O   UNL     1      -7.544  12.178  22.900  0.00  0.00    +0.000 OA
ATOM      2  C   UNL     1      -6.446  12.418  22.371  0.00  0.00    +0.000 C 
ATOM      3  C   UNL     1      -6.212  11.928  20.941  0.00  0.00    +0.000 C 
ATOM      4  C   UNL     1      -6.087  12.947  19.789  0.00  0.00    +0.000 C 
ATOM      5  C   UNL     1      -5.044  12.452  18.803  0.00  0.00    +0.000 A 
ATOM      6  C   UNL     1      -5.285  11.760  17.625  0.00  0.00    +0.000 A 
ATOM      7  C   UNL     1      -4.219  11.169  16.915  0.00  0.00    +0.000 A 
ATOM      8  C   UNL     1      -2.921  11.179  17.433  0.00  0.00    +0.000 A 
ATOM      9  C   UNL     1      -2.652  11.850  18.620  0.00  0.00    +0.000 A 
ATOM     10  C   UNL     1      -3.726  12.575  19.224  0.00  0.00    +0.000 A 
ATOM     11  C   UNL     1      -1.433  11.793  19.453  0.00  0.00    +0.000 A 
ATOM     12  C   UNL     1      -1.637  11.410  20.803  0.00  0.00    +0.000 A 
ATOM     13  C   UNL     1      -0.873  11.913  21.856  0.00  0.00    +0.000 A 
ATOM     14  C   UNL     1       0.325  12.543  21.508  0.00  0.00    +0.000 A 
ATOM     15  C   UNL     1       0.671  12.736  20.149  0.00  0.00    +0.000 A 
ATOM     16  C   UNL     1      -0.234  12.411  19.130  0.00  0.00    +0.000 A 
ATOM     17  C   UNL     1      -1.530  11.929  23.261  0.00  0.00    +0.000 C 
ATOM     18  C   UNL     1      -2.847  12.818  23.202  0.00  0.00    +0.000 C 
ATOM     19  C   UNL     1      -4.188  12.525  23.942  0.00  0.00    +0.000 C 
ATOM     20  C   UNL     1      -5.394  13.233  23.189  0.00  0.00    +0.000 C 
ENDROOT
BRANCH   8  21
ATOM     21  O   UNL     1      -1.954  10.528  16.739  0.00  0.00    +0.000 OA
ATOM     22  H   UNL     1      -2.348   9.700  16.417  0.00  0.00    +0.000 HD
ENDBRANCH   8  21
BRANCH  16  23
ATOM     23  O   UNL     1       0.007  12.770  17.836  0.00  0.00    +0.000 OA
ATOM     24  H   UNL     1      -0.689  13.365  17.519  0.00  0.00    +0.000 HD
ENDBRANCH  16  23
BRANCH  20  25
ATOM     25  O   UNL     1      -6.200  13.867  24.220  0.00  0.00    +0.000 OA
ATOM     26  H   UNL     1      -5.576  14.177  24.914  0.00  0.00    +0.000 HD
ENDBRANCH  20  25
BRANCH  18  27
ATOM     27  O   UNL     1      -2.597  14.225  23.304  0.00  0.00    +0.000 OA
BRANCH  27  28
ATOM     28  C   UNL     1      -2.768  15.035  22.138  0.00  0.00    +0.000 C 
ATOM     29  O   UNL     1      -1.600  15.224  21.353  0.00  0.00    +0.000 OA
ATOM     30  C   UNL     1      -1.911  15.905  20.111  0.00  0.00    +0.000 C 
ATOM     31  C   UNL     1      -2.648  17.251  20.328  0.00  0.00    +0.000 C 
ATOM     32  C   UNL     1      -3.701  17.206  21.449  0.00  0.00    +0.000 C 
ATOM     33  C   UNL     1      -3.259  16.387  22.657  0.00  0.00    +0.000 C 
BRANCH  31  34
ATOM     34  O   UNL     1      -3.345  17.630  19.128  0.00  0.00    +0.000 OA
ATOM     35  H   UNL     1      -3.959  18.344  19.382  0.00  0.00    +0.000 HD
ENDBRANCH  31  34
BRANCH  32  36
ATOM     36  O   UNL     1      -4.040  18.558  21.798  0.00  0.00    +0.000 OA
ATOM     37  H   UNL     1      -3.253  18.970  22.201  0.00  0.00    +0.000 HD
ENDBRANCH  32  36
BRANCH  33  38
ATOM     38  O   UNL     1      -4.384  16.194  23.535  0.00  0.00    +0.000 OA
ATOM     39  H   UNL     1      -4.004  16.063  24.429  0.00  0.00    +0.000 HD
ENDBRANCH  33  38
BRANCH  30  40
ATOM     40  C   UNL     1      -0.588  16.063  19.326  0.00  0.00    +0.000 C 
BRANCH  40  41
ATOM     41  O   UNL     1      -0.754  16.628  18.035  0.00  0.00    +0.000 OA
ATOM     42  H   UNL     1      -0.360  16.014  17.391  0.00  0.00    +0.000 HD
ENDBRANCH  40  41
ENDBRANCH  30  40
ENDBRANCH  27  28
ENDBRANCH  18  27
TORSDOF 10
ENDMDL
MODEL 2
REMARK VINA RESULT:      -6.1      2.655      5.579
REMARK  Name = 
REMARK  10 active torsions:
REMARK  status: ('A' for Active; 'I' for Inactive)
REMARK    1  A    between atoms: C_8  and  O_9
REMARK    2  A    between atoms: C_17  and  O_18
REMARK    3  A    between atoms: C_20  and  O_21
REMARK    4  A    between atoms: O_21  and  C_22
REMARK    5  A    between atoms: C_24  and  C_25
REMARK    6  A    between atoms: C_25  and  O_26
REMARK    7  A    between atoms: C_27  and  O_28
REMARK    8  A    between atoms: C_29  and  O_30
REMARK    9  A    between atoms: C_31  and  O_32
REMARK   10  A    between atoms: C_34  and  O_35
REMARK                            x       y       z     vdW  Elec       q    Type
REMARK                         _______ _______ _______ _____ _____    ______ ____
ROOT
ATOM      1  O   UNL     1      -0.816  13.340  23.838  0.00  0.00    +0.000 OA
ATOM      2  C   UNL     1      -1.284  13.201  22.695  0.00  0.00    +0.000 C 
ATOM      3  C   UNL     1      -2.781  12.923  22.558  0.00  0.00    +0.000 C 
ATOM      4  C   UNL     1      -3.710  13.990  21.941  0.00  0.00    +0.000 C 
ATOM      5  C   UNL     1      -4.770  13.297  21.104  0.00  0.00    +0.000 A 
ATOM      6  C   UNL     1      -6.063  12.985  21.501  0.00  0.00    +0.000 A 
ATOM      7  C   UNL     1      -6.871  12.149  20.704  0.00  0.00    +0.000 A 
ATOM      8  C   UNL     1      -6.356  11.536  19.559  0.00  0.00    +0.000 A 
ATOM      9  C   UNL     1      -5.059  11.816  19.144  0.00  0.00    +0.000 A 
ATOM     10  C   UNL     1      -4.328  12.795  19.886  0.00  0.00    +0.000 A 
ATOM     11  C   UNL     1      -4.250  11.119  18.124  0.00  0.00    +0.000 A 
ATOM     12  C   UNL     1      -3.002  10.618  18.576  0.00  0.00    +0.000 A 
ATOM     13  C   UNL     1      -1.868  10.569  17.765  0.00  0.00    +0.000 A 
ATOM     14  C   UNL     1      -2.081  10.707  16.390  0.00  0.00    +0.000 A 
ATOM     15  C   UNL     1      -3.373  10.981  15.885  0.00  0.00    +0.000 A 
ATOM     16  C   UNL     1      -4.440  11.241  16.755  0.00  0.00    +0.000 A 
ATOM     17  C   UNL     1      -0.490  10.601  18.476  0.00  0.00    +0.000 C 
ATOM     18  C   UNL     1      -0.377  11.944  19.319  0.00  0.00    +0.000 C 
ATOM     19  C   UNL     1       0.286  12.096  20.722  0.00  0.00    +0.000 C 
ATOM     20  C   UNL     1      -0.318  13.357  21.478  0.00  0.00    +0.000 C 
ENDROOT
BRANCH   8  21
ATOM     21  O   UNL     1      -7.162  10.683  18.877  0.00  0.00    +0.000 OA
ATOM     22  H   UNL     1      -7.595  10.118  19.538  0.00  0.00    +0.000 HD
ENDBRANCH   8  21
BRANCH  16  23
ATOM     23  O   UNL     1      -5.637  11.696  16.284  0.00  0.00    +0.000 OA
ATOM     24  H   UNL     1      -5.707  11.530  15.332  0.00  0.00    +0.000 HD
ENDBRANCH  16  23
BRANCH  20  25
ATOM     25  O   UNL     1       0.815  14.069  22.048  0.00  0.00    +0.000 OA
ATOM     26  H   UNL     1       0.469  14.583  22.812  0.00  0.00    +0.000 HD
ENDBRANCH  20  25
BRANCH  18  27
ATOM     27  O   UNL     1       0.001  13.084  18.538  0.00  0.00    +0.000 OA
BRANCH  27  28
ATOM     28  C   UNL     1       1.128  13.858  18.960  0.00  0.00    +0.000 C 
ATOM     29  O   UNL     1       0.904  15.257  19.049  0.00  0.00    +0.000 OA
ATOM     30  C   UNL     1       2.040  15.929  19.649  0.00  0.00    +0.000 C 
ATOM     31  C   UNL     1       3.374  15.634  18.917  0.00  0.00    +0.000 C 
ATOM     32  C   UNL     1       3.517  14.172  18.458  0.00  0.00    +0.000 C 
ATOM     33  C   UNL     1       2.217  13.579  17.923  0.00  0.00    +0.000 C 
BRANCH  31  34
ATOM     34  O   UNL     1       4.485  15.898  19.790  0.00  0.00    +0.000 OA
ATOM     35  H   UNL     1       4.635  16.862  19.759  0.00  0.00    +0.000 HD
ENDBRANCH  31  34
BRANCH  32  36
ATOM     36  O   UNL     1       4.584  14.107  17.497  0.00  0.00    +0.000 OA
ATOM     37  H   UNL     1       4.659  14.982  17.074  0.00  0.00    +0.000 HD
ENDBRANCH  32  36
BRANCH  33  38
ATOM     38  O   UNL     1       2.379  12.158  17.755  0.00  0.00    +0.000 OA
ATOM     39  H   UNL     1       1.477  11.803  17.608  0.00  0.00    +0.000 HD
ENDBRANCH  33  38
BRANCH  30  40
ATOM     40  C   UNL     1       1.708  17.439  19.708  0.00  0.00    +0.000 C 
BRANCH  40  41
ATOM     41  O   UNL     1       2.789  18.245  20.147  0.00  0.00    +0.000 OA
ATOM     42  H   UNL     1       3.160  18.692  19.367  0.00  0.00    +0.000 HD
ENDBRANCH  40  41
ENDBRANCH  30  40
ENDBRANCH  27  28
ENDBRANCH  18  27
TORSDOF 10
ENDMDL
MODEL 3
REMARK VINA RESULT:      -5.9      2.592      5.165
REMARK  Name = 
REMARK  10 active torsions:
REMARK  status: ('A' for Active; 'I' for Inactive)
REMARK    1  A    between atoms: C_8  and  O_9
REMARK    2  A    between atoms: C_17  and  O_18
REMARK    3  A    between atoms: C_20  and  O_21
REMARK    4  A    between atoms: O_21  and  C_22
REMARK    5  A    between atoms: C_24  and  C_25
REMARK    6  A    between atoms: C_25  and  O_26
REMARK    7  A    between atoms: C_27  and  O_28
REMARK    8  A    between atoms: C_29  and  O_30
REMARK    9  A    between atoms: C_31  and  O_32
REMARK   10  A    between atoms: C_34  and  O_35
REMARK                            x       y       z     vdW  Elec       q    Type
REMARK                         _______ _______ _______ _____ _____    ______ ____
ROOT
ATOM      1  O   UNL     1      -2.470  13.649  24.470  0.00  0.00    +0.000 OA
ATOM      2  C   UNL     1      -2.598  13.435  23.253  0.00  0.00    +0.000 C 
ATOM      3  C   UNL     1      -3.990  13.085  22.725  0.00  0.00    +0.000 C 
ATOM      4  C   UNL     1      -4.741  14.079  21.815  0.00  0.00    +0.000 C 
ATOM      5  C   UNL     1      -5.508  13.301  20.761  0.00  0.00    +0.000 A 
ATOM      6  C   UNL     1      -6.850  12.952  20.804  0.00  0.00    +0.000 A 
ATOM      7  C   UNL     1      -7.381  12.044  19.865  0.00  0.00    +0.000 A 
ATOM      8  C   UNL     1      -6.552  11.399  18.944  0.00  0.00    +0.000 A 
ATOM      9  C   UNL     1      -5.199  11.716  18.886  0.00  0.00    +0.000 A 
ATOM     10  C   UNL     1      -4.731  12.760  19.743  0.00  0.00    +0.000 A 
ATOM     11  C   UNL     1      -4.118  11.007  18.171  0.00  0.00    +0.000 A 
ATOM     12  C   UNL     1      -3.031  10.584  18.978  0.00  0.00    +0.000 A 
ATOM     13  C   UNL     1      -1.716  10.545  18.515  0.00  0.00    +0.000 A 
ATOM     14  C   UNL     1      -1.543  10.608  17.129  0.00  0.00    +0.000 A 
ATOM     15  C   UNL     1      -2.652  10.800  16.272  0.00  0.00    +0.000 A 
ATOM     16  C   UNL     1      -3.925  11.055  16.798  0.00  0.00    +0.000 A 
ATOM     17  C   UNL     1      -0.590  10.672  19.575  0.00  0.00    +0.000 C 
ATOM     18  C   UNL     1      -0.754  12.058  20.336  0.00  0.00    +0.000 C 
ATOM     19  C   UNL     1      -0.512  12.306  21.856  0.00  0.00    +0.000 C 
ATOM     20  C   UNL     1      -1.337  13.574  22.342  0.00  0.00    +0.000 C 
ENDROOT
BRANCH   8  21
ATOM     21  O   UNL     1      -7.111  10.480  18.118  0.00  0.00    +0.000 OA
ATOM     22  H   UNL     1      -6.427  10.225  17.477  0.00  0.00    +0.000 HD
ENDBRANCH   8  21
BRANCH  16  23
ATOM     23  O   UNL     1      -4.957  11.433  15.990  0.00  0.00    +0.000 OA
ATOM     24  H   UNL     1      -5.273  12.314  16.240  0.00  0.00    +0.000 HD
ENDBRANCH  16  23
BRANCH  20  25
ATOM     25  O   UNL     1      -0.428  14.362  23.159  0.00  0.00    +0.000 OA
ATOM     26  H   UNL     1      -0.987  14.950  23.715  0.00  0.00    +0.000 HD
ENDBRANCH  20  25
BRANCH  18  27
ATOM     27  O   UNL     1      -0.208  13.175  19.624  0.00  0.00    +0.000 OA
BRANCH  27  28
ATOM     28  C   UNL     1       1.136  13.574  19.909  0.00  0.00    +0.000 C 
ATOM     29  O   UNL     1       1.266  14.729  20.725  0.00  0.00    +0.000 OA
ATOM     30  C   UNL     1       2.649  14.949  21.100  0.00  0.00    +0.000 C 
ATOM     31  C   UNL     1       3.601  15.031  19.880  0.00  0.00    +0.000 C 
ATOM     32  C   UNL     1       3.272  14.018  18.769  0.00  0.00    +0.000 C 
ATOM     33  C   UNL     1       1.774  13.838  18.544  0.00  0.00    +0.000 C 
BRANCH  31  34
ATOM     34  O   UNL     1       4.953  14.762  20.289  0.00  0.00    +0.000 OA
ATOM     35  H   UNL     1       5.404  15.626  20.334  0.00  0.00    +0.000 HD
ENDBRANCH  31  34
BRANCH  32  36
ATOM     36  O   UNL     1       3.959  14.426  17.574  0.00  0.00    +0.000 OA
ATOM     37  H   UNL     1       4.855  14.043  17.598  0.00  0.00    +0.000 HD
ENDBRANCH  32  36
BRANCH  33  38
ATOM     38  O   UNL     1       1.558  12.708  17.678  0.00  0.00    +0.000 OA
ATOM     39  H   UNL     1       0.886  12.153  18.127  0.00  0.00    +0.000 HD
ENDBRANCH  33  38
BRANCH  30  40
ATOM     40  C   UNL     1       2.694  16.217  21.984  0.00  0.00    +0.000 C 
BRANCH  40  41
ATOM     41  O   UNL     1       2.003  16.079  23.216  0.00  0.00    +0.000 OA
ATOM     42  H   UNL     1       1.135  15.684  23.025  0.00  0.00    +0.000 HD
ENDBRANCH  40  41
ENDBRANCH  30  40
ENDBRANCH  27  28
ENDBRANCH  18  27
TORSDOF 10
ENDMDL
MODEL 4
REMARK VINA RESULT:      -5.9      1.932      5.566
REMARK  Name = 
REMARK  10 active torsions:
REMARK  status: ('A' for Active; 'I' for Inactive)
REMARK    1  A    between atoms: C_8  and  O_9
REMARK    2  A    between atoms: C_17  and  O_18
REMARK    3  A    between atoms: C_20  and  O_21
REMARK    4  A    between atoms: O_21  and  C_22
REMARK    5  A    between atoms: C_24  and  C_25
REMARK    6  A    between atoms: C_25  and  O_26
REMARK    7  A    between atoms: C_27  and  O_28
REMARK    8  A    between atoms: C_29  and  O_30
REMARK    9  A    between atoms: C_31  and  O_32
REMARK   10  A    between atoms: C_34  and  O_35
REMARK                            x       y       z     vdW  Elec       q    Type
REMARK                         _______ _______ _______ _____ _____    ______ ____
ROOT
ATOM      1  O   UNL     1      -0.017  10.517  23.445  0.00  0.00    +0.000 OA
ATOM      2  C   UNL     1      -0.780  10.996  22.590  0.00  0.00    +0.000 C 
ATOM      3  C   UNL     1      -2.192  11.393  23.025  0.00  0.00    +0.000 C 
ATOM      4  C   UNL     1      -2.596  12.882  23.061  0.00  0.00    +0.000 C 
ATOM      5  C   UNL     1      -4.041  13.012  22.613  0.00  0.00    +0.000 A 
ATOM      6  C   UNL     1      -5.155  13.107  23.435  0.00  0.00    +0.000 A 
ATOM      7  C   UNL     1      -6.452  13.003  22.891  0.00  0.00    +0.000 A 
ATOM      8  C   UNL     1      -6.640  12.699  21.541  0.00  0.00    +0.000 A 
ATOM      9  C   UNL     1      -5.543  12.581  20.695  0.00  0.00    +0.000 A 
ATOM     10  C   UNL     1      -4.254  12.856  21.249  0.00  0.00    +0.000 A 
ATOM     11  C   UNL     1      -5.496  12.046  19.319  0.00  0.00    +0.000 A 
ATOM     12  C   UNL     1      -4.592  10.972  19.116  0.00  0.00    +0.000 A 
ATOM     13  C   UNL     1      -3.899  10.783  17.920  0.00  0.00    +0.000 A 
ATOM     14  C   UNL     1      -4.377  11.481  16.808  0.00  0.00    +0.000 A 
ATOM     15  C   UNL     1      -5.445  12.400  16.938  0.00  0.00    +0.000 A 
ATOM     16  C   UNL     1      -5.962  12.720  18.200  0.00  0.00    +0.000 A 
ATOM     17  C   UNL     1      -2.553  10.015  17.998  0.00  0.00    +0.000 C 
ATOM     18  C   UNL     1      -1.567  10.803  18.964  0.00  0.00    +0.000 C 
ATOM     19  C   UNL     1      -0.565  10.165  19.975  0.00  0.00    +0.000 C 
ATOM     20  C   UNL     1      -0.235  11.193  21.140  0.00  0.00    +0.000 C 
ENDROOT
BRANCH   8  21
ATOM     21  O   UNL     1      -7.912  12.538  21.096  0.00  0.00    +0.000 OA
ATOM     22  H   UNL     1      -8.496  12.674  21.861  0.00  0.00    +0.000 HD
ENDBRANCH   8  21
BRANCH  16  23
ATOM     23  O   UNL     1      -6.852  13.742  18.357  0.00  0.00    +0.000 OA
ATOM     24  H   UNL     1      -6.490  14.413  18.955  0.00  0.00    +0.000 HD
ENDBRANCH  16  23
BRANCH  20  25
ATOM     25  O   UNL     1       1.207  11.148  21.324  0.00  0.00    +0.000 OA
ATOM     26  H   UNL     1       1.455  11.971  21.803  0.00  0.00    +0.000 HD
ENDBRANCH  20  25
BRANCH  18  27
ATOM     27  O   UNL     1      -0.900  11.904  18.334  0.00  0.00    +0.000 OA
BRANCH  27  28
ATOM     28  C   UNL     1      -0.506  13.016  19.143  0.00  0.00    +0.000 C 
ATOM     29  O   UNL     1      -1.518  13.986  19.375  0.00  0.00    +0.000 OA
ATOM     30  C   UNL     1      -1.079  14.975  20.341  0.00  0.00    +0.000 C 
ATOM     31  C   UNL     1       0.254  15.658  19.944  0.00  0.00    +0.000 C 
ATOM     32  C   UNL     1       1.284  14.695  19.329  0.00  0.00    +0.000 C 
ATOM     33  C   UNL     1       0.660  13.663  18.394  0.00  0.00    +0.000 C 
BRANCH  31  34
ATOM     34  O   UNL     1       0.878  16.235  21.104  0.00  0.00    +0.000 OA
ATOM     35  H   UNL     1       1.083  15.492  21.703  0.00  0.00    +0.000 HD
ENDBRANCH  31  34
BRANCH  32  36
ATOM     36  O   UNL     1       2.298  15.479  18.678  0.00  0.00    +0.000 OA
ATOM     37  H   UNL     1       3.013  14.876  18.402  0.00  0.00    +0.000 HD
ENDBRANCH  32  36
BRANCH  33  38
ATOM     38  O   UNL     1       1.644  12.664  18.067  0.00  0.00    +0.000 OA
ATOM     39  H   UNL     1       1.548  11.964  18.746  0.00  0.00    +0.000 HD
ENDBRANCH  33  38
BRANCH  30  40
ATOM     40  C   UNL     1      -2.237  15.981  20.532  0.00  0.00    +0.000 C 
BRANCH  40  41
ATOM     41  O   UNL     1      -2.372  16.907  19.465  0.00  0.00    +0.000 OA
ATOM     42  H   UNL     1      -1.865  17.703  19.700  0.00  0.00    +0.000 HD
ENDBRANCH  40  41
ENDBRANCH  30  40
ENDBRANCH  27  28
ENDBRANCH  18  27
TORSDOF 10
ENDMDL
MODEL 5
REMARK VINA RESULT:      -5.8      1.750      2.056
REMARK  Name = 
REMARK  10 active torsions:
REMARK  status: ('A' for Active; 'I' for Inactive)
REMARK    1  A    between atoms: C_8  and  O_9
REMARK    2  A    between atoms: C_17  and  O_18
REMARK    3  A    between atoms: C_20  and  O_21
REMARK    4  A    between atoms: O_21  and  C_22
REMARK    5  A    between atoms: C_24  and  C_25
REMARK    6  A    between atoms: C_25  and  O_26
REMARK    7  A    between atoms: C_27  and  O_28
REMARK    8  A    between atoms: C_29  and  O_30
REMARK    9  A    between atoms: C_31  and  O_32
REMARK   10  A    between atoms: C_34  and  O_35
REMARK                            x       y       z     vdW  Elec       q    Type
REMARK                         _______ _______ _______ _____ _____    ______ ____
ROOT
ATOM      1  O   UNL     1      -6.332  13.060  22.910  0.00  0.00    +0.000 OA
ATOM      2  C   UNL     1      -5.238  12.838  22.363  0.00  0.00    +0.000 C 
ATOM      3  C   UNL     1      -5.243  12.300  20.932  0.00  0.00    +0.000 C 
ATOM      4  C   UNL     1      -4.734  13.186  19.775  0.00  0.00    +0.000 C 
ATOM      5  C   UNL     1      -3.995  12.315  18.775  0.00  0.00    +0.000 A 
ATOM      6  C   UNL     1      -4.512  11.782  17.603  0.00  0.00    +0.000 A 
ATOM      7  C   UNL     1      -3.785  10.815  16.879  0.00  0.00    +0.000 A 
ATOM      8  C   UNL     1      -2.586  10.298  17.378  0.00  0.00    +0.000 A 
ATOM      9  C   UNL     1      -2.051  10.801  18.558  0.00  0.00    +0.000 A 
ATOM     10  C   UNL     1      -2.733  11.895  19.176  0.00  0.00    +0.000 A 
ATOM     11  C   UNL     1      -0.947  10.254  19.373  0.00  0.00    +0.000 A 
ATOM     12  C   UNL     1      -1.269   9.981  20.728  0.00  0.00    +0.000 A 
ATOM     13  C   UNL     1      -0.350  10.130  21.768  0.00  0.00    +0.000 A 
ATOM     14  C   UNL     1       0.995  10.224  21.400  0.00  0.00    +0.000 A 
ATOM     15  C   UNL     1       1.368  10.266  20.036  0.00  0.00    +0.000 A 
ATOM     16  C   UNL     1       0.395  10.337  19.031  0.00  0.00    +0.000 A 
ATOM     17  C   UNL     1      -0.925  10.406  23.182  0.00  0.00    +0.000 C 
ATOM     18  C   UNL     1      -1.772  11.750  23.140  0.00  0.00    +0.000 C 
ATOM     19  C   UNL     1      -3.106  12.021  23.901  0.00  0.00    +0.000 C 
ATOM     20  C   UNL     1      -3.935  13.158  23.163  0.00  0.00    +0.000 C 
ENDROOT
BRANCH   8  21
ATOM     21  O   UNL     1      -1.974   9.315  16.671  0.00  0.00    +0.000 OA
ATOM     22  H   UNL     1      -1.272   8.957  17.239  0.00  0.00    +0.000 HD
ENDBRANCH   8  21
BRANCH  16  23
ATOM     23  O   UNL     1       0.740  10.573  17.732  0.00  0.00    +0.000 OA
ATOM     24  H   UNL     1      -0.040  10.511  17.162  0.00  0.00    +0.000 HD
ENDBRANCH  16  23
BRANCH  20  25
ATOM     25  O   UNL     1      -4.402  14.060  24.204  0.00  0.00    +0.000 OA
ATOM     26  H   UNL     1      -4.878  14.791  23.749  0.00  0.00    +0.000 HD
ENDBRANCH  20  25
BRANCH  18  27
ATOM     27  O   UNL     1      -0.974  12.937  23.234  0.00  0.00    +0.000 OA
BRANCH  27  28
ATOM     28  C   UNL     1      -0.944  13.829  22.116  0.00  0.00    +0.000 C 
ATOM     29  O   UNL     1       0.031  13.530  21.128  0.00  0.00    +0.000 OA
ATOM     30  C   UNL     1      -0.132  14.377  19.962  0.00  0.00    +0.000 C 
ATOM     31  C   UNL     1      -0.117  15.888  20.306  0.00  0.00    +0.000 C 
ATOM     32  C   UNL     1      -0.869  16.235  21.603  0.00  0.00    +0.000 C 
ATOM     33  C   UNL     1      -0.661  15.209  22.713  0.00  0.00    +0.000 C 
BRANCH  31  34
ATOM     34  O   UNL     1      -0.749  16.640  19.255  0.00  0.00    +0.000 OA
ATOM     35  H   UNL     1      -0.243  17.469  19.169  0.00  0.00    +0.000 HD
ENDBRANCH  31  34
BRANCH  32  36
ATOM     36  O   UNL     1      -0.482  17.560  22.005  0.00  0.00    +0.000 OA
ATOM     37  H   UNL     1      -0.500  18.130  21.214  0.00  0.00    +0.000 HD
ENDBRANCH  32  36
BRANCH  33  38
ATOM     38  O   UNL     1      -1.584  15.476  23.784  0.00  0.00    +0.000 OA
ATOM     39  H   UNL     1      -1.111  15.239  24.609  0.00  0.00    +0.000 HD
ENDBRANCH  33  38
BRANCH  30  40
ATOM     40  C   UNL     1       0.963  13.982  18.945  0.00  0.00    +0.000 C 
BRANCH  40  41
ATOM     41  O   UNL     1       1.758  15.073  18.508  0.00  0.00    +0.000 OA
ATOM     42  H   UNL     1       1.630  15.802  19.139  0.00  0.00    +0.000 HD
ENDBRANCH  40  41
ENDBRANCH  30  40
ENDBRANCH  27  28
ENDBRANCH  18  27
TORSDOF 10
ENDMDL
MODEL 6
REMARK VINA RESULT:      -5.7      9.292     12.420
REMARK  Name = 
REMARK  10 active torsions:
REMARK  status: ('A' for Active; 'I' for Inactive)
REMARK    1  A    between atoms: C_8  and  O_9
REMARK    2  A    between atoms: C_17  and  O_18
REMARK    3  A    between atoms: C_20  and  O_21
REMARK    4  A    between atoms: O_21  and  C_22
REMARK    5  A    between atoms: C_24  and  C_25
REMARK    6  A    between atoms: C_25  and  O_26
REMARK    7  A    between atoms: C_27  and  O_28
REMARK    8  A    between atoms: C_29  and  O_30
REMARK    9  A    between atoms: C_31  and  O_32
REMARK   10  A    between atoms: C_34  and  O_35
REMARK                            x       y       z     vdW  Elec       q    Type
REMARK                         _______ _______ _______ _____ _____    ______ ____
ROOT
ATOM      1  O   UNL     1       8.711  12.004  23.717  0.00  0.00    +0.000 OA
ATOM      2  C   UNL     1       8.873  12.738  22.727  0.00  0.00    +0.000 C 
ATOM      3  C   UNL     1       9.451  12.115  21.455  0.00  0.00    +0.000 C 
ATOM      4  C   UNL     1       8.565  11.967  20.199  0.00  0.00    +0.000 C 
ATOM      5  C   UNL     1       9.412  12.227  18.966  0.00  0.00    +0.000 A 
ATOM      6  C   UNL     1      10.013  11.271  18.160  0.00  0.00    +0.000 A 
ATOM      7  C   UNL     1      10.948  11.653  17.177  0.00  0.00    +0.000 A 
ATOM      8  C   UNL     1      11.366  12.982  17.064  0.00  0.00    +0.000 A 
ATOM      9  C   UNL     1      10.793  13.961  17.869  0.00  0.00    +0.000 A 
ATOM     10  C   UNL     1       9.732  13.560  18.738  0.00  0.00    +0.000 A 
ATOM     11  C   UNL     1      11.239  15.354  18.080  0.00  0.00    +0.000 A 
ATOM     12  C   UNL     1      11.493  15.712  19.429  0.00  0.00    +0.000 A 
ATOM     13  C   UNL     1      11.251  16.992  19.930  0.00  0.00    +0.000 A 
ATOM     14  C   UNL     1      11.074  18.006  18.984  0.00  0.00    +0.000 A 
ATOM     15  C   UNL     1      11.047  17.706  17.602  0.00  0.00    +0.000 A 
ATOM     16  C   UNL     1      11.072  16.378  17.159  0.00  0.00    +0.000 A 
ATOM     17  C   UNL     1      10.975  17.113  21.451  0.00  0.00    +0.000 C 
ATOM     18  C   UNL     1       9.694  16.244  21.813  0.00  0.00    +0.000 C 
ATOM     19  C   UNL     1       9.495  15.392  23.104  0.00  0.00    +0.000 C 
ATOM     20  C   UNL     1       8.441  14.234  22.838  0.00  0.00    +0.000 C 
ENDROOT
BRANCH   8  21
ATOM     21  O   UNL     1      12.324  13.273  16.149  0.00  0.00    +0.000 OA
ATOM     22  H   UNL     1      13.180  13.125  16.583  0.00  0.00    +0.000 HD
ENDBRANCH   8  21
BRANCH  16  23
ATOM     23  O   UNL     1      10.851  16.068  15.848  0.00  0.00    +0.000 OA
ATOM     24  H   UNL     1      10.921  15.112  15.713  0.00  0.00    +0.000 HD
ENDBRANCH  16  23
BRANCH  20  25
ATOM     25  O   UNL     1       7.543  14.232  23.983  0.00  0.00    +0.000 OA
ATOM     26  H   UNL     1       7.312  15.172  24.160  0.00  0.00    +0.000 HD
ENDBRANCH  20  25
BRANCH  18  27
ATOM     27  O   UNL     1       8.453  16.904  21.536  0.00  0.00    +0.000 OA
BRANCH  27  28
ATOM     28  C   UNL     1       7.312  16.104  21.213  0.00  0.00    +0.000 C 
ATOM     29  O   UNL     1       7.054  15.947  19.825  0.00  0.00    +0.000 OA
ATOM     30  C   UNL     1       5.994  14.985  19.597  0.00  0.00    +0.000 C 
ATOM     31  C   UNL     1       4.690  15.332  20.360  0.00  0.00    +0.000 C 
ATOM     32  C   UNL     1       4.929  15.870  21.782  0.00  0.00    +0.000 C 
ATOM     33  C   UNL     1       6.128  16.809  21.876  0.00  0.00    +0.000 C 
BRANCH  31  34
ATOM     34  O   UNL     1       3.874  14.156  20.501  0.00  0.00    +0.000 OA
ATOM     35  H   UNL     1       4.405  13.411  20.163  0.00  0.00    +0.000 HD
ENDBRANCH  31  34
BRANCH  32  36
ATOM     36  O   UNL     1       3.713  16.488  22.237  0.00  0.00    +0.000 OA
ATOM     37  H   UNL     1       3.445  16.047  23.064  0.00  0.00    +0.000 HD
ENDBRANCH  32  36
BRANCH  33  38
ATOM     38  O   UNL     1       6.424  17.061  23.262  0.00  0.00    +0.000 OA
ATOM     39  H   UNL     1       6.325  16.198  23.716  0.00  0.00    +0.000 HD
ENDBRANCH  33  38
BRANCH  30  40
ATOM     40  C   UNL     1       5.785  14.878  18.069  0.00  0.00    +0.000 C 
BRANCH  40  41
ATOM     41  O   UNL     1       4.571  14.242  17.701  0.00  0.00    +0.000 OA
ATOM     42  H   UNL     1       4.562  14.164  16.731  0.00  0.00    +0.000 HD
ENDBRANCH  40  41
ENDBRANCH  30  40
ENDBRANCH  27  28
ENDBRANCH  18  27
TORSDOF 10
ENDMDL
MODEL 7
REMARK VINA RESULT:      -5.6      2.456      5.830
REMARK  Name = 
REMARK  10 active torsions:
REMARK  status: ('A' for Active; 'I' for Inactive)
REMARK    1  A    between atoms: C_8  and  O_9
REMARK    2  A    between atoms: C_17  and  O_18
REMARK    3  A    between atoms: C_20  and  O_21
REMARK    4  A    between atoms: O_21  and  C_22
REMARK    5  A    between atoms: C_24  and  C_25
REMARK    6  A    between atoms: C_25  and  O_26
REMARK    7  A    between atoms: C_27  and  O_28
REMARK    8  A    between atoms: C_29  and  O_30
REMARK    9  A    between atoms: C_31  and  O_32
REMARK   10  A    between atoms: C_34  and  O_35
REMARK                            x       y       z     vdW  Elec       q    Type
REMARK                         _______ _______ _______ _____ _____    ______ ____
ROOT
ATOM      1  O   UNL     1       1.464   8.707  22.021  0.00  0.00    +0.000 OA
ATOM      2  C   UNL     1       0.892   9.734  21.619  0.00  0.00    +0.000 C 
ATOM      3  C   UNL     1       1.672  10.686  20.711  0.00  0.00    +0.000 C 
ATOM      4  C   UNL     1       1.263  10.845  19.231  0.00  0.00    +0.000 C 
ATOM      5  C   UNL     1       1.448  12.295  18.822  0.00  0.00    +0.000 A 
ATOM      6  C   UNL     1       2.541  12.834  18.158  0.00  0.00    +0.000 A 
ATOM      7  C   UNL     1       2.682  14.231  18.034  0.00  0.00    +0.000 A 
ATOM      8  C   UNL     1       1.785  15.100  18.662  0.00  0.00    +0.000 A 
ATOM      9  C   UNL     1       0.689  14.590  19.348  0.00  0.00    +0.000 A 
ATOM     10  C   UNL     1       0.491  13.175  19.312  0.00  0.00    +0.000 A 
ATOM     11  C   UNL     1      -0.232  15.295  20.263  0.00  0.00    +0.000 A 
ATOM     12  C   UNL     1      -0.337  14.742  21.564  0.00  0.00    +0.000 A 
ATOM     13  C   UNL     1      -1.522  14.763  22.302  0.00  0.00    +0.000 A 
ATOM     14  C   UNL     1      -2.511  15.648  21.864  0.00  0.00    +0.000 A 
ATOM     15  C   UNL     1      -2.334  16.396  20.676  0.00  0.00    +0.000 A 
ATOM     16  C   UNL     1      -1.223  16.176  19.852  0.00  0.00    +0.000 A 
ATOM     17  C   UNL     1      -1.707  13.654  23.372  0.00  0.00    +0.000 C 
ATOM     18  C   UNL     1      -1.651  12.236  22.657  0.00  0.00    +0.000 C 
ATOM     19  C   UNL     1      -0.987  10.945  23.226  0.00  0.00    +0.000 C 
ATOM     20  C   UNL     1      -0.595   9.963  22.040  0.00  0.00    +0.000 C 
ENDROOT
BRANCH   8  21
ATOM     21  O   UNL     1       2.019  16.433  18.567  0.00  0.00    +0.000 OA
ATOM     22  H   UNL     1       1.848  16.811  19.445  0.00  0.00    +0.000 HD
ENDBRANCH   8  21
BRANCH  16  23
ATOM     23  O   UNL     1      -1.140  16.746  18.615  0.00  0.00    +0.000 OA
ATOM     24  H   UNL     1      -1.872  16.444  18.058  0.00  0.00    +0.000 HD
ENDBRANCH  16  23
BRANCH  20  25
ATOM     25  O   UNL     1      -1.028   8.637  22.451  0.00  0.00    +0.000 OA
ATOM     26  H   UNL     1      -0.508   8.408  23.254  0.00  0.00    +0.000 HD
ENDBRANCH  20  25
BRANCH  18  27
ATOM     27  O   UNL     1      -2.889  11.850  22.046  0.00  0.00    +0.000 OA
BRANCH  27  28
ATOM     28  C   UNL     1      -3.999  12.749  22.126  0.00  0.00    +0.000 C 
ATOM     29  O   UNL     1      -5.032  12.358  23.020  0.00  0.00    +0.000 OA
ATOM     30  C   UNL     1      -6.021  13.409  23.163  0.00  0.00    +0.000 C 
ATOM     31  C   UNL     1      -6.614  13.870  21.808  0.00  0.00    +0.000 C 
ATOM     32  C   UNL     1      -5.576  13.960  20.676  0.00  0.00    +0.000 C 
ATOM     33  C   UNL     1      -4.555  12.826  20.704  0.00  0.00    +0.000 C 
BRANCH  31  34
ATOM     34  O   UNL     1      -7.187  15.182  21.941  0.00  0.00    +0.000 OA
ATOM     35  H   UNL     1      -6.747  15.598  22.706  0.00  0.00    +0.000 HD
ENDBRANCH  31  34
BRANCH  32  36
ATOM     36  O   UNL     1      -6.281  14.030  19.425  0.00  0.00    +0.000 OA
ATOM     37  H   UNL     1      -6.875  13.258  19.373  0.00  0.00    +0.000 HD
ENDBRANCH  32  36
BRANCH  33  38
ATOM     38  O   UNL     1      -3.492  13.124  19.780  0.00  0.00    +0.000 OA
ATOM     39  H   UNL     1      -2.717  12.612  20.093  0.00  0.00    +0.000 HD
ENDBRANCH  33  38
BRANCH  30  40
ATOM     40  C   UNL     1      -7.098  12.900  24.149  0.00  0.00    +0.000 C 
BRANCH  40  41
ATOM     41  O   UNL     1      -7.553  11.585  23.869  0.00  0.00    +0.000 OA
ATOM     42  H   UNL     1      -8.352  11.661  23.320  0.00  0.00    +0.000 HD
ENDBRANCH  40  41
ENDBRANCH  30  40
ENDBRANCH  27  28
ENDBRANCH  18  27
TORSDOF 10
ENDMDL
MODEL 8
REMARK VINA RESULT:      -5.6      1.870      6.749
REMARK  Name = 
REMARK  10 active torsions:
REMARK  status: ('A' for Active; 'I' for Inactive)
REMARK    1  A    between atoms: C_8  and  O_9
REMARK    2  A    between atoms: C_17  and  O_18
REMARK    3  A    between atoms: C_20  and  O_21
REMARK    4  A    between atoms: O_21  and  C_22
REMARK    5  A    between atoms: C_24  and  C_25
REMARK    6  A    between atoms: C_25  and  O_26
REMARK    7  A    between atoms: C_27  and  O_28
REMARK    8  A    between atoms: C_29  and  O_30
REMARK    9  A    between atoms: C_31  and  O_32
REMARK   10  A    between atoms: C_34  and  O_35
REMARK                            x       y       z     vdW  Elec       q    Type
REMARK                         _______ _______ _______ _____ _____    ______ ____
ROOT
ATOM      1  O   UNL     1       2.997  13.766  17.965  0.00  0.00    +0.000 OA
ATOM      2  C   UNL     1       1.913  13.649  18.563  0.00  0.00    +0.000 C 
ATOM      3  C   UNL     1       1.187  14.925  18.992  0.00  0.00    +0.000 C 
ATOM      4  C   UNL     1      -0.144  15.317  18.316  0.00  0.00    +0.000 C 
ATOM      5  C   UNL     1      -1.064  15.929  19.357  0.00  0.00    +0.000 A 
ATOM      6  C   UNL     1      -1.255  17.282  19.598  0.00  0.00    +0.000 A 
ATOM      7  C   UNL     1      -1.971  17.709  20.736  0.00  0.00    +0.000 A 
ATOM      8  C   UNL     1      -2.409  16.789  21.693  0.00  0.00    +0.000 A 
ATOM      9  C   UNL     1      -2.218  15.428  21.487  0.00  0.00    +0.000 A 
ATOM     10  C   UNL     1      -1.636  15.026  20.245  0.00  0.00    +0.000 A 
ATOM     11  C   UNL     1      -2.384  14.320  22.450  0.00  0.00    +0.000 A 
ATOM     12  C   UNL     1      -1.240  13.504  22.641  0.00  0.00    +0.000 A 
ATOM     13  C   UNL     1      -1.322  12.135  22.901  0.00  0.00    +0.000 A 
ATOM     14  C   UNL     1      -2.569  11.655  23.310  0.00  0.00    +0.000 A 
ATOM     15  C   UNL     1      -3.694  12.512  23.353  0.00  0.00    +0.000 A 
ATOM     16  C   UNL     1      -3.610  13.824  22.870  0.00  0.00    +0.000 A 
ATOM     17  C   UNL     1      -0.105  11.265  22.491  0.00  0.00    +0.000 C 
ATOM     18  C   UNL     1       0.126  11.408  20.925  0.00  0.00    +0.000 C 
ATOM     19  C   UNL     1       1.505  11.475  20.201  0.00  0.00    +0.000 C 
ATOM     20  C   UNL     1       1.353  12.212  18.801  0.00  0.00    +0.000 C 
ENDROOT
BRANCH   8  21
ATOM     21  O   UNL     1      -3.024  17.270  22.802  0.00  0.00    +0.000 OA
ATOM     22  H   UNL     1      -2.323  17.530  23.422  0.00  0.00    +0.000 HD
ENDBRANCH   8  21
BRANCH  16  23
ATOM     23  O   UNL     1      -4.728  14.593  22.725  0.00  0.00    +0.000 OA
ATOM     24  H   UNL     1      -5.513  14.031  22.650  0.00  0.00    +0.000 HD
ENDBRANCH  16  23
BRANCH  20  25
ATOM     25  O   UNL     1       2.088  11.409  17.838  0.00  0.00    +0.000 OA
ATOM     26  H   UNL     1       2.957  11.851  17.708  0.00  0.00    +0.000 HD
ENDBRANCH  20  25
BRANCH  18  27
ATOM     27  O   UNL     1      -0.734  10.574  20.138  0.00  0.00    +0.000 OA
BRANCH  27  28
ATOM     28  C   UNL     1      -1.737  11.197  19.331  0.00  0.00    +0.000 C 
ATOM     29  O   UNL     1      -2.977  11.435  19.981  0.00  0.00    +0.000 OA
ATOM     30  C   UNL     1      -3.862  12.221  19.144  0.00  0.00    +0.000 C 
ATOM     31  C   UNL     1      -4.088  11.592  17.745  0.00  0.00    +0.000 C 
ATOM     32  C   UNL     1      -2.820  10.974  17.132  0.00  0.00    +0.000 C 
ATOM     33  C   UNL     1      -1.952  10.245  18.153  0.00  0.00    +0.000 C 
BRANCH  31  34
ATOM     34  O   UNL     1      -4.541  12.596  16.820  0.00  0.00    +0.000 OA
ATOM     35  H   UNL     1      -5.515  12.549  16.819  0.00  0.00    +0.000 HD
ENDBRANCH  31  34
BRANCH  32  36
ATOM     36  O   UNL     1      -3.218  10.121  16.045  0.00  0.00    +0.000 OA
ATOM     37  H   UNL     1      -4.111   9.781  16.243  0.00  0.00    +0.000 HD
ENDBRANCH  32  36
BRANCH  33  38
ATOM     38  O   UNL     1      -0.685   9.920  17.551  0.00  0.00    +0.000 OA
ATOM     39  H   UNL     1      -0.538  10.598  16.858  0.00  0.00    +0.000 HD
ENDBRANCH  33  38
BRANCH  30  40
ATOM     40  C   UNL     1      -5.177  12.432  19.929  0.00  0.00    +0.000 C 
BRANCH  40  41
ATOM     41  O   UNL     1      -6.331  11.971  19.243  0.00  0.00    +0.000 OA
ATOM     42  H   UNL     1      -6.300  10.999  19.234  0.00  0.00    +0.000 HD
ENDBRANCH  40  41
ENDBRANCH  30  40
ENDBRANCH  27  28
ENDBRANCH  18  27
TORSDOF 10
ENDMDL
MODEL 9
REMARK VINA RESULT:      -5.6      2.272      4.719
REMARK  Name = 
REMARK  10 active torsions:
REMARK  status: ('A' for Active; 'I' for Inactive)
REMARK    1  A    between atoms: C_8  and  O_9
REMARK    2  A    between atoms: C_17  and  O_18
REMARK    3  A    between atoms: C_20  and  O_21
REMARK    4  A    between atoms: O_21  and  C_22
REMARK    5  A    between atoms: C_24  and  C_25
REMARK    6  A    between atoms: C_25  and  O_26
REMARK    7  A    between atoms: C_27  and  O_28
REMARK    8  A    between atoms: C_29  and  O_30
REMARK    9  A    between atoms: C_31  and  O_32
REMARK   10  A    between atoms: C_34  and  O_35
REMARK                            x       y       z     vdW  Elec       q    Type
REMARK                         _______ _______ _______ _____ _____    ______ ____
ROOT
ATOM      1  O   UNL     1      -2.652  14.277  24.674  0.00  0.00    +0.000 OA
ATOM      2  C   UNL     1      -2.871  14.041  23.474  0.00  0.00    +0.000 C 
ATOM      3  C   UNL     1      -4.188  13.357  23.103  0.00  0.00    +0.000 C 
ATOM      4  C   UNL     1      -5.266  14.137  22.321  0.00  0.00    +0.000 C 
ATOM      5  C   UNL     1      -5.941  13.195  21.339  0.00  0.00    +0.000 A 
ATOM      6  C   UNL     1      -7.140  12.524  21.529  0.00  0.00    +0.000 A 
ATOM      7  C   UNL     1      -7.542  11.515  20.630  0.00  0.00    +0.000 A 
ATOM      8  C   UNL     1      -6.699  11.099  19.596  0.00  0.00    +0.000 A 
ATOM      9  C   UNL     1      -5.483  11.742  19.390  0.00  0.00    +0.000 A 
ATOM     10  C   UNL     1      -5.186  12.868  20.220  0.00  0.00    +0.000 A 
ATOM     11  C   UNL     1      -4.357  11.326  18.530  0.00  0.00    +0.000 A 
ATOM     12  C   UNL     1      -3.109  11.184  19.188  0.00  0.00    +0.000 A 
ATOM     13  C   UNL     1      -1.891  11.475  18.572  0.00  0.00    +0.000 A 
ATOM     14  C   UNL     1      -1.910  11.582  17.179  0.00  0.00    +0.000 A 
ATOM     15  C   UNL     1      -3.129  11.495  16.465  0.00  0.00    +0.000 A 
ATOM     16  C   UNL     1      -4.351  11.424  17.146  0.00  0.00    +0.000 A 
ATOM     17  C   UNL     1      -0.711  11.874  19.496  0.00  0.00    +0.000 C 
ATOM     18  C   UNL     1      -1.117  13.174  20.316  0.00  0.00    +0.000 C 
ATOM     19  C   UNL     1      -0.758  13.470  21.805  0.00  0.00    +0.000 C 
ATOM     20  C   UNL     1      -1.805  14.492  22.426  0.00  0.00    +0.000 C 
ENDROOT
BRANCH   8  21
ATOM     21  O   UNL     1      -7.112  10.072  18.812  0.00  0.00    +0.000 OA
ATOM     22  H   UNL     1      -7.365  10.457  17.957  0.00  0.00    +0.000 HD
ENDBRANCH   8  21
BRANCH  16  23
ATOM     23  O   UNL     1      -5.536  11.536  16.478  0.00  0.00    +0.000 OA
ATOM     24  H   UNL     1      -6.275  11.523  17.103  0.00  0.00    +0.000 HD
ENDBRANCH  16  23
BRANCH  20  25
ATOM     25  O   UNL     1      -1.025  15.479  23.156  0.00  0.00    +0.000 OA
ATOM     26  H   UNL     1      -1.656  16.173  23.452  0.00  0.00    +0.000 HD
ENDBRANCH  20  25
BRANCH  18  27
ATOM     27  O   UNL     1      -0.953  14.393  19.582  0.00  0.00    +0.000 OA
BRANCH  27  28
ATOM     28  C   UNL     1       0.366  14.780  19.187  0.00  0.00    +0.000 C 
ATOM     29  O   UNL     1       1.390  14.497  20.130  0.00  0.00    +0.000 OA
ATOM     30  C   UNL     1       2.701  14.762  19.571  0.00  0.00    +0.000 C 
ATOM     31  C   UNL     1       2.845  16.205  19.025  0.00  0.00    +0.000 C 
ATOM     32  C   UNL     1       1.593  16.716  18.289  0.00  0.00    +0.000 C 
ATOM     33  C   UNL     1       0.288  16.290  18.955  0.00  0.00    +0.000 C 
BRANCH  31  34
ATOM     34  O   UNL     1       3.927  16.269  18.080  0.00  0.00    +0.000 OA
ATOM     35  H   UNL     1       3.966  15.395  17.648  0.00  0.00    +0.000 HD
ENDBRANCH  31  34
BRANCH  32  36
ATOM     36  O   UNL     1       1.701  18.144  18.161  0.00  0.00    +0.000 OA
ATOM     37  H   UNL     1       2.334  18.333  17.444  0.00  0.00    +0.000 HD
ENDBRANCH  32  36
BRANCH  33  38
ATOM     38  O   UNL     1      -0.812  16.593  18.077  0.00  0.00    +0.000 OA
ATOM     39  H   UNL     1      -1.353  15.776  18.037  0.00  0.00    +0.000 HD
ENDBRANCH  33  38
BRANCH  30  40
ATOM     40  C   UNL     1       3.746  14.425  20.661  0.00  0.00    +0.000 C 
BRANCH  40  41
ATOM     41  O   UNL     1       3.193  13.799  21.808  0.00  0.00    +0.000 OA
ATOM     42  H   UNL     1       3.928  13.575  22.404  0.00  0.00    +0.000 HD
ENDBRANCH  40  41
ENDBRANCH  30  40
ENDBRANCH  27  28
ENDBRANCH  18  27
TORSDOF 10
ENDMDL
