MODEL 1
REMARK VINA RESULT:      -7.5      0.000      0.000
REMARK  Name = 
REMARK  7 active torsions:
REMARK  status: ('A' for Active; 'I' for Inactive)
REMARK    1  A    between atoms: C_1  and  C_2
REMARK    2  A    between atoms: C_2  and  C_3
REMARK    3  A    between atoms: C_8  and  N_9
REMARK    4  A    between atoms: N_9  and  C_10
REMARK    5  A    between atoms: C_10  and  C_11
REMARK    6  A    between atoms: C_20  and  C_21
REMARK    7  A    between atoms: C_21  and  C_22
REMARK                            x       y       z     vdW  Elec       q    Type
REMARK                         _______ _______ _______ _____ _____    ______ ____
ROOT
ATOM      1  C   UNL     1       6.511   4.499  16.270  0.00  0.00    +0.000 C 
ATOM      2  O   UNL     1       7.678   4.536  16.663  0.00  0.00    +0.000 OA
ATOM      3  N   UNL     1       5.487   5.156  16.938  0.00  0.00    +0.000 N 
ATOM      4  C   UNL     1       5.831   6.023  18.060  0.00  0.00    +0.000 C 
ATOM      5  C   UNL     1       5.233   5.464  19.343  0.00  0.00    +0.000 C 
ATOM      6  C   UNL     1       3.699   5.353  19.231  0.00  0.00    +0.000 C 
ATOM      7  C   UNL     1       3.366   4.438  18.010  0.00  0.00    +0.000 C 
ATOM      8  C   UNL     1       4.049   4.966  16.724  0.00  0.00    +0.000 C 
ENDROOT
BRANCH   1  10
ATOM      9  C   UNL     1       6.706   4.429  13.759  0.00  0.00    +0.000 C 
ATOM     10  C   UNL     1       6.137   3.754  15.000  0.00  0.00    +0.000 C 
ENDBRANCH   1  10
BRANCH   6  11
ATOM     11  N   UNL     1       3.041   6.666  19.101  0.00  0.00    +0.000 NA
ATOM     12  H   UNL     1       2.511   6.700  18.229  0.00  0.00    +0.000 HD
BRANCH  11  13
ATOM     13  C   UNL     1       2.115   6.969  20.189  0.00  0.00    +0.000 C 
BRANCH  13  14
ATOM     14  C   UNL     1       1.506   8.315  19.922  0.00  0.00    +0.000 A 
ATOM     15  C   UNL     1       1.601   8.970  18.709  0.00  0.00    +0.000 A 
ATOM     16  S   UNL     1       0.863  10.503  18.722  0.00  0.00    +0.000 S 
ATOM     17  C   UNL     1       0.384  10.338  20.366  0.00  0.00    +0.000 A 
ATOM     18  C   UNL     1      -0.316  11.286  21.139  0.00  0.00    +0.000 A 
ATOM     19  C   UNL     1      -0.627  10.981  22.466  0.00  0.00    +0.000 A 
ATOM     20  C   UNL     1      -0.260   9.761  23.012  0.00  0.00    +0.000 A 
ATOM     21  C   UNL     1       0.435   8.824  22.241  0.00  0.00    +0.000 A 
ATOM     22  C   UNL     1       0.778   9.104  20.893  0.00  0.00    +0.000 A 
ENDBRANCH  13  14
ENDBRANCH  11  13
ENDBRANCH   6  11
BRANCH   7  23
ATOM     23  C   UNL     1       1.859   4.211  17.765  0.00  0.00    +0.000 C 
ATOM     24  C   UNL     1       1.185   3.389  18.856  0.00  0.00    +0.000 C 
ENDBRANCH   7  23
TORSDOF 5
ENDMDL
MODEL 2
REMARK VINA RESULT:      -7.5      2.875      6.904
REMARK  Name = 
REMARK  7 active torsions:
REMARK  status: ('A' for Active; 'I' for Inactive)
REMARK    1  A    between atoms: C_1  and  C_2
REMARK    2  A    between atoms: C_2  and  C_3
REMARK    3  A    between atoms: C_8  and  N_9
REMARK    4  A    between atoms: N_9  and  C_10
REMARK    5  A    between atoms: C_10  and  C_11
REMARK    6  A    between atoms: C_20  and  C_21
REMARK    7  A    between atoms: C_21  and  C_22
REMARK                            x       y       z     vdW  Elec       q    Type
REMARK                         _______ _______ _______ _____ _____    ______ ____
ROOT
ATOM      1  C   UNL     1       1.516   7.927  20.263  0.00  0.00    +0.000 C 
ATOM      2  O   UNL     1       1.528   8.849  19.446  0.00  0.00    +0.000 OA
ATOM      3  N   UNL     1       2.103   6.698  19.995  0.00  0.00    +0.000 N 
ATOM      4  C   UNL     1       2.870   6.546  18.764  0.00  0.00    +0.000 C 
ATOM      5  C   UNL     1       2.194   5.523  17.862  0.00  0.00    +0.000 C 
ATOM      6  C   UNL     1       2.082   4.157  18.568  0.00  0.00    +0.000 C 
ATOM      7  C   UNL     1       1.277   4.360  19.891  0.00  0.00    +0.000 C 
ATOM      8  C   UNL     1       1.922   5.463  20.766  0.00  0.00    +0.000 C 
ENDROOT
BRANCH   1  10
ATOM      9  C   UNL     1       1.002   9.538  22.130  0.00  0.00    +0.000 C 
ATOM     10  C   UNL     1       0.885   8.104  21.633  0.00  0.00    +0.000 C 
ENDBRANCH   1  10
BRANCH   6  11
ATOM     11  N   UNL     1       3.396   3.545  18.840  0.00  0.00    +0.000 NA
ATOM     12  H   UNL     1       3.297   2.819  19.551  0.00  0.00    +0.000 HD
BRANCH  11  13
ATOM     13  C   UNL     1       4.011   2.930  17.667  0.00  0.00    +0.000 C 
BRANCH  13  14
ATOM     14  C   UNL     1       4.869   3.962  16.995  0.00  0.00    +0.000 A 
ATOM     15  C   UNL     1       4.838   4.216  15.636  0.00  0.00    +0.000 A 
ATOM     16  S   UNL     1       5.962   5.400  15.156  0.00  0.00    +0.000 S 
ATOM     17  C   UNL     1       6.530   5.616  16.765  0.00  0.00    +0.000 A 
ATOM     18  C   UNL     1       7.549   6.493  17.187  0.00  0.00    +0.000 A 
ATOM     19  C   UNL     1       7.881   6.542  18.543  0.00  0.00    +0.000 A 
ATOM     20  C   UNL     1       7.213   5.747  19.460  0.00  0.00    +0.000 A 
ATOM     21  C   UNL     1       6.204   4.878  19.036  0.00  0.00    +0.000 A 
ATOM     22  C   UNL     1       5.847   4.794  17.665  0.00  0.00    +0.000 A 
ENDBRANCH  13  14
ENDBRANCH  11  13
ENDBRANCH   6  11
BRANCH   7  23
ATOM     23  C   UNL     1       1.061   3.075  20.719  0.00  0.00    +0.000 C 
ATOM     24  C   UNL     1       1.991   2.962  21.920  0.00  0.00    +0.000 C 
ENDBRANCH   7  23
TORSDOF 5
ENDMDL
MODEL 3
REMARK VINA RESULT:      -7.5      1.035      1.100
REMARK  Name = 
REMARK  7 active torsions:
REMARK  status: ('A' for Active; 'I' for Inactive)
REMARK    1  A    between atoms: C_1  and  C_2
REMARK    2  A    between atoms: C_2  and  C_3
REMARK    3  A    between atoms: C_8  and  N_9
REMARK    4  A    between atoms: N_9  and  C_10
REMARK    5  A    between atoms: C_10  and  C_11
REMARK    6  A    between atoms: C_20  and  C_21
REMARK    7  A    between atoms: C_21  and  C_22
REMARK                            x       y       z     vdW  Elec       q    Type
REMARK                         _______ _______ _______ _____ _____    ______ ____
ROOT
ATOM      1  C   UNL     1       6.464   4.930  15.642  0.00  0.00    +0.000 C 
ATOM      2  O   UNL     1       7.507   5.542  15.877  0.00  0.00    +0.000 OA
ATOM      3  N   UNL     1       5.338   5.059  16.444  0.00  0.00    +0.000 N 
ATOM      4  C   UNL     1       5.354   6.051  17.513  0.00  0.00    +0.000 C 
ATOM      5  C   UNL     1       5.256   5.353  18.862  0.00  0.00    +0.000 C 
ATOM      6  C   UNL     1       3.962   4.518  18.956  0.00  0.00    +0.000 C 
ATOM      7  C   UNL     1       3.966   3.484  17.786  0.00  0.00    +0.000 C 
ATOM      8  C   UNL     1       4.153   4.194  16.423  0.00  0.00    +0.000 C 
ENDROOT
BRANCH   1  10
ATOM      9  C   UNL     1       7.046   4.608  13.213  0.00  0.00    +0.000 C 
ATOM     10  C   UNL     1       6.345   4.022  14.430  0.00  0.00    +0.000 C 
ENDBRANCH   1  10
BRANCH   6  11
ATOM     11  N   UNL     1       2.744   5.349  18.920  0.00  0.00    +0.000 NA
ATOM     12  H   UNL     1       1.919   4.748  18.915  0.00  0.00    +0.000 HD
BRANCH  11  13
ATOM     13  C   UNL     1       2.619   6.257  20.058  0.00  0.00    +0.000 C 
BRANCH  13  14
ATOM     14  C   UNL     1       2.082   7.565  19.553  0.00  0.00    +0.000 A 
ATOM     15  C   UNL     1       2.302   8.039  18.274  0.00  0.00    +0.000 A 
ATOM     16  S   UNL     1       1.619   9.575  18.009  0.00  0.00    +0.000 S 
ATOM     17  C   UNL     1       0.996   9.654  19.610  0.00  0.00    +0.000 A 
ATOM     18  C   UNL     1       0.266  10.717  20.179  0.00  0.00    +0.000 A 
ATOM     19  C   UNL     1      -0.167  10.609  21.502  0.00  0.00    +0.000 A 
ATOM     20  C   UNL     1       0.109   9.471  22.242  0.00  0.00    +0.000 A 
ATOM     21  C   UNL     1       0.835   8.420  21.675  0.00  0.00    +0.000 A 
ATOM     22  C   UNL     1       1.301   8.499  20.336  0.00  0.00    +0.000 A 
ENDBRANCH  13  14
ENDBRANCH  11  13
ENDBRANCH   6  11
BRANCH   7  23
ATOM     23  C   UNL     1       2.737   2.552  17.744  0.00  0.00    +0.000 C 
ATOM     24  C   UNL     1       2.360   1.983  19.106  0.00  0.00    +0.000 C 
ENDBRANCH   7  23
TORSDOF 5
ENDMDL
MODEL 4
REMARK VINA RESULT:      -7.1      2.837      7.732
REMARK  Name = 
REMARK  7 active torsions:
REMARK  status: ('A' for Active; 'I' for Inactive)
REMARK    1  A    between atoms: C_1  and  C_2
REMARK    2  A    between atoms: C_2  and  C_3
REMARK    3  A    between atoms: C_8  and  N_9
REMARK    4  A    between atoms: N_9  and  C_10
REMARK    5  A    between atoms: C_10  and  C_11
REMARK    6  A    between atoms: C_20  and  C_21
REMARK    7  A    between atoms: C_21  and  C_22
REMARK                            x       y       z     vdW  Elec       q    Type
REMARK                         _______ _______ _______ _____ _____    ______ ____
ROOT
ATOM      1  C   UNL     1       1.572   8.282  20.141  0.00  0.00    +0.000 C 
ATOM      2  O   UNL     1       1.397   9.126  19.262  0.00  0.00    +0.000 OA
ATOM      3  N   UNL     1       2.211   7.076  19.887  0.00  0.00    +0.000 N 
ATOM      4  C   UNL     1       2.808   6.867  18.573  0.00  0.00    +0.000 C 
ATOM      5  C   UNL     1       2.096   5.725  17.861  0.00  0.00    +0.000 C 
ATOM      6  C   UNL     1       2.191   4.423  18.681  0.00  0.00    +0.000 C 
ATOM      7  C   UNL     1       1.565   4.687  20.087  0.00  0.00    +0.000 C 
ATOM      8  C   UNL     1       2.237   5.904  20.770  0.00  0.00    +0.000 C 
ENDROOT
BRANCH   1  10
ATOM      9  C   UNL     1      -0.384   8.691  21.675  0.00  0.00    +0.000 C 
ATOM     10  C   UNL     1       1.127   8.536  21.571  0.00  0.00    +0.000 C 
ENDBRANCH   1  10
BRANCH   6  11
ATOM     11  N   UNL     1       3.574   3.927  18.805  0.00  0.00    +0.000 NA
ATOM     12  H   UNL     1       3.618   3.207  19.527  0.00  0.00    +0.000 HD
BRANCH  11  13
ATOM     13  C   UNL     1       4.102   3.345  17.573  0.00  0.00    +0.000 C 
BRANCH  13  14
ATOM     14  C   UNL     1       5.276   4.170  17.134  0.00  0.00    +0.000 A 
ATOM     15  C   UNL     1       5.985   5.003  17.979  0.00  0.00    +0.000 A 
ATOM     16  S   UNL     1       7.226   5.854  17.185  0.00  0.00    +0.000 S 
ATOM     17  C   UNL     1       6.855   5.126  15.671  0.00  0.00    +0.000 A 
ATOM     18  C   UNL     1       7.500   5.366  14.441  0.00  0.00    +0.000 A 
ATOM     19  C   UNL     1       7.067   4.679  13.304  0.00  0.00    +0.000 A 
ATOM     20  C   UNL     1       6.024   3.770  13.387  0.00  0.00    +0.000 A 
ATOM     21  C   UNL     1       5.387   3.537  14.609  0.00  0.00    +0.000 A 
ATOM     22  C   UNL     1       5.794   4.224  15.783  0.00  0.00    +0.000 A 
ENDBRANCH  13  14
ENDBRANCH  11  13
ENDBRANCH   6  11
BRANCH   7  23
ATOM     23  C   UNL     1       1.569   3.469  21.035  0.00  0.00    +0.000 C 
ATOM     24  C   UNL     1       1.205   2.161  20.343  0.00  0.00    +0.000 C 
ENDBRANCH   7  23
TORSDOF 5
ENDMDL
MODEL 5
REMARK VINA RESULT:      -6.7      2.850      7.333
REMARK  Name = 
REMARK  7 active torsions:
REMARK  status: ('A' for Active; 'I' for Inactive)
REMARK    1  A    between atoms: C_1  and  C_2
REMARK    2  A    between atoms: C_2  and  C_3
REMARK    3  A    between atoms: C_8  and  N_9
REMARK    4  A    between atoms: N_9  and  C_10
REMARK    5  A    between atoms: C_10  and  C_11
REMARK    6  A    between atoms: C_20  and  C_21
REMARK    7  A    between atoms: C_21  and  C_22
REMARK                            x       y       z     vdW  Elec       q    Type
REMARK                         _______ _______ _______ _____ _____    ______ ____
ROOT
ATOM      1  C   UNL     1       1.665   8.928  18.637  0.00  0.00    +0.000 C 
ATOM      2  O   UNL     1       1.895   9.475  17.557  0.00  0.00    +0.000 OA
ATOM      3  N   UNL     1       2.337   7.780  19.038  0.00  0.00    +0.000 N 
ATOM      4  C   UNL     1       3.437   7.293  18.213  0.00  0.00    +0.000 C 
ATOM      5  C   UNL     1       3.085   5.927  17.643  0.00  0.00    +0.000 C 
ATOM      6  C   UNL     1       2.803   4.916  18.774  0.00  0.00    +0.000 C 
ATOM      7  C   UNL     1       1.639   5.478  19.649  0.00  0.00    +0.000 C 
ATOM      8  C   UNL     1       1.967   6.904  20.155  0.00  0.00    +0.000 C 
ENDROOT
BRANCH   1  10
ATOM      9  C   UNL     1       0.588  11.025  19.521  0.00  0.00    +0.000 C 
ATOM     10  C   UNL     1       0.653   9.507  19.609  0.00  0.00    +0.000 C 
ENDBRANCH   1  10
BRANCH   6  11
ATOM     11  N   UNL     1       3.994   4.637  19.598  0.00  0.00    +0.000 NA
ATOM     12  H   UNL     1       3.710   4.189  20.471  0.00  0.00    +0.000 HD
BRANCH  11  13
ATOM     13  C   UNL     1       4.965   3.759  18.950  0.00  0.00    +0.000 C 
BRANCH  13  14
ATOM     14  C   UNL     1       5.921   4.614  18.172  0.00  0.00    +0.000 A 
ATOM     15  C   UNL     1       6.680   5.622  18.737  0.00  0.00    +0.000 A 
ATOM     16  S   UNL     1       7.628   6.458  17.599  0.00  0.00    +0.000 S 
ATOM     17  C   UNL     1       7.054   5.487  16.300  0.00  0.00    +0.000 A 
ATOM     18  C   UNL     1       7.408   5.603  14.941  0.00  0.00    +0.000 A 
ATOM     19  C   UNL     1       6.843   4.721  14.017  0.00  0.00    +0.000 A 
ATOM     20  C   UNL     1       5.954   3.743  14.431  0.00  0.00    +0.000 A 
ATOM     21  C   UNL     1       5.605   3.633  15.780  0.00  0.00    +0.000 A 
ATOM     22  C   UNL     1       6.151   4.518  16.746  0.00  0.00    +0.000 A 
ENDBRANCH  13  14
ENDBRANCH  11  13
ENDBRANCH   6  11
BRANCH   7  23
ATOM     23  C   UNL     1       1.220   4.572  20.826  0.00  0.00    +0.000 C 
ATOM     24  C   UNL     1       0.860   3.153  20.402  0.00  0.00    +0.000 C 
ENDBRANCH   7  23
TORSDOF 5
ENDMDL
MODEL 6
REMARK VINA RESULT:      -6.7      2.837      4.775
REMARK  Name = 
REMARK  7 active torsions:
REMARK  status: ('A' for Active; 'I' for Inactive)
REMARK    1  A    between atoms: C_1  and  C_2
REMARK    2  A    between atoms: C_2  and  C_3
REMARK    3  A    between atoms: C_8  and  N_9
REMARK    4  A    between atoms: N_9  and  C_10
REMARK    5  A    between atoms: C_10  and  C_11
REMARK    6  A    between atoms: C_20  and  C_21
REMARK    7  A    between atoms: C_21  and  C_22
REMARK                            x       y       z     vdW  Elec       q    Type
REMARK                         _______ _______ _______ _____ _____    ______ ____
ROOT
ATOM      1  C   UNL     1       7.571   6.738  18.250  0.00  0.00    +0.000 C 
ATOM      2  O   UNL     1       8.072   6.499  19.350  0.00  0.00    +0.000 OA
ATOM      3  N   UNL     1       6.433   6.082  17.801  0.00  0.00    +0.000 N 
ATOM      4  C   UNL     1       5.740   5.183  18.717  0.00  0.00    +0.000 C 
ATOM      5  C   UNL     1       5.803   3.759  18.183  0.00  0.00    +0.000 C 
ATOM      6  C   UNL     1       5.157   3.667  16.786  0.00  0.00    +0.000 C 
ATOM      7  C   UNL     1       5.906   4.656  15.839  0.00  0.00    +0.000 C 
ATOM      8  C   UNL     1       5.913   6.087  16.430  0.00  0.00    +0.000 C 
ENDROOT
BRANCH   1  10
ATOM      9  C   UNL     1       8.361   9.123  18.065  0.00  0.00    +0.000 C 
ATOM     10  C   UNL     1       8.158   7.801  17.338  0.00  0.00    +0.000 C 
ENDBRANCH   1  10
BRANCH   6  11
ATOM     11  N   UNL     1       3.710   3.951  16.807  0.00  0.00    +0.000 NA
ATOM     12  H   UNL     1       3.358   4.014  15.851  0.00  0.00    +0.000 HD
BRANCH  11  13
ATOM     13  C   UNL     1       2.921   2.935  17.499  0.00  0.00    +0.000 C 
BRANCH  13  14
ATOM     14  C   UNL     1       2.481   3.503  18.816  0.00  0.00    +0.000 A 
ATOM     15  C   UNL     1       2.147   2.728  19.911  0.00  0.00    +0.000 A 
ATOM     16  S   UNL     1       1.630   3.650  21.245  0.00  0.00    +0.000 S 
ATOM     17  C   UNL     1       1.843   5.130  20.396  0.00  0.00    +0.000 A 
ATOM     18  C   UNL     1       1.585   6.426  20.885  0.00  0.00    +0.000 A 
ATOM     19  C   UNL     1       1.819   7.523  20.053  0.00  0.00    +0.000 A 
ATOM     20  C   UNL     1       2.305   7.341  18.769  0.00  0.00    +0.000 A 
ATOM     21  C   UNL     1       2.559   6.053  18.287  0.00  0.00    +0.000 A 
ATOM     22  C   UNL     1       2.322   4.914  19.101  0.00  0.00    +0.000 A 
ENDBRANCH  13  14
ENDBRANCH  11  13
ENDBRANCH   6  11
BRANCH   7  23
ATOM     23  C   UNL     1       5.387   4.676  14.385  0.00  0.00    +0.000 C 
ATOM     24  C   UNL     1       6.269   3.899  13.415  0.00  0.00    +0.000 C 
ENDBRANCH   7  23
TORSDOF 5
ENDMDL
MODEL 7
REMARK VINA RESULT:      -6.4      1.554      2.186
REMARK  Name = 
REMARK  7 active torsions:
REMARK  status: ('A' for Active; 'I' for Inactive)
REMARK    1  A    between atoms: C_1  and  C_2
REMARK    2  A    between atoms: C_2  and  C_3
REMARK    3  A    between atoms: C_8  and  N_9
REMARK    4  A    between atoms: N_9  and  C_10
REMARK    5  A    between atoms: C_10  and  C_11
REMARK    6  A    between atoms: C_20  and  C_21
REMARK    7  A    between atoms: C_21  and  C_22
REMARK                            x       y       z     vdW  Elec       q    Type
REMARK                         _______ _______ _______ _____ _____    ______ ____
ROOT
ATOM      1  C   UNL     1       6.427   4.911  14.933  0.00  0.00    +0.000 C 
ATOM      2  O   UNL     1       7.382   5.677  14.793  0.00  0.00    +0.000 OA
ATOM      3  N   UNL     1       5.320   5.248  15.702  0.00  0.00    +0.000 N 
ATOM      4  C   UNL     1       5.234   6.598  16.245  0.00  0.00    +0.000 C 
ATOM      5  C   UNL     1       5.277   6.545  17.765  0.00  0.00    +0.000 C 
ATOM      6  C   UNL     1       4.115   5.694  18.318  0.00  0.00    +0.000 C 
ATOM      7  C   UNL     1       4.225   4.263  17.700  0.00  0.00    +0.000 C 
ATOM      8  C   UNL     1       4.267   4.332  16.154  0.00  0.00    +0.000 C 
ENDROOT
BRANCH   1  10
ATOM      9  C   UNL     1       5.893   3.678  12.803  0.00  0.00    +0.000 C 
ATOM     10  C   UNL     1       6.395   3.563  14.236  0.00  0.00    +0.000 C 
ENDBRANCH   1  10
BRANCH   6  11
ATOM     11  N   UNL     1       2.793   6.287  18.043  0.00  0.00    +0.000 NA
ATOM     12  H   UNL     1       2.120   5.963  18.739  0.00  0.00    +0.000 HD
BRANCH  11  13
ATOM     13  C   UNL     1       2.787   7.747  18.071  0.00  0.00    +0.000 C 
BRANCH  13  14
ATOM     14  C   UNL     1       1.967   8.187  19.249  0.00  0.00    +0.000 A 
ATOM     15  C   UNL     1       1.855   7.457  20.418  0.00  0.00    +0.000 A 
ATOM     16  S   UNL     1       0.814   8.178  21.554  0.00  0.00    +0.000 S 
ATOM     17  C   UNL     1       0.478   9.505  20.511  0.00  0.00    +0.000 A 
ATOM     18  C   UNL     1      -0.380  10.590  20.778  0.00  0.00    +0.000 A 
ATOM     19  C   UNL     1      -0.533  11.587  19.812  0.00  0.00    +0.000 A 
ATOM     20  C   UNL     1       0.156  11.514  18.612  0.00  0.00    +0.000 A 
ATOM     21  C   UNL     1       1.005  10.435  18.351  0.00  0.00    +0.000 A 
ATOM     22  C   UNL     1       1.176   9.398  19.305  0.00  0.00    +0.000 A 
ENDBRANCH  13  14
ENDBRANCH  11  13
ENDBRANCH   6  11
BRANCH   7  23
ATOM     23  C   UNL     1       3.135   3.274  18.166  0.00  0.00    +0.000 C 
ATOM     24  C   UNL     1       3.613   2.310  19.245  0.00  0.00    +0.000 C 
ENDBRANCH   7  23
TORSDOF 5
ENDMDL
MODEL 8
REMARK VINA RESULT:      -6.4      2.929      4.717
REMARK  Name = 
REMARK  7 active torsions:
REMARK  status: ('A' for Active; 'I' for Inactive)
REMARK    1  A    between atoms: C_1  and  C_2
REMARK    2  A    between atoms: C_2  and  C_3
REMARK    3  A    between atoms: C_8  and  N_9
REMARK    4  A    between atoms: N_9  and  C_10
REMARK    5  A    between atoms: C_10  and  C_11
REMARK    6  A    between atoms: C_20  and  C_21
REMARK    7  A    between atoms: C_21  and  C_22
REMARK                            x       y       z     vdW  Elec       q    Type
REMARK                         _______ _______ _______ _____ _____    ______ ____
ROOT
ATOM      1  C   UNL     1       1.940   3.459  19.554  0.00  0.00    +0.000 C 
ATOM      2  O   UNL     1       2.627   2.719  18.848  0.00  0.00    +0.000 OA
ATOM      3  N   UNL     1       1.685   4.779  19.207  0.00  0.00    +0.000 N 
ATOM      4  C   UNL     1       2.133   5.256  17.904  0.00  0.00    +0.000 C 
ATOM      5  C   UNL     1       3.183   6.343  18.089  0.00  0.00    +0.000 C 
ATOM      6  C   UNL     1       2.613   7.525  18.900  0.00  0.00    +0.000 C 
ATOM      7  C   UNL     1       2.122   6.976  20.277  0.00  0.00    +0.000 C 
ATOM      8  C   UNL     1       1.120   5.812  20.082  0.00  0.00    +0.000 C 
ENDROOT
BRANCH   1  10
ATOM      9  C   UNL     1       2.333   2.705  21.925  0.00  0.00    +0.000 C 
ATOM     10  C   UNL     1       1.301   2.948  20.833  0.00  0.00    +0.000 C 
ENDBRANCH   1  10
BRANCH   6  11
ATOM     11  N   UNL     1       1.525   8.228  18.195  0.00  0.00    +0.000 NA
ATOM     12  H   UNL     1       0.683   8.224  18.772  0.00  0.00    +0.000 HD
BRANCH  11  13
ATOM     13  C   UNL     1       1.834   9.620  17.878  0.00  0.00    +0.000 C 
BRANCH  13  14
ATOM     14  C   UNL     1       0.814  10.489  18.553  0.00  0.00    +0.000 A 
ATOM     15  C   UNL     1       1.110  11.350  19.593  0.00  0.00    +0.000 A 
ATOM     16  S   UNL     1      -0.259  12.162  20.194  0.00  0.00    +0.000 S 
ATOM     17  C   UNL     1      -1.303  11.385  19.069  0.00  0.00    +0.000 A 
ATOM     18  C   UNL     1      -2.697  11.555  18.957  0.00  0.00    +0.000 A 
ATOM     19  C   UNL     1      -3.390  10.841  17.976  0.00  0.00    +0.000 A 
ATOM     20  C   UNL     1      -2.715   9.985  17.121  0.00  0.00    +0.000 A 
ATOM     21  C   UNL     1      -1.332   9.819  17.237  0.00  0.00    +0.000 A 
ATOM     22  C   UNL     1      -0.597  10.519  18.228  0.00  0.00    +0.000 A 
ENDBRANCH  13  14
ENDBRANCH  11  13
ENDBRANCH   6  11
BRANCH   7  23
ATOM     23  C   UNL     1       1.532   8.043  21.223  0.00  0.00    +0.000 C 
ATOM     24  C   UNL     1       0.009   8.035  21.272  0.00  0.00    +0.000 C 
ENDBRANCH   7  23
TORSDOF 5
ENDMDL
MODEL 9
REMARK VINA RESULT:      -6.4      3.834      8.627
REMARK  Name = 
REMARK  7 active torsions:
REMARK  status: ('A' for Active; 'I' for Inactive)
REMARK    1  A    between atoms: C_1  and  C_2
REMARK    2  A    between atoms: C_2  and  C_3
REMARK    3  A    between atoms: C_8  and  N_9
REMARK    4  A    between atoms: N_9  and  C_10
REMARK    5  A    between atoms: C_10  and  C_11
REMARK    6  A    between atoms: C_20  and  C_21
REMARK    7  A    between atoms: C_21  and  C_22
REMARK                            x       y       z     vdW  Elec       q    Type
REMARK                         _______ _______ _______ _____ _____    ______ ____
ROOT
ATOM      1  C   UNL     1      -1.062  12.522  21.569  0.00  0.00    +0.000 C 
ATOM      2  O   UNL     1      -0.400  13.392  22.138  0.00  0.00    +0.000 OA
ATOM      3  N   UNL     1      -0.466  11.509  20.830  0.00  0.00    +0.000 N 
ATOM      4  C   UNL     1       0.988  11.399  20.844  0.00  0.00    +0.000 C 
ATOM      5  C   UNL     1       1.535  11.652  19.446  0.00  0.00    +0.000 C 
ATOM      6  C   UNL     1       0.953  10.640  18.438  0.00  0.00    +0.000 C 
ATOM      7  C   UNL     1      -0.603  10.767  18.465  0.00  0.00    +0.000 C 
ATOM      8  C   UNL     1      -1.145  10.595  19.905  0.00  0.00    +0.000 C 
ENDROOT
BRANCH   1  10
ATOM      9  C   UNL     1      -3.036  12.289  23.116  0.00  0.00    +0.000 C 
ATOM     10  C   UNL     1      -2.576  12.493  21.680  0.00  0.00    +0.000 C 
ENDBRANCH   1  10
BRANCH   6  11
ATOM     11  N   UNL     1       1.374   9.254  18.715  0.00  0.00    +0.000 NA
ATOM     12  H   UNL     1       0.562   8.635  18.683  0.00  0.00    +0.000 HD
BRANCH  11  13
ATOM     13  C   UNL     1       2.357   8.736  17.767  0.00  0.00    +0.000 C 
BRANCH  13  14
ATOM     14  C   UNL     1       2.814   7.393  18.254  0.00  0.00    +0.000 A 
ATOM     15  C   UNL     1       2.322   6.785  19.394  0.00  0.00    +0.000 A 
ATOM     16  S   UNL     1       3.070   5.293  19.727  0.00  0.00    +0.000 S 
ATOM     17  C   UNL     1       4.083   5.411  18.342  0.00  0.00    +0.000 A 
ATOM     18  C   UNL     1       5.058   4.481  17.930  0.00  0.00    +0.000 A 
ATOM     19  C   UNL     1       5.792   4.737  16.770  0.00  0.00    +0.000 A 
ATOM     20  C   UNL     1       5.558   5.885  16.030  0.00  0.00    +0.000 A 
ATOM     21  C   UNL     1       4.591   6.805  16.442  0.00  0.00    +0.000 A 
ATOM     22  C   UNL     1       3.834   6.583  17.623  0.00  0.00    +0.000 A 
ENDBRANCH  13  14
ENDBRANCH  11  13
ENDBRANCH   6  11
BRANCH   7  23
ATOM     23  C   UNL     1      -1.344   9.824  17.494  0.00  0.00    +0.000 C 
ATOM     24  C   UNL     1      -2.858   9.837  17.672  0.00  0.00    +0.000 C 
ENDBRANCH   7  23
TORSDOF 5
ENDMDL
