MODEL 1
REMARK VINA RESULT:      -8.6      0.000      0.000
REMARK  Name = 
REMARK  11 active torsions:
REMARK  status: ('A' for Active; 'I' for Inactive)
REMARK    1  A    between atoms: C_1  and  C_2
REMARK    2  A    between atoms: C_5  and  N_6
REMARK    3  A    between atoms: C_7  and  C_8
REMARK    4  A    between atoms: C_10  and  C_11
REMARK    5  A    between atoms: C_11  and  C_13
REMARK    6  A    between atoms: C_13  and  N_14
REMARK    7  A    between atoms: N_14  and  C_15
REMARK    8  A    between atoms: N_14  and  S_21
REMARK    9  A    between atoms: S_21  and  C_24
REMARK   10  A    between atoms: C_31  and  C_32
REMARK   11  A    between atoms: C_34  and  C_35
REMARK                            x       y       z     vdW  Elec       q    Type
REMARK                         _______ _______ _______ _____ _____    ______ ____
ROOT
ATOM      1  C   UNL     1       2.231   6.023  17.781  0.00  0.00    +0.000 C 
ENDROOT
BRANCH   1   2
ATOM      2  C   UNL     1       2.729   7.414  18.166  0.00  0.00    +0.000 C 
ATOM      3  O   UNL     1       3.733   7.874  17.617  0.00  0.00    +0.000 OA
BRANCH   2   8
ATOM      4  N   UNL     1       0.702   9.844  20.105  0.00  0.00    +0.000 N 
ATOM      5  C   UNL     1       0.728   8.759  20.987  0.00  0.00    +0.000 A 
ATOM      6  C   UNL     1      -0.074   8.595  22.239  0.00  0.00    +0.000 C 
ATOM      7  C   UNL     1       1.529   7.776  20.435  0.00  0.00    +0.000 A 
ATOM      8  C   UNL     1       1.957   8.194  19.153  0.00  0.00    +0.000 A 
ATOM      9  C   UNL     1       1.527   9.513  19.014  0.00  0.00    +0.000 A 
ATOM     10  C   UNL     1       1.877  10.474  17.918  0.00  0.00    +0.000 C 
BRANCH   4  15
ATOM     11  C   UNL     1      -2.465  14.625  20.744  0.00  0.00    +0.000 C 
ATOM     12  C   UNL     1      -1.613  13.396  20.596  0.00  0.00    +0.000 A 
ATOM     13  C   UNL     1      -2.067  12.346  19.792  0.00  0.00    +0.000 A 
ATOM     14  C   UNL     1      -1.315  11.179  19.651  0.00  0.00    +0.000 A 
ATOM     15  C   UNL     1      -0.063  11.052  20.257  0.00  0.00    +0.000 A 
ATOM     16  C   UNL     1       0.406  12.115  21.039  0.00  0.00    +0.000 A 
ATOM     17  C   UNL     1      -0.376  13.268  21.251  0.00  0.00    +0.000 A 
ATOM     18  C   UNL     1       0.129  14.334  22.186  0.00  0.00    +0.000 C 
ENDBRANCH   4  15
ENDBRANCH   2   8
ENDBRANCH   1   2
BRANCH   1  19
ATOM     19  N   UNL     1       3.031   4.971  18.457  0.00  0.00    +0.000 N 
BRANCH  19  20
ATOM     20  C   UNL     1       2.394   4.189  19.486  0.00  0.00    +0.000 A 
ATOM     21  C   UNL     1       2.896   4.280  20.786  0.00  0.00    +0.000 A 
ATOM     22  C   UNL     1       2.310   3.543  21.819  0.00  0.00    +0.000 A 
ATOM     23  C   UNL     1       1.230   2.699  21.554  0.00  0.00    +0.000 A 
ATOM     24  C   UNL     1       0.740   2.590  20.255  0.00  0.00    +0.000 A 
ATOM     25  C   UNL     1       1.317   3.332  19.221  0.00  0.00    +0.000 A 
ENDBRANCH  19  20
BRANCH  19  26
ATOM     26  S   UNL     1       4.272   4.224  17.565  0.00  0.00    +0.000 S 
ATOM     27  O   UNL     1       4.491   2.895  18.124  0.00  0.00    +0.000 OA
ATOM     28  O   UNL     1       4.013   4.384  16.152  0.00  0.00    +0.000 OA
BRANCH  26  29
ATOM     29  C   UNL     1       5.722   5.189  17.948  0.00  0.00    +0.000 A 
ATOM     30  C   UNL     1       6.363   5.034  19.184  0.00  0.00    +0.000 A 
ATOM     31  C   UNL     1       7.452   5.849  19.496  0.00  0.00    +0.000 A 
ATOM     32  C   UNL     1       7.904   6.784  18.568  0.00  0.00    +0.000 A 
ATOM     33  F   UNL     1       8.916   7.598  18.892  0.00  0.00    +0.000 F 
ATOM     34  C   UNL     1       7.317   6.890  17.311  0.00  0.00    +0.000 A 
ATOM     35  C   UNL     1       6.229   6.078  16.989  0.00  0.00    +0.000 A 
ENDBRANCH  26  29
ENDBRANCH  19  26
ENDBRANCH   1  19
TORSDOF 7
ENDMDL
MODEL 2
REMARK VINA RESULT:      -8.5      0.308      1.426
REMARK  Name = 
REMARK  11 active torsions:
REMARK  status: ('A' for Active; 'I' for Inactive)
REMARK    1  A    between atoms: C_1  and  C_2
REMARK    2  A    between atoms: C_5  and  N_6
REMARK    3  A    between atoms: C_7  and  C_8
REMARK    4  A    between atoms: C_10  and  C_11
REMARK    5  A    between atoms: C_11  and  C_13
REMARK    6  A    between atoms: C_13  and  N_14
REMARK    7  A    between atoms: N_14  and  C_15
REMARK    8  A    between atoms: N_14  and  S_21
REMARK    9  A    between atoms: S_21  and  C_24
REMARK   10  A    between atoms: C_31  and  C_32
REMARK   11  A    between atoms: C_34  and  C_35
REMARK                            x       y       z     vdW  Elec       q    Type
REMARK                         _______ _______ _______ _____ _____    ______ ____
ROOT
ATOM      1  C   UNL     1       2.236   5.920  17.779  0.00  0.00    +0.000 C 
ENDROOT
BRANCH   1   2
ATOM      2  C   UNL     1       2.733   7.329  18.093  0.00  0.00    +0.000 C 
ATOM      3  O   UNL     1       3.688   7.790  17.464  0.00  0.00    +0.000 OA
BRANCH   2   8
ATOM      4  N   UNL     1       0.809   9.779  20.108  0.00  0.00    +0.000 N 
ATOM      5  C   UNL     1       0.900   8.712  21.006  0.00  0.00    +0.000 A 
ATOM      6  C   UNL     1       0.179   8.567  22.309  0.00  0.00    +0.000 C 
ATOM      7  C   UNL     1       1.673   7.725  20.424  0.00  0.00    +0.000 A 
ATOM      8  C   UNL     1       2.017   8.122  19.111  0.00  0.00    +0.000 A 
ATOM      9  C   UNL     1       1.568   9.434  18.974  0.00  0.00    +0.000 A 
ATOM     10  C   UNL     1       1.840  10.376  17.840  0.00  0.00    +0.000 C 
BRANCH   4  15
ATOM     11  C   UNL     1      -2.171  14.677  20.765  0.00  0.00    +0.000 C 
ATOM     12  C   UNL     1      -1.425  13.386  20.582  0.00  0.00    +0.000 A 
ATOM     13  C   UNL     1      -0.103  13.294  21.028  0.00  0.00    +0.000 A 
ATOM     14  C   UNL     1       0.629  12.118  20.854  0.00  0.00    +0.000 A 
ATOM     15  C   UNL     1       0.044  10.984  20.284  0.00  0.00    +0.000 A 
ATOM     16  C   UNL     1      -1.289  11.066  19.864  0.00  0.00    +0.000 A 
ATOM     17  C   UNL     1      -2.017  12.269  19.966  0.00  0.00    +0.000 A 
ATOM     18  C   UNL     1      -3.410  12.334  19.401  0.00  0.00    +0.000 C 
ENDBRANCH   4  15
ENDBRANCH   2   8
ENDBRANCH   1   2
BRANCH   1  19
ATOM     19  N   UNL     1       3.064   4.902  18.473  0.00  0.00    +0.000 N 
BRANCH  19  20
ATOM     20  C   UNL     1       2.454   4.132  19.527  0.00  0.00    +0.000 A 
ATOM     21  C   UNL     1       1.365   3.320  19.201  0.00  0.00    +0.000 A 
ATOM     22  C   UNL     1       0.740   2.553  20.188  0.00  0.00    +0.000 A 
ATOM     23  C   UNL     1       1.191   2.604  21.508  0.00  0.00    +0.000 A 
ATOM     24  C   UNL     1       2.263   3.429  21.841  0.00  0.00    +0.000 A 
ATOM     25  C   UNL     1       2.896   4.192  20.855  0.00  0.00    +0.000 A 
ENDBRANCH  19  20
BRANCH  19  26
ATOM     26  S   UNL     1       4.312   4.159  17.587  0.00  0.00    +0.000 S 
ATOM     27  O   UNL     1       4.552   2.841  18.165  0.00  0.00    +0.000 OA
ATOM     28  O   UNL     1       4.046   4.294  16.172  0.00  0.00    +0.000 OA
BRANCH  26  29
ATOM     29  C   UNL     1       5.751   5.149  17.950  0.00  0.00    +0.000 A 
ATOM     30  C   UNL     1       6.333   5.102  19.223  0.00  0.00    +0.000 A 
ATOM     31  C   UNL     1       7.413   5.938  19.512  0.00  0.00    +0.000 A 
ATOM     32  C   UNL     1       7.913   6.786  18.527  0.00  0.00    +0.000 A 
ATOM     33  F   UNL     1       8.916   7.622  18.824  0.00  0.00    +0.000 F 
ATOM     34  C   UNL     1       7.385   6.782  17.240  0.00  0.00    +0.000 A 
ATOM     35  C   UNL     1       6.307   5.948  16.941  0.00  0.00    +0.000 A 
ENDBRANCH  26  29
ENDBRANCH  19  26
ENDBRANCH   1  19
TORSDOF 7
ENDMDL
MODEL 3
REMARK VINA RESULT:      -8.4      1.795      2.219
REMARK  Name = 
REMARK  11 active torsions:
REMARK  status: ('A' for Active; 'I' for Inactive)
REMARK    1  A    between atoms: C_1  and  C_2
REMARK    2  A    between atoms: C_5  and  N_6
REMARK    3  A    between atoms: C_7  and  C_8
REMARK    4  A    between atoms: C_10  and  C_11
REMARK    5  A    between atoms: C_11  and  C_13
REMARK    6  A    between atoms: C_13  and  N_14
REMARK    7  A    between atoms: N_14  and  C_15
REMARK    8  A    between atoms: N_14  and  S_21
REMARK    9  A    between atoms: S_21  and  C_24
REMARK   10  A    between atoms: C_31  and  C_32
REMARK   11  A    between atoms: C_34  and  C_35
REMARK                            x       y       z     vdW  Elec       q    Type
REMARK                         _______ _______ _______ _____ _____    ______ ____
ROOT
ATOM      1  C   UNL     1       3.854   6.587  18.455  0.00  0.00    +0.000 C 
ENDROOT
BRANCH   1   2
ATOM      2  C   UNL     1       2.378   6.974  18.392  0.00  0.00    +0.000 C 
ATOM      3  O   UNL     1       1.638   6.417  17.579  0.00  0.00    +0.000 OA
BRANCH   2   8
ATOM      4  N   UNL     1       0.966   9.884  20.211  0.00  0.00    +0.000 N 
ATOM      5  C   UNL     1       1.030   8.937  21.238  0.00  0.00    +0.000 A 
ATOM      6  C   UNL     1       0.440   9.051  22.607  0.00  0.00    +0.000 C 
ATOM      7  C   UNL     1       1.622   7.795  20.732  0.00  0.00    +0.000 A 
ATOM      8  C   UNL     1       1.867   7.974  19.350  0.00  0.00    +0.000 A 
ATOM      9  C   UNL     1       1.556   9.304  19.073  0.00  0.00    +0.000 A 
ATOM     10  C   UNL     1       1.810  10.052  17.799  0.00  0.00    +0.000 C 
BRANCH   4  15
ATOM     11  C   UNL     1      -1.543  15.068  20.570  0.00  0.00    +0.000 C 
ATOM     12  C   UNL     1      -0.859  13.733  20.486  0.00  0.00    +0.000 A 
ATOM     13  C   UNL     1      -1.568  12.634  19.994  0.00  0.00    +0.000 A 
ATOM     14  C   UNL     1      -0.973  11.373  19.924  0.00  0.00    +0.000 A 
ATOM     15  C   UNL     1       0.364  11.188  20.286  0.00  0.00    +0.000 A 
ATOM     16  C   UNL     1       1.084  12.295  20.751  0.00  0.00    +0.000 A 
ATOM     17  C   UNL     1       0.474  13.557  20.898  0.00  0.00    +0.000 A 
ATOM     18  C   UNL     1       1.263  14.687  21.503  0.00  0.00    +0.000 C 
ENDBRANCH   4  15
ENDBRANCH   2   8
ENDBRANCH   1   2
BRANCH   1  19
ATOM     19  N   UNL     1       4.033   5.314  19.196  0.00  0.00    +0.000 N 
BRANCH  19  20
ATOM     20  C   UNL     1       2.881   4.471  19.388  0.00  0.00    +0.000 A 
ATOM     21  C   UNL     1       2.335   4.386  20.671  0.00  0.00    +0.000 A 
ATOM     22  C   UNL     1       1.215   3.584  20.907  0.00  0.00    +0.000 A 
ATOM     23  C   UNL     1       0.645   2.850  19.866  0.00  0.00    +0.000 A 
ATOM     24  C   UNL     1       1.200   2.914  18.589  0.00  0.00    +0.000 A 
ATOM     25  C   UNL     1       2.314   3.723  18.347  0.00  0.00    +0.000 A 
ENDBRANCH  19  20
BRANCH  19  26
ATOM     26  S   UNL     1       5.551   4.550  19.102  0.00  0.00    +0.000 S 
ATOM     27  O   UNL     1       6.527   5.404  19.770  0.00  0.00    +0.000 OA
ATOM     28  O   UNL     1       5.418   3.163  19.484  0.00  0.00    +0.000 OA
BRANCH  26  29
ATOM     29  C   UNL     1       5.945   4.583  17.363  0.00  0.00    +0.000 A 
ATOM     30  C   UNL     1       5.126   3.914  16.444  0.00  0.00    +0.000 A 
ATOM     31  C   UNL     1       5.489   3.889  15.096  0.00  0.00    +0.000 A 
ATOM     32  C   UNL     1       6.643   4.548  14.679  0.00  0.00    +0.000 A 
ATOM     33  F   UNL     1       7.014   4.478  13.395  0.00  0.00    +0.000 F 
ATOM     34  C   UNL     1       7.420   5.275  15.576  0.00  0.00    +0.000 A 
ATOM     35  C   UNL     1       7.063   5.308  16.925  0.00  0.00    +0.000 A 
ENDBRANCH  26  29
ENDBRANCH  19  26
ENDBRANCH   1  19
TORSDOF 7
ENDMDL
MODEL 4
REMARK VINA RESULT:      -8.4      1.803      2.551
REMARK  Name = 
REMARK  11 active torsions:
REMARK  status: ('A' for Active; 'I' for Inactive)
REMARK    1  A    between atoms: C_1  and  C_2
REMARK    2  A    between atoms: C_5  and  N_6
REMARK    3  A    between atoms: C_7  and  C_8
REMARK    4  A    between atoms: C_10  and  C_11
REMARK    5  A    between atoms: C_11  and  C_13
REMARK    6  A    between atoms: C_13  and  N_14
REMARK    7  A    between atoms: N_14  and  C_15
REMARK    8  A    between atoms: N_14  and  S_21
REMARK    9  A    between atoms: S_21  and  C_24
REMARK   10  A    between atoms: C_31  and  C_32
REMARK   11  A    between atoms: C_34  and  C_35
REMARK                            x       y       z     vdW  Elec       q    Type
REMARK                         _______ _______ _______ _____ _____    ______ ____
ROOT
ATOM      1  C   UNL     1       3.842   6.565  18.415  0.00  0.00    +0.000 C 
ENDROOT
BRANCH   1   2
ATOM      2  C   UNL     1       2.365   6.953  18.389  0.00  0.00    +0.000 C 
ATOM      3  O   UNL     1       1.604   6.394  17.596  0.00  0.00    +0.000 OA
BRANCH   2   8
ATOM      4  N   UNL     1       0.973   9.857  20.232  0.00  0.00    +0.000 N 
ATOM      5  C   UNL     1       1.124   8.933  21.271  0.00  0.00    +0.000 A 
ATOM      6  C   UNL     1       0.610   9.057  22.669  0.00  0.00    +0.000 C 
ATOM      7  C   UNL     1       1.720   7.798  20.752  0.00  0.00    +0.000 A 
ATOM      8  C   UNL     1       1.880   7.957  19.356  0.00  0.00    +0.000 A 
ATOM      9  C   UNL     1       1.515   9.272  19.073  0.00  0.00    +0.000 A 
ATOM     10  C   UNL     1       1.674  10.001  17.773  0.00  0.00    +0.000 C 
BRANCH   4  15
ATOM     11  C   UNL     1      -1.497  15.066  20.494  0.00  0.00    +0.000 C 
ATOM     12  C   UNL     1      -0.886  13.694  20.424  0.00  0.00    +0.000 A 
ATOM     13  C   UNL     1       0.497  13.556  20.574  0.00  0.00    +0.000 A 
ATOM     14  C   UNL     1       1.102  12.301  20.491  0.00  0.00    +0.000 A 
ATOM     15  C   UNL     1       0.338  11.144  20.318  0.00  0.00    +0.000 A 
ATOM     16  C   UNL     1      -1.051  11.279  20.198  0.00  0.00    +0.000 A 
ATOM     17  C   UNL     1      -1.668  12.546  20.205  0.00  0.00    +0.000 A 
ATOM     18  C   UNL     1      -3.150  12.641  19.964  0.00  0.00    +0.000 C 
ENDBRANCH   4  15
ENDBRANCH   2   8
ENDBRANCH   1   2
BRANCH   1  19
ATOM     19  N   UNL     1       4.045   5.316  19.191  0.00  0.00    +0.000 N 
BRANCH  19  20
ATOM     20  C   UNL     1       2.902   4.471  19.429  0.00  0.00    +0.000 A 
ATOM     21  C   UNL     1       2.393   3.737  18.355  0.00  0.00    +0.000 A 
ATOM     22  C   UNL     1       1.288   2.901  18.537  0.00  0.00    +0.000 A 
ATOM     23  C   UNL     1       0.677   2.806  19.788  0.00  0.00    +0.000 A 
ATOM     24  C   UNL     1       1.169   3.553  20.857  0.00  0.00    +0.000 A 
ATOM     25  C   UNL     1       2.279   4.384  20.681  0.00  0.00    +0.000 A 
ENDBRANCH  19  20
BRANCH  19  26
ATOM     26  S   UNL     1       5.567   4.561  19.093  0.00  0.00    +0.000 S 
ATOM     27  O   UNL     1       6.539   5.419  19.760  0.00  0.00    +0.000 OA
ATOM     28  O   UNL     1       5.441   3.172  19.475  0.00  0.00    +0.000 OA
BRANCH  26  29
ATOM     29  C   UNL     1       5.956   4.596  17.353  0.00  0.00    +0.000 A 
ATOM     30  C   UNL     1       5.162   3.891  16.440  0.00  0.00    +0.000 A 
ATOM     31  C   UNL     1       5.523   3.870  15.092  0.00  0.00    +0.000 A 
ATOM     32  C   UNL     1       6.651   4.569  14.669  0.00  0.00    +0.000 A 
ATOM     33  F   UNL     1       7.023   4.505  13.385  0.00  0.00    +0.000 F 
ATOM     34  C   UNL     1       7.401   5.331  15.560  0.00  0.00    +0.000 A 
ATOM     35  C   UNL     1       7.046   5.360  16.909  0.00  0.00    +0.000 A 
ENDBRANCH  26  29
ENDBRANCH  19  26
ENDBRANCH   1  19
TORSDOF 7
ENDMDL
MODEL 5
REMARK VINA RESULT:      -8.3      1.816      2.462
REMARK  Name = 
REMARK  11 active torsions:
REMARK  status: ('A' for Active; 'I' for Inactive)
REMARK    1  A    between atoms: C_1  and  C_2
REMARK    2  A    between atoms: C_5  and  N_6
REMARK    3  A    between atoms: C_7  and  C_8
REMARK    4  A    between atoms: C_10  and  C_11
REMARK    5  A    between atoms: C_11  and  C_13
REMARK    6  A    between atoms: C_13  and  N_14
REMARK    7  A    between atoms: N_14  and  C_15
REMARK    8  A    between atoms: N_14  and  S_21
REMARK    9  A    between atoms: S_21  and  C_24
REMARK   10  A    between atoms: C_31  and  C_32
REMARK   11  A    between atoms: C_34  and  C_35
REMARK                            x       y       z     vdW  Elec       q    Type
REMARK                         _______ _______ _______ _____ _____    ______ ____
ROOT
ATOM      1  C   UNL     1       3.788   6.566  18.292  0.00  0.00    +0.000 C 
ENDROOT
BRANCH   1   2
ATOM      2  C   UNL     1       2.322   6.992  18.290  0.00  0.00    +0.000 C 
ATOM      3  O   UNL     1       1.539   6.473  17.492  0.00  0.00    +0.000 OA
BRANCH   2   8
ATOM      4  N   UNL     1       1.009   9.877  20.220  0.00  0.00    +0.000 N 
ATOM      5  C   UNL     1       1.171   8.931  21.237  0.00  0.00    +0.000 A 
ATOM      6  C   UNL     1       0.689   9.035  22.649  0.00  0.00    +0.000 C 
ATOM      7  C   UNL     1       1.739   7.799  20.684  0.00  0.00    +0.000 A 
ATOM      8  C   UNL     1       1.871   7.983  19.287  0.00  0.00    +0.000 A 
ATOM      9  C   UNL     1       1.518   9.308  19.038  0.00  0.00    +0.000 A 
ATOM     10  C   UNL     1       1.658  10.060  17.749  0.00  0.00    +0.000 C 
BRANCH   4  15
ATOM     11  C   UNL     1      -1.384  15.112  20.637  0.00  0.00    +0.000 C 
ATOM     12  C   UNL     1      -0.793  13.734  20.527  0.00  0.00    +0.000 A 
ATOM     13  C   UNL     1       0.591  13.575  20.640  0.00  0.00    +0.000 A 
ATOM     14  C   UNL     1       1.177  12.314  20.519  0.00  0.00    +0.000 A 
ATOM     15  C   UNL     1       0.394  11.171  20.344  0.00  0.00    +0.000 A 
ATOM     16  C   UNL     1      -0.996  11.325  20.261  0.00  0.00    +0.000 A 
ATOM     17  C   UNL     1      -1.595  12.600  20.306  0.00  0.00    +0.000 A 
ATOM     18  C   UNL     1      -3.082  12.719  20.104  0.00  0.00    +0.000 C 
ENDBRANCH   4  15
ENDBRANCH   2   8
ENDBRANCH   1   2
BRANCH   1  19
ATOM     19  N   UNL     1       3.978   5.336  19.101  0.00  0.00    +0.000 N 
BRANCH  19  20
ATOM     20  C   UNL     1       2.846   4.465  19.290  0.00  0.00    +0.000 A 
ATOM     21  C   UNL     1       2.274   4.399  20.563  0.00  0.00    +0.000 A 
ATOM     22  C   UNL     1       1.172   3.571  20.795  0.00  0.00    +0.000 A 
ATOM     23  C   UNL     1       0.647   2.793  19.762  0.00  0.00    +0.000 A 
ATOM     24  C   UNL     1       1.229   2.840  18.497  0.00  0.00    +0.000 A 
ATOM     25  C   UNL     1       2.325   3.674  18.257  0.00  0.00    +0.000 A 
ENDBRANCH  19  20
BRANCH  19  26
ATOM     26  S   UNL     1       5.522   4.620  19.102  0.00  0.00    +0.000 S 
ATOM     27  O   UNL     1       6.444   5.539  19.760  0.00  0.00    +0.000 OA
ATOM     28  O   UNL     1       5.418   3.250  19.551  0.00  0.00    +0.000 OA
BRANCH  26  29
ATOM     29  C   UNL     1       5.981   4.577  17.379  0.00  0.00    +0.000 A 
ATOM     30  C   UNL     1       7.101   5.289  16.932  0.00  0.00    +0.000 A 
ATOM     31  C   UNL     1       7.403   5.304  15.570  0.00  0.00    +0.000 A 
ATOM     32  C   UNL     1       6.606   4.591  14.678  0.00  0.00    +0.000 A 
ATOM     33  F   UNL     1       6.869   4.650  13.367  0.00  0.00    +0.000 F 
ATOM     34  C   UNL     1       5.536   3.823  15.126  0.00  0.00    +0.000 A 
ATOM     35  C   UNL     1       5.228   3.800  16.487  0.00  0.00    +0.000 A 
ENDBRANCH  26  29
ENDBRANCH  19  26
ENDBRANCH   1  19
TORSDOF 7
ENDMDL
MODEL 6
REMARK VINA RESULT:      -8.3      1.989      4.274
REMARK  Name = 
REMARK  11 active torsions:
REMARK  status: ('A' for Active; 'I' for Inactive)
REMARK    1  A    between atoms: C_1  and  C_2
REMARK    2  A    between atoms: C_5  and  N_6
REMARK    3  A    between atoms: C_7  and  C_8
REMARK    4  A    between atoms: C_10  and  C_11
REMARK    5  A    between atoms: C_11  and  C_13
REMARK    6  A    between atoms: C_13  and  N_14
REMARK    7  A    between atoms: N_14  and  C_15
REMARK    8  A    between atoms: N_14  and  S_21
REMARK    9  A    between atoms: S_21  and  C_24
REMARK   10  A    between atoms: C_31  and  C_32
REMARK   11  A    between atoms: C_34  and  C_35
REMARK                            x       y       z     vdW  Elec       q    Type
REMARK                         _______ _______ _______ _____ _____    ______ ____
ROOT
ATOM      1  C   UNL     1       2.996   6.373  19.412  0.00  0.00    +0.000 C 
ENDROOT
BRANCH   1   2
ATOM      2  C   UNL     1       2.280   7.594  18.838  0.00  0.00    +0.000 C 
ATOM      3  O   UNL     1       2.257   7.767  17.618  0.00  0.00    +0.000 OA
BRANCH   2   8
ATOM      4  N   UNL     1       0.463  10.314  20.590  0.00  0.00    +0.000 N 
ATOM      5  C   UNL     1       0.458   9.319  21.572  0.00  0.00    +0.000 A 
ATOM      6  C   UNL     1      -0.307   9.324  22.857  0.00  0.00    +0.000 C 
ATOM      7  C   UNL     1       1.182   8.242  21.095  0.00  0.00    +0.000 A 
ATOM      8  C   UNL     1       1.588   8.509  19.767  0.00  0.00    +0.000 A 
ATOM      9  C   UNL     1       1.229   9.832  19.513  0.00  0.00    +0.000 A 
ATOM     10  C   UNL     1       1.594  10.661  18.318  0.00  0.00    +0.000 C 
BRANCH   4  15
ATOM     11  C   UNL     1      -2.403  15.316  20.856  0.00  0.00    +0.000 C 
ATOM     12  C   UNL     1      -1.628  14.030  20.801  0.00  0.00    +0.000 A 
ATOM     13  C   UNL     1      -2.191  12.923  20.159  0.00  0.00    +0.000 A 
ATOM     14  C   UNL     1      -1.511  11.704  20.109  0.00  0.00    +0.000 A 
ATOM     15  C   UNL     1      -0.227  11.575  20.645  0.00  0.00    +0.000 A 
ATOM     16  C   UNL     1       0.350  12.692  21.263  0.00  0.00    +0.000 A 
ATOM     17  C   UNL     1      -0.355  13.906  21.386  0.00  0.00    +0.000 A 
ATOM     18  C   UNL     1       0.267  15.041  22.153  0.00  0.00    +0.000 C 
ENDBRANCH   4  15
ENDBRANCH   2   8
ENDBRANCH   1   2
BRANCH   1  19
ATOM     19  N   UNL     1       3.799   5.694  18.365  0.00  0.00    +0.000 N 
BRANCH  19  20
ATOM     20  C   UNL     1       5.202   6.010  18.273  0.00  0.00    +0.000 A 
ATOM     21  C   UNL     1       6.058   5.486  19.245  0.00  0.00    +0.000 A 
ATOM     22  C   UNL     1       7.428   5.762  19.197  0.00  0.00    +0.000 A 
ATOM     23  C   UNL     1       7.945   6.574  18.187  0.00  0.00    +0.000 A 
ATOM     24  C   UNL     1       7.092   7.116  17.228  0.00  0.00    +0.000 A 
ATOM     25  C   UNL     1       5.723   6.835  17.267  0.00  0.00    +0.000 A 
ENDBRANCH  19  20
BRANCH  19  26
ATOM     26  S   UNL     1       3.318   4.133  17.886  0.00  0.00    +0.000 S 
ATOM     27  O   UNL     1       2.257   4.274  16.896  0.00  0.00    +0.000 OA
ATOM     28  O   UNL     1       4.488   3.338  17.590  0.00  0.00    +0.000 OA
BRANCH  26  29
ATOM     29  C   UNL     1       2.568   3.443  19.349  0.00  0.00    +0.000 A 
ATOM     30  C   UNL     1       1.173   3.430  19.485  0.00  0.00    +0.000 A 
ATOM     31  C   UNL     1       0.606   2.953  20.667  0.00  0.00    +0.000 A 
ATOM     32  C   UNL     1       1.428   2.474  21.684  0.00  0.00    +0.000 A 
ATOM     33  F   UNL     1       0.882   2.065  22.836  0.00  0.00    +0.000 F 
ATOM     34  C   UNL     1       2.809   2.416  21.524  0.00  0.00    +0.000 A 
ATOM     35  C   UNL     1       3.386   2.889  20.344  0.00  0.00    +0.000 A 
ENDBRANCH  26  29
ENDBRANCH  19  26
ENDBRANCH   1  19
TORSDOF 7
ENDMDL
MODEL 7
REMARK VINA RESULT:      -8.2      0.154      1.166
REMARK  Name = 
REMARK  11 active torsions:
REMARK  status: ('A' for Active; 'I' for Inactive)
REMARK    1  A    between atoms: C_1  and  C_2
REMARK    2  A    between atoms: C_5  and  N_6
REMARK    3  A    between atoms: C_7  and  C_8
REMARK    4  A    between atoms: C_10  and  C_11
REMARK    5  A    between atoms: C_11  and  C_13
REMARK    6  A    between atoms: C_13  and  N_14
REMARK    7  A    between atoms: N_14  and  C_15
REMARK    8  A    between atoms: N_14  and  S_21
REMARK    9  A    between atoms: S_21  and  C_24
REMARK   10  A    between atoms: C_31  and  C_32
REMARK   11  A    between atoms: C_34  and  C_35
REMARK                            x       y       z     vdW  Elec       q    Type
REMARK                         _______ _______ _______ _____ _____    ______ ____
ROOT
ATOM      1  C   UNL     1       2.162   6.067  17.790  0.00  0.00    +0.000 C 
ENDROOT
BRANCH   1   2
ATOM      2  C   UNL     1       2.615   7.488  18.117  0.00  0.00    +0.000 C 
ATOM      3  O   UNL     1       3.569   7.977  17.507  0.00  0.00    +0.000 OA
BRANCH   2   8
ATOM      4  N   UNL     1       0.620   9.898  20.111  0.00  0.00    +0.000 N 
ATOM      5  C   UNL     1       0.662   8.806  20.983  0.00  0.00    +0.000 A 
ATOM      6  C   UNL     1      -0.118   8.631  22.247  0.00  0.00    +0.000 C 
ATOM      7  C   UNL     1       1.454   7.829  20.409  0.00  0.00    +0.000 A 
ATOM      8  C   UNL     1       1.859   8.258  19.123  0.00  0.00    +0.000 A 
ATOM      9  C   UNL     1       1.426   9.578  19.003  0.00  0.00    +0.000 A 
ATOM     10  C   UNL     1       1.756  10.548  17.910  0.00  0.00    +0.000 C 
BRANCH   4  15
ATOM     11  C   UNL     1      -2.541  14.671  20.842  0.00  0.00    +0.000 C 
ATOM     12  C   UNL     1      -1.691  13.443  20.671  0.00  0.00    +0.000 A 
ATOM     13  C   UNL     1      -2.145  12.411  19.845  0.00  0.00    +0.000 A 
ATOM     14  C   UNL     1      -1.394  11.245  19.680  0.00  0.00    +0.000 A 
ATOM     15  C   UNL     1      -0.143  11.104  20.287  0.00  0.00    +0.000 A 
ATOM     16  C   UNL     1       0.326  12.151  21.090  0.00  0.00    +0.000 A 
ATOM     17  C   UNL     1      -0.455  13.301  21.325  0.00  0.00    +0.000 A 
ATOM     18  C   UNL     1       0.050  14.346  22.282  0.00  0.00    +0.000 C 
ENDBRANCH   4  15
ENDBRANCH   2   8
ENDBRANCH   1   2
BRANCH   1  19
ATOM     19  N   UNL     1       3.022   5.069  18.474  0.00  0.00    +0.000 N 
BRANCH  19  20
ATOM     20  C   UNL     1       2.431   4.257  19.507  0.00  0.00    +0.000 A 
ATOM     21  C   UNL     1       1.395   3.391  19.149  0.00  0.00    +0.000 A 
ATOM     22  C   UNL     1       0.792   2.580  20.115  0.00  0.00    +0.000 A 
ATOM     23  C   UNL     1       1.211   2.643  21.445  0.00  0.00    +0.000 A 
ATOM     24  C   UNL     1       2.229   3.521  21.810  0.00  0.00    +0.000 A 
ATOM     25  C   UNL     1       2.841   4.327  20.845  0.00  0.00    +0.000 A 
ENDBRANCH  19  20
BRANCH  19  26
ATOM     26  S   UNL     1       4.306   4.391  17.587  0.00  0.00    +0.000 S 
ATOM     27  O   UNL     1       4.576   3.064  18.129  0.00  0.00    +0.000 OA
ATOM     28  O   UNL     1       4.059   4.562  16.173  0.00  0.00    +0.000 OA
BRANCH  26  29
ATOM     29  C   UNL     1       5.707   5.412  18.005  0.00  0.00    +0.000 A 
ATOM     30  C   UNL     1       6.134   6.415  17.125  0.00  0.00    +0.000 A 
ATOM     31  C   UNL     1       7.276   7.155  17.433  0.00  0.00    +0.000 A 
ATOM     32  C   UNL     1       7.960   6.907  18.621  0.00  0.00    +0.000 A 
ATOM     33  F   UNL     1       9.083   7.585  18.889  0.00  0.00    +0.000 F 
ATOM     34  C   UNL     1       7.498   5.963  19.533  0.00  0.00    +0.000 A 
ATOM     35  C   UNL     1       6.355   5.220  19.234  0.00  0.00    +0.000 A 
ENDBRANCH  26  29
ENDBRANCH  19  26
ENDBRANCH   1  19
TORSDOF 7
ENDMDL
MODEL 8
REMARK VINA RESULT:      -8.2      2.032      4.415
REMARK  Name = 
REMARK  11 active torsions:
REMARK  status: ('A' for Active; 'I' for Inactive)
REMARK    1  A    between atoms: C_1  and  C_2
REMARK    2  A    between atoms: C_5  and  N_6
REMARK    3  A    between atoms: C_7  and  C_8
REMARK    4  A    between atoms: C_10  and  C_11
REMARK    5  A    between atoms: C_11  and  C_13
REMARK    6  A    between atoms: C_13  and  N_14
REMARK    7  A    between atoms: N_14  and  C_15
REMARK    8  A    between atoms: N_14  and  S_21
REMARK    9  A    between atoms: S_21  and  C_24
REMARK   10  A    between atoms: C_31  and  C_32
REMARK   11  A    between atoms: C_34  and  C_35
REMARK                            x       y       z     vdW  Elec       q    Type
REMARK                         _______ _______ _______ _____ _____    ______ ____
ROOT
ATOM      1  C   UNL     1       2.983   6.399  19.437  0.00  0.00    +0.000 C 
ENDROOT
BRANCH   1   2
ATOM      2  C   UNL     1       2.222   7.606  18.893  0.00  0.00    +0.000 C 
ATOM      3  O   UNL     1       2.105   7.752  17.674  0.00  0.00    +0.000 OA
BRANCH   2   8
ATOM      4  N   UNL     1       0.533  10.361  20.717  0.00  0.00    +0.000 N 
ATOM      5  C   UNL     1       0.614   9.392  21.720  0.00  0.00    +0.000 A 
ATOM      6  C   UNL     1      -0.046   9.426  23.062  0.00  0.00    +0.000 C 
ATOM      7  C   UNL     1       1.304   8.306  21.214  0.00  0.00    +0.000 A 
ATOM      8  C   UNL     1       1.601   8.542  19.851  0.00  0.00    +0.000 A 
ATOM      9  C   UNL     1       1.214   9.856  19.594  0.00  0.00    +0.000 A 
ATOM     10  C   UNL     1       1.476  10.656  18.353  0.00  0.00    +0.000 C 
BRANCH   4  15
ATOM     11  C   UNL     1      -2.159  15.460  20.962  0.00  0.00    +0.000 C 
ATOM     12  C   UNL     1      -1.490  14.116  20.894  0.00  0.00    +0.000 A 
ATOM     13  C   UNL     1      -0.115  14.027  21.130  0.00  0.00    +0.000 A 
ATOM     14  C   UNL     1       0.545  12.800  21.052  0.00  0.00    +0.000 A 
ATOM     15  C   UNL     1      -0.158  11.620  20.796  0.00  0.00    +0.000 A 
ATOM     16  C   UNL     1      -1.541  11.704  20.589  0.00  0.00    +0.000 A 
ATOM     17  C   UNL     1      -2.208  12.945  20.591  0.00  0.00    +0.000 A 
ATOM     18  C   UNL     1      -3.674  12.991  20.255  0.00  0.00    +0.000 C 
ENDBRANCH   4  15
ENDBRANCH   2   8
ENDBRANCH   1   2
BRANCH   1  19
ATOM     19  N   UNL     1       3.742   5.723  18.356  0.00  0.00    +0.000 N 
BRANCH  19  20
ATOM     20  C   UNL     1       5.149   6.006  18.235  0.00  0.00    +0.000 A 
ATOM     21  C   UNL     1       6.007   5.501  19.215  0.00  0.00    +0.000 A 
ATOM     22  C   UNL     1       7.381   5.745  19.139  0.00  0.00    +0.000 A 
ATOM     23  C   UNL     1       7.902   6.509  18.094  0.00  0.00    +0.000 A 
ATOM     24  C   UNL     1       7.048   7.033  17.126  0.00  0.00    +0.000 A 
ATOM     25  C   UNL     1       5.674   6.783  17.193  0.00  0.00    +0.000 A 
ENDBRANCH  19  20
BRANCH  19  26
ATOM     26  S   UNL     1       3.209   4.187  17.855  0.00  0.00    +0.000 S 
ATOM     27  O   UNL     1       2.109   4.376  16.917  0.00  0.00    +0.000 OA
ATOM     28  O   UNL     1       4.349   3.378  17.484  0.00  0.00    +0.000 OA
BRANCH  26  29
ATOM     29  C   UNL     1       2.509   3.469  19.330  0.00  0.00    +0.000 A 
ATOM     30  C   UNL     1       1.119   3.395  19.485  0.00  0.00    +0.000 A 
ATOM     31  C   UNL     1       0.589   2.897  20.676  0.00  0.00    +0.000 A 
ATOM     32  C   UNL     1       1.446   2.457  21.682  0.00  0.00    +0.000 A 
ATOM     33  F   UNL     1       0.934   2.028  22.842  0.00  0.00    +0.000 F 
ATOM     34  C   UNL     1       2.826   2.460  21.504  0.00  0.00    +0.000 A 
ATOM     35  C   UNL     1       3.365   2.954  20.315  0.00  0.00    +0.000 A 
ENDBRANCH  26  29
ENDBRANCH  19  26
ENDBRANCH   1  19
TORSDOF 7
ENDMDL
MODEL 9
REMARK VINA RESULT:      -8.1      1.689      2.246
REMARK  Name = 
REMARK  11 active torsions:
REMARK  status: ('A' for Active; 'I' for Inactive)
REMARK    1  A    between atoms: C_1  and  C_2
REMARK    2  A    between atoms: C_5  and  N_6
REMARK    3  A    between atoms: C_7  and  C_8
REMARK    4  A    between atoms: C_10  and  C_11
REMARK    5  A    between atoms: C_11  and  C_13
REMARK    6  A    between atoms: C_13  and  N_14
REMARK    7  A    between atoms: N_14  and  C_15
REMARK    8  A    between atoms: N_14  and  S_21
REMARK    9  A    between atoms: S_21  and  C_24
REMARK   10  A    between atoms: C_31  and  C_32
REMARK   11  A    between atoms: C_34  and  C_35
REMARK                            x       y       z     vdW  Elec       q    Type
REMARK                         _______ _______ _______ _____ _____    ______ ____
ROOT
ATOM      1  C   UNL     1       3.216   5.826  17.647  0.00  0.00    +0.000 C 
ENDROOT
BRANCH   1   2
ATOM      2  C   UNL     1       3.377   7.313  17.956  0.00  0.00    +0.000 C 
ATOM      3  O   UNL     1       4.248   7.964  17.373  0.00  0.00    +0.000 OA
BRANCH   2   8
ATOM      4  N   UNL     1       0.912   9.364  19.823  0.00  0.00    +0.000 N 
ATOM      5  C   UNL     1       1.044   8.265  20.678  0.00  0.00    +0.000 A 
ATOM      6  C   UNL     1       0.202   7.948  21.874  0.00  0.00    +0.000 C 
ATOM      7  C   UNL     1       2.008   7.426  20.153  0.00  0.00    +0.000 A 
ATOM      8  C   UNL     1       2.445   7.942  18.911  0.00  0.00    +0.000 A 
ATOM      9  C   UNL     1       1.838   9.190  18.778  0.00  0.00    +0.000 A 
ATOM     10  C   UNL     1       2.109  10.226  17.729  0.00  0.00    +0.000 C 
BRANCH   4  15
ATOM     11  C   UNL     1      -2.946  13.622  20.357  0.00  0.00    +0.000 C 
ATOM     12  C   UNL     1      -1.921  12.529  20.243  0.00  0.00    +0.000 A 
ATOM     13  C   UNL     1      -2.061  11.565  19.240  0.00  0.00    +0.000 A 
ATOM     14  C   UNL     1      -1.143  10.521  19.119  0.00  0.00    +0.000 A 
ATOM     15  C   UNL     1      -0.026  10.445  19.956  0.00  0.00    +0.000 A 
ATOM     16  C   UNL     1       0.131  11.427  20.942  0.00  0.00    +0.000 A 
ATOM     17  C   UNL     1      -0.828  12.443  21.124  0.00  0.00    +0.000 A 
ATOM     18  C   UNL     1      -0.666  13.409  22.267  0.00  0.00    +0.000 C 
ENDBRANCH   4  15
ENDBRANCH   2   8
ENDBRANCH   1   2
BRANCH   1  19
ATOM     19  N   UNL     1       3.609   5.000  18.815  0.00  0.00    +0.000 N 
BRANCH  19  20
ATOM     20  C   UNL     1       2.628   4.107  19.377  0.00  0.00    +0.000 A 
ATOM     21  C   UNL     1       1.810   3.393  18.498  0.00  0.00    +0.000 A 
ATOM     22  C   UNL     1       0.845   2.513  18.994  0.00  0.00    +0.000 A 
ATOM     23  C   UNL     1       0.681   2.354  20.371  0.00  0.00    +0.000 A 
ATOM     24  C   UNL     1       1.480   3.080  21.252  0.00  0.00    +0.000 A 
ATOM     25  C   UNL     1       2.453   3.955  20.759  0.00  0.00    +0.000 A 
ENDBRANCH  19  20
BRANCH  19  26
ATOM     26  S   UNL     1       5.244   4.547  18.950  0.00  0.00    +0.000 S 
ATOM     27  O   UNL     1       5.944   5.599  19.676  0.00  0.00    +0.000 OA
ATOM     28  O   UNL     1       5.328   3.175  19.399  0.00  0.00    +0.000 OA
BRANCH  26  29
ATOM     29  C   UNL     1       5.846   4.591  17.272  0.00  0.00    +0.000 A 
ATOM     30  C   UNL     1       6.854   5.494  16.911  0.00  0.00    +0.000 A 
ATOM     31  C   UNL     1       7.262   5.566  15.578  0.00  0.00    +0.000 A 
ATOM     32  C   UNL     1       6.683   4.723  14.632  0.00  0.00    +0.000 A 
ATOM     33  F   UNL     1       7.041   4.831  13.347  0.00  0.00    +0.000 F 
ATOM     34  C   UNL     1       5.735   3.773  15.000  0.00  0.00    +0.000 A 
ATOM     35  C   UNL     1       5.323   3.693  16.331  0.00  0.00    +0.000 A 
ENDBRANCH  26  29
ENDBRANCH  19  26
ENDBRANCH   1  19
TORSDOF 7
ENDMDL
