MODEL 1
REMARK VINA RESULT:      -7.3      0.000      0.000
REMARK  Name = 
REMARK  7 active torsions:
REMARK  status: ('A' for Active; 'I' for Inactive)
REMARK    1  A    between atoms: C_1  and  C_2
REMARK    2  A    between atoms: C_6  and  C_7
REMARK    3  A    between atoms: C_7  and  N_8
REMARK    4  A    between atoms: N_10  and  C_11
REMARK    5  A    between atoms: N_10  and  C_12
REMARK    6  A    between atoms: C_12  and  C_13
REMARK    7  A    between atoms: N_27  and  C_28
REMARK                            x       y       z     vdW  Elec       q    Type
REMARK                         _______ _______ _______ _____ _____    ______ ____
ROOT
ATOM      1  N   UNL     1       0.835   9.743  19.961  0.00  0.00    +0.000 N 
ATOM      2  C   UNL     1       0.516   9.260  21.233  0.00  0.00    +0.000 A 
ATOM      3  N   UNL     1      -0.037  10.002  22.240  0.00  0.00    +0.000 N 
ATOM      4  C   UNL     1       0.217   9.515  23.606  0.00  0.00    +0.000 C 
ATOM      5  N   UNL     1       0.986   8.029  21.379  0.00  0.00    +0.000 NA
ATOM      6  C   UNL     1       1.614   7.724  20.215  0.00  0.00    +0.000 A 
ATOM      7  C   UNL     1       1.557   8.755  19.329  0.00  0.00    +0.000 A 
ATOM      8  C   UNL     1       2.158   8.681  18.040  0.00  0.00    +0.000 A 
ATOM      9  O   UNL     1       2.120   9.545  17.173  0.00  0.00    +0.000 OA
ATOM     10  N   UNL     1       2.795   7.482  17.822  0.00  0.00    +0.000 N 
ATOM     11  C   UNL     1       2.851   6.398  18.670  0.00  0.00    +0.000 A 
ATOM     12  O   UNL     1       3.419   5.372  18.287  0.00  0.00    +0.000 OA
ATOM     13  N   UNL     1       2.253   6.534  19.916  0.00  0.00    +0.000 N 
ATOM     14  C   UNL     1       2.293   5.447  20.870  0.00  0.00    +0.000 C 
ATOM     15  H   UNL     1       3.229   7.363  16.921  0.00  0.00    +0.000 HD
ENDROOT
BRANCH   1  16
ATOM     16  C   UNL     1       0.433  10.985  19.312  0.00  0.00    +0.000 C 
BRANCH  16  22
ATOM     17  C   UNL     1      -2.800   9.545  15.677  0.00  0.00    +0.000 C 
ATOM     18  C   UNL     1      -2.504  10.340  16.917  0.00  0.00    +0.000 A 
ATOM     19  C   UNL     1      -3.460  11.220  17.444  0.00  0.00    +0.000 A 
ATOM     20  C   UNL     1      -3.164  11.978  18.570  0.00  0.00    +0.000 A 
ATOM     21  C   UNL     1      -1.910  11.873  19.170  0.00  0.00    +0.000 A 
ATOM     22  C   UNL     1      -0.938  10.988  18.670  0.00  0.00    +0.000 A 
ATOM     23  C   UNL     1      -1.251  10.223  17.538  0.00  0.00    +0.000 A 
ENDBRANCH  16  22
ENDBRANCH   1  16
BRANCH   3  24
ATOM     24  C   UNL     1      -1.363  10.629  22.106  0.00  0.00    +0.000 C 
BRANCH  24  25
ATOM     25  C   UNL     1      -1.332  12.071  22.594  0.00  0.00    +0.000 A 
ATOM     26  C   UNL     1      -0.315  12.948  22.184  0.00  0.00    +0.000 A 
ATOM     27  C   UNL     1      -0.302  14.284  22.576  0.00  0.00    +0.000 A 
ATOM     28  C   UNL     1      -1.310  14.771  23.398  0.00  0.00    +0.000 A 
ATOM     29  C   UNL     1      -2.326  13.915  23.828  0.00  0.00    +0.000 A 
ATOM     30  C   UNL     1      -2.343  12.577  23.426  0.00  0.00    +0.000 A 
ENDBRANCH  24  25
ENDBRANCH   3  24
TORSDOF 4
ENDMDL
MODEL 2
REMARK VINA RESULT:      -7.3      0.328      1.265
REMARK  Name = 
REMARK  7 active torsions:
REMARK  status: ('A' for Active; 'I' for Inactive)
REMARK    1  A    between atoms: C_1  and  C_2
REMARK    2  A    between atoms: C_6  and  C_7
REMARK    3  A    between atoms: C_7  and  N_8
REMARK    4  A    between atoms: N_10  and  C_11
REMARK    5  A    between atoms: N_10  and  C_12
REMARK    6  A    between atoms: C_12  and  C_13
REMARK    7  A    between atoms: N_27  and  C_28
REMARK                            x       y       z     vdW  Elec       q    Type
REMARK                         _______ _______ _______ _____ _____    ______ ____
ROOT
ATOM      1  N   UNL     1       0.855   9.714  19.918  0.00  0.00    +0.000 N 
ATOM      2  C   UNL     1       0.522   9.236  21.189  0.00  0.00    +0.000 A 
ATOM      3  N   UNL     1      -0.062   9.978  22.179  0.00  0.00    +0.000 N 
ATOM      4  C   UNL     1       0.175   9.508  23.553  0.00  0.00    +0.000 C 
ATOM      5  N   UNL     1       1.011   8.016  21.355  0.00  0.00    +0.000 NA
ATOM      6  C   UNL     1       1.666   7.711  20.206  0.00  0.00    +0.000 A 
ATOM      7  C   UNL     1       1.606   8.732  19.309  0.00  0.00    +0.000 A 
ATOM      8  C   UNL     1       2.232   8.657  18.032  0.00  0.00    +0.000 A 
ATOM      9  O   UNL     1       2.196   9.512  17.156  0.00  0.00    +0.000 OA
ATOM     10  N   UNL     1       2.895   7.467  17.837  0.00  0.00    +0.000 N 
ATOM     11  C   UNL     1       2.954   6.393  18.697  0.00  0.00    +0.000 A 
ATOM     12  O   UNL     1       3.546   5.374  18.334  0.00  0.00    +0.000 OA
ATOM     13  N   UNL     1       2.330   6.530  19.930  0.00  0.00    +0.000 N 
ATOM     14  C   UNL     1       2.373   5.453  20.895  0.00  0.00    +0.000 C 
ATOM     15  H   UNL     1       3.347   7.348  16.946  0.00  0.00    +0.000 HD
ENDROOT
BRANCH   1  16
ATOM     16  C   UNL     1       0.444  10.941  19.250  0.00  0.00    +0.000 C 
BRANCH  16  22
ATOM     17  C   UNL     1      -4.435  12.324  19.085  0.00  0.00    +0.000 C 
ATOM     18  C   UNL     1      -3.282  11.543  18.520  0.00  0.00    +0.000 A 
ATOM     19  C   UNL     1      -3.476  10.662  17.446  0.00  0.00    +0.000 A 
ATOM     20  C   UNL     1      -2.412   9.918  16.954  0.00  0.00    +0.000 A 
ATOM     21  C   UNL     1      -1.151  10.037  17.536  0.00  0.00    +0.000 A 
ATOM     22  C   UNL     1      -0.925  10.923  18.605  0.00  0.00    +0.000 A 
ATOM     23  C   UNL     1      -2.005  11.674  19.088  0.00  0.00    +0.000 A 
ENDBRANCH  16  22
ENDBRANCH   1  16
BRANCH   3  24
ATOM     24  C   UNL     1      -1.397  10.580  22.014  0.00  0.00    +0.000 C 
BRANCH  24  25
ATOM     25  C   UNL     1      -1.420  12.001  22.560  0.00  0.00    +0.000 A 
ATOM     26  C   UNL     1      -0.418  12.921  22.216  0.00  0.00    +0.000 A 
ATOM     27  C   UNL     1      -0.454  14.240  22.661  0.00  0.00    +0.000 A 
ATOM     28  C   UNL     1      -1.498  14.665  23.473  0.00  0.00    +0.000 A 
ATOM     29  C   UNL     1      -2.500  13.764  23.839  0.00  0.00    +0.000 A 
ATOM     30  C   UNL     1      -2.468  12.444  23.383  0.00  0.00    +0.000 A 
ENDBRANCH  24  25
ENDBRANCH   3  24
TORSDOF 4
ENDMDL
MODEL 3
REMARK VINA RESULT:      -7.0      3.205      6.868
REMARK  Name = 
REMARK  7 active torsions:
REMARK  status: ('A' for Active; 'I' for Inactive)
REMARK    1  A    between atoms: C_1  and  C_2
REMARK    2  A    between atoms: C_6  and  C_7
REMARK    3  A    between atoms: C_7  and  N_8
REMARK    4  A    between atoms: N_10  and  C_11
REMARK    5  A    between atoms: N_10  and  C_12
REMARK    6  A    between atoms: C_12  and  C_13
REMARK    7  A    between atoms: N_27  and  C_28
REMARK                            x       y       z     vdW  Elec       q    Type
REMARK                         _______ _______ _______ _____ _____    ______ ____
ROOT
ATOM      1  N   UNL     1       3.496   5.942  17.804  0.00  0.00    +0.000 N 
ATOM      2  C   UNL     1       2.540   6.576  18.604  0.00  0.00    +0.000 A 
ATOM      3  N   UNL     1       2.498   7.918  18.863  0.00  0.00    +0.000 N 
ATOM      4  C   UNL     1       1.818   8.306  20.110  0.00  0.00    +0.000 C 
ATOM      5  N   UNL     1       1.789   5.670  19.213  0.00  0.00    +0.000 NA
ATOM      6  C   UNL     1       2.262   4.460  18.820  0.00  0.00    +0.000 A 
ATOM      7  C   UNL     1       3.317   4.586  17.970  0.00  0.00    +0.000 A 
ATOM      8  C   UNL     1       3.997   3.456  17.431  0.00  0.00    +0.000 A 
ATOM      9  O   UNL     1       4.926   3.482  16.636  0.00  0.00    +0.000 OA
ATOM     10  N   UNL     1       3.476   2.264  17.879  0.00  0.00    +0.000 N 
ATOM     11  C   UNL     1       2.391   2.084  18.707  0.00  0.00    +0.000 A 
ATOM     12  O   UNL     1       2.021   0.935  18.960  0.00  0.00    +0.000 OA
ATOM     13  N   UNL     1       1.775   3.224  19.206  0.00  0.00    +0.000 N 
ATOM     14  C   UNL     1       0.645   3.114  20.104  0.00  0.00    +0.000 C 
ATOM     15  H   UNL     1       3.906   1.427  17.522  0.00  0.00    +0.000 HD
ENDROOT
BRANCH   1  16
ATOM     16  C   UNL     1       4.454   6.518  16.870  0.00  0.00    +0.000 C 
BRANCH  16  22
ATOM     17  C   UNL     1       8.348   5.361  19.910  0.00  0.00    +0.000 C 
ATOM     18  C   UNL     1       7.715   6.265  18.890  0.00  0.00    +0.000 A 
ATOM     19  C   UNL     1       8.344   7.459  18.507  0.00  0.00    +0.000 A 
ATOM     20  C   UNL     1       7.734   8.306  17.590  0.00  0.00    +0.000 A 
ATOM     21  C   UNL     1       6.489   7.975  17.058  0.00  0.00    +0.000 A 
ATOM     22  C   UNL     1       5.843   6.778  17.414  0.00  0.00    +0.000 A 
ATOM     23  C   UNL     1       6.471   5.928  18.334  0.00  0.00    +0.000 A 
ENDBRANCH  16  22
ENDBRANCH   1  16
BRANCH   3  24
ATOM     24  C   UNL     1       2.314   8.912  17.791  0.00  0.00    +0.000 C 
BRANCH  24  25
ATOM     25  C   UNL     1       1.195   9.883  18.139  0.00  0.00    +0.000 A 
ATOM     26  C   UNL     1       1.479  11.145  18.682  0.00  0.00    +0.000 A 
ATOM     27  C   UNL     1       0.471  12.067  18.954  0.00  0.00    +0.000 A 
ATOM     28  C   UNL     1      -0.852  11.738  18.692  0.00  0.00    +0.000 A 
ATOM     29  C   UNL     1      -1.161  10.483  18.163  0.00  0.00    +0.000 A 
ATOM     30  C   UNL     1      -0.148   9.563  17.882  0.00  0.00    +0.000 A 
ENDBRANCH  24  25
ENDBRANCH   3  24
TORSDOF 4
ENDMDL
MODEL 4
REMARK VINA RESULT:      -7.0      3.225      6.826
REMARK  Name = 
REMARK  7 active torsions:
REMARK  status: ('A' for Active; 'I' for Inactive)
REMARK    1  A    between atoms: C_1  and  C_2
REMARK    2  A    between atoms: C_6  and  C_7
REMARK    3  A    between atoms: C_7  and  N_8
REMARK    4  A    between atoms: N_10  and  C_11
REMARK    5  A    between atoms: N_10  and  C_12
REMARK    6  A    between atoms: C_12  and  C_13
REMARK    7  A    between atoms: N_27  and  C_28
REMARK                            x       y       z     vdW  Elec       q    Type
REMARK                         _______ _______ _______ _____ _____    ______ ____
ROOT
ATOM      1  N   UNL     1       3.558   5.982  17.808  0.00  0.00    +0.000 N 
ATOM      2  C   UNL     1       2.569   6.592  18.586  0.00  0.00    +0.000 A 
ATOM      3  N   UNL     1       2.507   7.928  18.872  0.00  0.00    +0.000 N 
ATOM      4  C   UNL     1       1.780   8.284  20.101  0.00  0.00    +0.000 C 
ATOM      5  N   UNL     1       1.804   5.667  19.148  0.00  0.00    +0.000 NA
ATOM      6  C   UNL     1       2.301   4.470  18.748  0.00  0.00    +0.000 A 
ATOM      7  C   UNL     1       3.384   4.621  17.939  0.00  0.00    +0.000 A 
ATOM      8  C   UNL     1       4.092   3.508  17.402  0.00  0.00    +0.000 A 
ATOM      9  O   UNL     1       5.049   3.557  16.641  0.00  0.00    +0.000 OA
ATOM     10  N   UNL     1       3.565   2.303  17.806  0.00  0.00    +0.000 N 
ATOM     11  C   UNL     1       2.452   2.097  18.591  0.00  0.00    +0.000 A 
ATOM     12  O   UNL     1       2.083   0.941  18.806  0.00  0.00    +0.000 OA
ATOM     13  N   UNL     1       1.810   3.222  19.091  0.00  0.00    +0.000 N 
ATOM     14  C   UNL     1       0.650   3.085  19.945  0.00  0.00    +0.000 C 
ATOM     15  H   UNL     1       4.014   1.476  17.447  0.00  0.00    +0.000 HD
ENDROOT
BRANCH   1  16
ATOM     16  C   UNL     1       4.544   6.584  16.921  0.00  0.00    +0.000 C 
BRANCH  16  22
ATOM     17  C   UNL     1       8.430   9.765  17.645  0.00  0.00    +0.000 C 
ATOM     18  C   UNL     1       7.772   8.436  17.886  0.00  0.00    +0.000 A 
ATOM     19  C   UNL     1       8.440   7.428  18.598  0.00  0.00    +0.000 A 
ATOM     20  C   UNL     1       7.838   6.191  18.785  0.00  0.00    +0.000 A 
ATOM     21  C   UNL     1       6.573   5.944  18.253  0.00  0.00    +0.000 A 
ATOM     22  C   UNL     1       5.875   6.941  17.548  0.00  0.00    +0.000 A 
ATOM     23  C   UNL     1       6.489   8.188  17.372  0.00  0.00    +0.000 A 
ENDBRANCH  16  22
ENDBRANCH   1  16
BRANCH   3  24
ATOM     24  C   UNL     1       2.354   8.943  17.814  0.00  0.00    +0.000 C 
BRANCH  24  25
ATOM     25  C   UNL     1       1.209   9.892  18.138  0.00  0.00    +0.000 A 
ATOM     26  C   UNL     1       1.459  11.159  18.689  0.00  0.00    +0.000 A 
ATOM     27  C   UNL     1       0.429  12.063  18.938  0.00  0.00    +0.000 A 
ATOM     28  C   UNL     1      -0.882  11.710  18.646  0.00  0.00    +0.000 A 
ATOM     29  C   UNL     1      -1.157  10.451  18.109  0.00  0.00    +0.000 A 
ATOM     30  C   UNL     1      -0.121   9.549  17.850  0.00  0.00    +0.000 A 
ENDBRANCH  24  25
ENDBRANCH   3  24
TORSDOF 4
ENDMDL
MODEL 5
REMARK VINA RESULT:      -6.9      3.274      4.968
REMARK  Name = 
REMARK  7 active torsions:
REMARK  status: ('A' for Active; 'I' for Inactive)
REMARK    1  A    between atoms: C_1  and  C_2
REMARK    2  A    between atoms: C_6  and  C_7
REMARK    3  A    between atoms: C_7  and  N_8
REMARK    4  A    between atoms: N_10  and  C_11
REMARK    5  A    between atoms: N_10  and  C_12
REMARK    6  A    between atoms: C_12  and  C_13
REMARK    7  A    between atoms: N_27  and  C_28
REMARK                            x       y       z     vdW  Elec       q    Type
REMARK                         _______ _______ _______ _____ _____    ______ ____
ROOT
ATOM      1  N   UNL     1      -0.010  12.451  19.949  0.00  0.00    +0.000 N 
ATOM      2  C   UNL     1      -0.410  13.521  20.754  0.00  0.00    +0.000 A 
ATOM      3  N   UNL     1      -1.619  13.620  21.386  0.00  0.00    +0.000 N 
ATOM      4  C   UNL     1      -2.067  14.987  21.695  0.00  0.00    +0.000 C 
ATOM      5  N   UNL     1       0.478  14.501  20.675  0.00  0.00    +0.000 NA
ATOM      6  C   UNL     1       1.439  14.074  19.817  0.00  0.00    +0.000 A 
ATOM      7  C   UNL     1       1.166  12.829  19.339  0.00  0.00    +0.000 A 
ATOM      8  C   UNL     1       2.020  12.170  18.409  0.00  0.00    +0.000 A 
ATOM      9  O   UNL     1       1.867  11.042  17.960  0.00  0.00    +0.000 OA
ATOM     10  N   UNL     1       3.107  12.935  18.057  0.00  0.00    +0.000 N 
ATOM     11  C   UNL     1       3.446  14.180  18.538  0.00  0.00    +0.000 A 
ATOM     12  O   UNL     1       4.497  14.699  18.156  0.00  0.00    +0.000 OA
ATOM     13  N   UNL     1       2.569  14.774  19.437  0.00  0.00    +0.000 N 
ATOM     14  C   UNL     1       2.845  16.092  19.966  0.00  0.00    +0.000 C 
ATOM     15  H   UNL     1       3.758  12.517  17.411  0.00  0.00    +0.000 HD
ENDROOT
BRANCH   1  16
ATOM     16  C   UNL     1      -0.598  11.125  19.806  0.00  0.00    +0.000 C 
BRANCH  16  22
ATOM     17  C   UNL     1      -5.151  11.992  17.741  0.00  0.00    +0.000 C 
ATOM     18  C   UNL     1      -3.802  11.332  17.691  0.00  0.00    +0.000 A 
ATOM     19  C   UNL     1      -3.487  10.431  16.663  0.00  0.00    +0.000 A 
ATOM     20  C   UNL     1      -2.250   9.799  16.645  0.00  0.00    +0.000 A 
ATOM     21  C   UNL     1      -1.324  10.051  17.657  0.00  0.00    +0.000 A 
ATOM     22  C   UNL     1      -1.609  10.961  18.691  0.00  0.00    +0.000 A 
ATOM     23  C   UNL     1      -2.857  11.598  18.694  0.00  0.00    +0.000 A 
ENDBRANCH  16  22
ENDBRANCH   1  16
BRANCH   3  24
ATOM     24  C   UNL     1      -2.047  12.645  22.404  0.00  0.00    +0.000 C 
BRANCH  24  25
ATOM     25  C   UNL     1      -3.556  12.692  22.599  0.00  0.00    +0.000 A 
ATOM     26  C   UNL     1      -4.113  12.812  23.882  0.00  0.00    +0.000 A 
ATOM     27  C   UNL     1      -5.488  12.913  24.073  0.00  0.00    +0.000 A 
ATOM     28  C   UNL     1      -6.340  12.888  22.977  0.00  0.00    +0.000 A 
ATOM     29  C   UNL     1      -5.810  12.757  21.691  0.00  0.00    +0.000 A 
ATOM     30  C   UNL     1      -4.429  12.666  21.500  0.00  0.00    +0.000 A 
ENDBRANCH  24  25
ENDBRANCH   3  24
TORSDOF 4
ENDMDL
MODEL 6
REMARK VINA RESULT:      -6.9      2.723      4.923
REMARK  Name = 
REMARK  7 active torsions:
REMARK  status: ('A' for Active; 'I' for Inactive)
REMARK    1  A    between atoms: C_1  and  C_2
REMARK    2  A    between atoms: C_6  and  C_7
REMARK    3  A    between atoms: C_7  and  N_8
REMARK    4  A    between atoms: N_10  and  C_11
REMARK    5  A    between atoms: N_10  and  C_12
REMARK    6  A    between atoms: C_12  and  C_13
REMARK    7  A    between atoms: N_27  and  C_28
REMARK                            x       y       z     vdW  Elec       q    Type
REMARK                         _______ _______ _______ _____ _____    ______ ____
ROOT
ATOM      1  N   UNL     1      -0.740  12.369  21.921  0.00  0.00    +0.000 N 
ATOM      2  C   UNL     1      -0.363  13.430  21.093  0.00  0.00    +0.000 A 
ATOM      3  N   UNL     1      -0.837  14.710  21.190  0.00  0.00    +0.000 N 
ATOM      4  C   UNL     1      -0.780  15.507  19.954  0.00  0.00    +0.000 C 
ATOM      5  N   UNL     1       0.381  12.979  20.093  0.00  0.00    +0.000 NA
ATOM      6  C   UNL     1       0.476  11.637  20.267  0.00  0.00    +0.000 A 
ATOM      7  C   UNL     1      -0.210  11.224  21.367  0.00  0.00    +0.000 A 
ATOM      8  C   UNL     1      -0.273   9.854  21.752  0.00  0.00    +0.000 A 
ATOM      9  O   UNL     1      -0.836   9.406  22.742  0.00  0.00    +0.000 OA
ATOM     10  N   UNL     1       0.411   9.031  20.889  0.00  0.00    +0.000 N 
ATOM     11  C   UNL     1       1.149   9.403  19.787  0.00  0.00    +0.000 A 
ATOM     12  O   UNL     1       1.754   8.533  19.155  0.00  0.00    +0.000 OA
ATOM     13  N   UNL     1       1.166  10.752  19.459  0.00  0.00    +0.000 N 
ATOM     14  C   UNL     1       1.898  11.215  18.299  0.00  0.00    +0.000 C 
ATOM     15  H   UNL     1       0.416   8.050  21.115  0.00  0.00    +0.000 HD
ENDROOT
BRANCH   1  16
ATOM     16  C   UNL     1      -1.453  12.391  23.192  0.00  0.00    +0.000 C 
BRANCH  16  22
ATOM     17  C   UNL     1      -5.746  13.057  20.570  0.00  0.00    +0.000 C 
ATOM     18  C   UNL     1      -5.038  12.841  21.878  0.00  0.00    +0.000 A 
ATOM     19  C   UNL     1      -5.752  12.856  23.086  0.00  0.00    +0.000 A 
ATOM     20  C   UNL     1      -5.083  12.691  24.292  0.00  0.00    +0.000 A 
ATOM     21  C   UNL     1      -3.699  12.522  24.304  0.00  0.00    +0.000 A 
ATOM     22  C   UNL     1      -2.962  12.489  23.107  0.00  0.00    +0.000 A 
ATOM     23  C   UNL     1      -3.648  12.649  21.896  0.00  0.00    +0.000 A 
ENDBRANCH  16  22
ENDBRANCH   1  16
BRANCH   3  24
ATOM     24  C   UNL     1      -0.624  15.528  22.397  0.00  0.00    +0.000 C 
BRANCH  24  25
ATOM     25  C   UNL     1      -1.949  15.855  23.069  0.00  0.00    +0.000 A 
ATOM     26  C   UNL     1      -3.095  16.130  22.306  0.00  0.00    +0.000 A 
ATOM     27  C   UNL     1      -4.328  16.376  22.904  0.00  0.00    +0.000 A 
ATOM     28  C   UNL     1      -4.438  16.359  24.289  0.00  0.00    +0.000 A 
ATOM     29  C   UNL     1      -3.310  16.100  25.069  0.00  0.00    +0.000 A 
ATOM     30  C   UNL     1      -2.075  15.843  24.467  0.00  0.00    +0.000 A 
ENDBRANCH  24  25
ENDBRANCH   3  24
TORSDOF 4
ENDMDL
MODEL 7
REMARK VINA RESULT:      -6.9      5.106      8.353
REMARK  Name = 
REMARK  7 active torsions:
REMARK  status: ('A' for Active; 'I' for Inactive)
REMARK    1  A    between atoms: C_1  and  C_2
REMARK    2  A    between atoms: C_6  and  C_7
REMARK    3  A    between atoms: C_7  and  N_8
REMARK    4  A    between atoms: N_10  and  C_11
REMARK    5  A    between atoms: N_10  and  C_12
REMARK    6  A    between atoms: C_12  and  C_13
REMARK    7  A    between atoms: N_27  and  C_28
REMARK                            x       y       z     vdW  Elec       q    Type
REMARK                         _______ _______ _______ _____ _____    ______ ____
ROOT
ATOM      1  N   UNL     1       5.077   4.808  17.284  0.00  0.00    +0.000 N 
ATOM      2  C   UNL     1       4.244   3.834  16.724  0.00  0.00    +0.000 A 
ATOM      3  N   UNL     1       3.302   3.118  17.410  0.00  0.00    +0.000 N 
ATOM      4  C   UNL     1       2.946   1.813  16.831  0.00  0.00    +0.000 C 
ATOM      5  N   UNL     1       4.621   3.581  15.479  0.00  0.00    +0.000 NA
ATOM      6  C   UNL     1       5.694   4.376  15.238  0.00  0.00    +0.000 A 
ATOM      7  C   UNL     1       6.013   5.130  16.325  0.00  0.00    +0.000 A 
ATOM      8  C   UNL     1       7.113   6.034  16.324  0.00  0.00    +0.000 A 
ATOM      9  O   UNL     1       7.444   6.772  17.243  0.00  0.00    +0.000 OA
ATOM     10  N   UNL     1       7.796   6.033  15.130  0.00  0.00    +0.000 N 
ATOM     11  C   UNL     1       7.493   5.318  13.993  0.00  0.00    +0.000 A 
ATOM     12  O   UNL     1       8.182   5.485  12.984  0.00  0.00    +0.000 OA
ATOM     13  N   UNL     1       6.413   4.448  14.059  0.00  0.00    +0.000 N 
ATOM     14  C   UNL     1       6.049   3.643  12.912  0.00  0.00    +0.000 C 
ATOM     15  H   UNL     1       8.578   6.663  15.062  0.00  0.00    +0.000 HD
ENDROOT
BRANCH   1  16
ATOM     16  C   UNL     1       4.981   5.483  18.571  0.00  0.00    +0.000 C 
BRANCH  16  22
ATOM     17  C   UNL     1       1.138   7.688  21.044  0.00  0.00    +0.000 C 
ATOM     18  C   UNL     1       2.033   7.600  19.841  0.00  0.00    +0.000 A 
ATOM     19  C   UNL     1       1.809   8.419  18.724  0.00  0.00    +0.000 A 
ATOM     20  C   UNL     1       2.620   8.306  17.603  0.00  0.00    +0.000 A 
ATOM     21  C   UNL     1       3.651   7.367  17.580  0.00  0.00    +0.000 A 
ATOM     22  C   UNL     1       3.905   6.542  18.690  0.00  0.00    +0.000 A 
ATOM     23  C   UNL     1       3.086   6.671  19.820  0.00  0.00    +0.000 A 
ENDBRANCH  16  22
ENDBRANCH   1  16
BRANCH   3  24
ATOM     24  C   UNL     1       2.157   3.771  18.068  0.00  0.00    +0.000 C 
BRANCH  24  25
ATOM     25  C   UNL     1       2.065   3.357  19.530  0.00  0.00    +0.000 A 
ATOM     26  C   UNL     1       0.852   3.449  20.230  0.00  0.00    +0.000 A 
ATOM     27  C   UNL     1       0.737   3.022  21.550  0.00  0.00    +0.000 A 
ATOM     28  C   UNL     1       1.844   2.498  22.204  0.00  0.00    +0.000 A 
ATOM     29  C   UNL     1       3.065   2.408  21.533  0.00  0.00    +0.000 A 
ATOM     30  C   UNL     1       3.177   2.827  20.204  0.00  0.00    +0.000 A 
ENDBRANCH  24  25
ENDBRANCH   3  24
TORSDOF 4
ENDMDL
MODEL 8
REMARK VINA RESULT:      -6.8      4.412      7.744
REMARK  Name = 
REMARK  7 active torsions:
REMARK  status: ('A' for Active; 'I' for Inactive)
REMARK    1  A    between atoms: C_1  and  C_2
REMARK    2  A    between atoms: C_6  and  C_7
REMARK    3  A    between atoms: C_7  and  N_8
REMARK    4  A    between atoms: N_10  and  C_11
REMARK    5  A    between atoms: N_10  and  C_12
REMARK    6  A    between atoms: C_12  and  C_13
REMARK    7  A    between atoms: N_27  and  C_28
REMARK                            x       y       z     vdW  Elec       q    Type
REMARK                         _______ _______ _______ _____ _____    ______ ____
ROOT
ATOM      1  N   UNL     1      -3.775  12.788  21.847  0.00  0.00    +0.000 N 
ATOM      2  C   UNL     1      -2.679  12.988  21.002  0.00  0.00    +0.000 A 
ATOM      3  N   UNL     1      -1.496  13.565  21.373  0.00  0.00    +0.000 N 
ATOM      4  C   UNL     1      -0.720  14.185  20.288  0.00  0.00    +0.000 C 
ATOM      5  N   UNL     1      -3.015  12.700  19.753  0.00  0.00    +0.000 NA
ATOM      6  C   UNL     1      -4.319  12.328  19.787  0.00  0.00    +0.000 A 
ATOM      7  C   UNL     1      -4.824  12.385  21.049  0.00  0.00    +0.000 A 
ATOM      8  C   UNL     1      -6.179  12.055  21.340  0.00  0.00    +0.000 A 
ATOM      9  O   UNL     1      -6.699  12.045  22.448  0.00  0.00    +0.000 OA
ATOM     10  N   UNL     1      -6.889  11.701  20.217  0.00  0.00    +0.000 N 
ATOM     11  C   UNL     1      -6.416  11.594  18.928  0.00  0.00    +0.000 A 
ATOM     12  O   UNL     1      -7.182  11.202  18.045  0.00  0.00    +0.000 OA
ATOM     13  N   UNL     1      -5.089  11.936  18.707  0.00  0.00    +0.000 N 
ATOM     14  C   UNL     1      -4.528  11.874  17.374  0.00  0.00    +0.000 C 
ATOM     15  H   UNL     1      -7.851  11.443  20.359  0.00  0.00    +0.000 HD
ENDROOT
BRANCH   1  16
ATOM     16  C   UNL     1      -3.853  12.862  23.300  0.00  0.00    +0.000 C 
BRANCH  16  22
ATOM     17  C   UNL     1      -6.409  17.226  23.702  0.00  0.00    +0.000 C 
ATOM     18  C   UNL     1      -5.237  16.363  24.075  0.00  0.00    +0.000 A 
ATOM     19  C   UNL     1      -4.208  16.870  24.884  0.00  0.00    +0.000 A 
ATOM     20  C   UNL     1      -3.111  16.077  25.194  0.00  0.00    +0.000 A 
ATOM     21  C   UNL     1      -3.024  14.780  24.690  0.00  0.00    +0.000 A 
ATOM     22  C   UNL     1      -4.047  14.243  23.888  0.00  0.00    +0.000 A 
ATOM     23  C   UNL     1      -5.153  15.050  23.589  0.00  0.00    +0.000 A 
ENDBRANCH  16  22
ENDBRANCH   1  16
BRANCH   3  24
ATOM     24  C   UNL     1      -0.634  12.973  22.412  0.00  0.00    +0.000 C 
BRANCH  24  25
ATOM     25  C   UNL     1      -0.370  11.503  22.122  0.00  0.00    +0.000 A 
ATOM     26  C   UNL     1      -0.805  10.504  23.007  0.00  0.00    +0.000 A 
ATOM     27  C   UNL     1      -0.622   9.152  22.730  0.00  0.00    +0.000 A 
ATOM     28  C   UNL     1       0.014   8.770  21.555  0.00  0.00    +0.000 A 
ATOM     29  C   UNL     1       0.467   9.745  20.665  0.00  0.00    +0.000 A 
ATOM     30  C   UNL     1       0.273  11.101  20.940  0.00  0.00    +0.000 A 
ENDBRANCH  24  25
ENDBRANCH   3  24
TORSDOF 4
ENDMDL
MODEL 9
REMARK VINA RESULT:      -6.8      2.776      4.737
REMARK  Name = 
REMARK  7 active torsions:
REMARK  status: ('A' for Active; 'I' for Inactive)
REMARK    1  A    between atoms: C_1  and  C_2
REMARK    2  A    between atoms: C_6  and  C_7
REMARK    3  A    between atoms: C_7  and  N_8
REMARK    4  A    between atoms: N_10  and  C_11
REMARK    5  A    between atoms: N_10  and  C_12
REMARK    6  A    between atoms: C_12  and  C_13
REMARK    7  A    between atoms: N_27  and  C_28
REMARK                            x       y       z     vdW  Elec       q    Type
REMARK                         _______ _______ _______ _____ _____    ______ ____
ROOT
ATOM      1  N   UNL     1      -0.247  12.424  21.536  0.00  0.00    +0.000 N 
ATOM      2  C   UNL     1       0.224  13.653  21.065  0.00  0.00    +0.000 A 
ATOM      3  N   UNL     1      -0.187  14.877  21.516  0.00  0.00    +0.000 N 
ATOM      4  C   UNL     1      -0.028  15.993  20.570  0.00  0.00    +0.000 C 
ATOM      5  N   UNL     1       0.992  13.464  20.002  0.00  0.00    +0.000 NA
ATOM      6  C   UNL     1       1.009  12.126  19.780  0.00  0.00    +0.000 A 
ATOM      7  C   UNL     1       0.249  11.457  20.688  0.00  0.00    +0.000 A 
ATOM      8  C   UNL     1       0.096  10.041  20.654  0.00  0.00    +0.000 A 
ATOM      9  O   UNL     1      -0.537   9.362  21.452  0.00  0.00    +0.000 OA
ATOM     10  N   UNL     1       0.779   9.461  19.611  0.00  0.00    +0.000 N 
ATOM     11  C   UNL     1       1.588  10.088  18.690  0.00  0.00    +0.000 A 
ATOM     12  O   UNL     1       2.177   9.401  17.852  0.00  0.00    +0.000 OA
ATOM     13  N   UNL     1       1.691  11.470  18.770  0.00  0.00    +0.000 N 
ATOM     14  C   UNL     1       2.502  12.201  17.820  0.00  0.00    +0.000 C 
ATOM     15  H   UNL     1       0.722   8.459  19.541  0.00  0.00    +0.000 HD
ENDROOT
BRANCH   1  16
ATOM     16  C   UNL     1      -1.020  12.123  22.734  0.00  0.00    +0.000 C 
BRANCH  16  22
ATOM     17  C   UNL     1      -5.178  13.467  20.156  0.00  0.00    +0.000 C 
ATOM     18  C   UNL     1      -4.520  13.047  21.439  0.00  0.00    +0.000 A 
ATOM     19  C   UNL     1      -5.254  13.000  22.635  0.00  0.00    +0.000 A 
ATOM     20  C   UNL     1      -4.628  12.644  23.822  0.00  0.00    +0.000 A 
ATOM     21  C   UNL     1      -3.267  12.346  23.831  0.00  0.00    +0.000 A 
ATOM     22  C   UNL     1      -2.511  12.371  22.645  0.00  0.00    +0.000 A 
ATOM     23  C   UNL     1      -3.154  12.724  21.451  0.00  0.00    +0.000 A 
ENDBRANCH  16  22
ENDBRANCH   1  16
BRANCH   3  24
ATOM     24  C   UNL     1       0.009  15.296  22.915  0.00  0.00    +0.000 C 
BRANCH  24  25
ATOM     25  C   UNL     1      -1.329  15.530  23.602  0.00  0.00    +0.000 A 
ATOM     26  C   UNL     1      -1.487  15.283  24.975  0.00  0.00    +0.000 A 
ATOM     27  C   UNL     1      -2.687  15.545  25.631  0.00  0.00    +0.000 A 
ATOM     28  C   UNL     1      -3.764  16.057  24.918  0.00  0.00    +0.000 A 
ATOM     29  C   UNL     1      -3.635  16.300  23.549  0.00  0.00    +0.000 A 
ATOM     30  C   UNL     1      -2.427  16.046  22.895  0.00  0.00    +0.000 A 
ENDBRANCH  24  25
ENDBRANCH   3  24
TORSDOF 4
ENDMDL
