MODEL 1
REMARK VINA RESULT:      -7.0      0.000      0.000
REMARK  Name = 
REMARK  5 active torsions:
REMARK  status: ('A' for Active; 'I' for Inactive)
REMARK    1  A    between atoms: C_2  and  C_3
REMARK    2  A    between atoms: C_3  and  C_4
REMARK    3  A    between atoms: N_6  and  C_7
REMARK    4  A    between atoms: C_7  and  C_8
REMARK    5  A    between atoms: C_8  and  C_9
REMARK                            x       y       z     vdW  Elec       q    Type
REMARK                         _______ _______ _______ _____ _____    ______ ____
ROOT
ATOM      1  C   UNL     1       2.905   3.793  19.400  0.00  0.00    +0.000 C 
ATOM      2  C   UNL     1       2.206   2.749  18.492  0.00  0.00    +0.000 C 
ATOM      3  C   UNL     1       0.872   2.469  19.174  0.00  0.00    +0.000 C 
ATOM      4  C   UNL     1       1.144   2.635  20.666  0.00  0.00    +0.000 C 
ATOM      5  C   UNL     1       2.568   3.183  20.782  0.00  0.00    +0.000 C 
ENDROOT
BRANCH   1   6
ATOM      6  C   UNL     1       2.416   5.243  19.240  0.00  0.00    +0.000 A 
ATOM      7  C   UNL     1       2.485   5.921  18.014  0.00  0.00    +0.000 A 
ATOM      8  C   UNL     1       2.351   7.311  17.957  0.00  0.00    +0.000 A 
ATOM      9  C   UNL     1       2.104   8.041  19.116  0.00  0.00    +0.000 A 
ATOM     10  C   UNL     1       1.943   7.382  20.327  0.00  0.00    +0.000 A 
ATOM     11  C   UNL     1       2.090   6.001  20.384  0.00  0.00    +0.000 A 
ENDBRANCH   1   6
BRANCH   1  12
ATOM     12  C   UNL     1       4.438   3.797  19.116  0.00  0.00    +0.000 C 
BRANCH  12  15
ATOM     13  C   UNL     1       5.561   4.251  16.951  0.00  0.00    +0.000 C 
ATOM     14  O   UNL     1       5.939   5.363  17.335  0.00  0.00    +0.000 OA
ATOM     15  N   UNL     1       4.804   3.429  17.748  0.00  0.00    +0.000 N 
ATOM     16  H   UNL     1       4.316   2.653  17.319  0.00  0.00    +0.000 HD
BRANCH  13  17
ATOM     17  C   UNL     1       5.899   3.728  15.561  0.00  0.00    +0.000 C 
BRANCH  17  19
ATOM     18  N   UNL     1       7.749   5.464  14.424  0.00  0.00    +0.000 NA
ATOM     19  C   UNL     1       6.910   4.676  14.940  0.00  0.00    +0.000 C 
ENDBRANCH  17  19
ENDBRANCH  13  17
ENDBRANCH  12  15
ENDBRANCH   1  12
TORSDOF 5
ENDMDL
MODEL 2
REMARK VINA RESULT:      -7.0      1.268      1.757
REMARK  Name = 
REMARK  5 active torsions:
REMARK  status: ('A' for Active; 'I' for Inactive)
REMARK    1  A    between atoms: C_2  and  C_3
REMARK    2  A    between atoms: C_3  and  C_4
REMARK    3  A    between atoms: N_6  and  C_7
REMARK    4  A    between atoms: C_7  and  C_8
REMARK    5  A    between atoms: C_8  and  C_9
REMARK                            x       y       z     vdW  Elec       q    Type
REMARK                         _______ _______ _______ _____ _____    ______ ____
ROOT
ATOM      1  C   UNL     1       3.125   3.888  19.387  0.00  0.00    +0.000 C 
ATOM      2  C   UNL     1       2.679   3.081  18.142  0.00  0.00    +0.000 C 
ATOM      3  C   UNL     1       1.158   3.037  18.229  0.00  0.00    +0.000 C 
ATOM      4  C   UNL     1       0.844   3.036  19.721  0.00  0.00    +0.000 C 
ATOM      5  C   UNL     1       2.176   3.265  20.439  0.00  0.00    +0.000 C 
ENDROOT
BRANCH   1   6
ATOM      6  C   UNL     1       2.984   5.416  19.271  0.00  0.00    +0.000 A 
ATOM      7  C   UNL     1       2.372   6.185  20.272  0.00  0.00    +0.000 A 
ATOM      8  C   UNL     1       1.961   7.496  20.016  0.00  0.00    +0.000 A 
ATOM      9  C   UNL     1       2.191   8.074  18.771  0.00  0.00    +0.000 A 
ATOM     10  C   UNL     1       2.874   7.362  17.795  0.00  0.00    +0.000 A 
ATOM     11  C   UNL     1       3.271   6.054  18.047  0.00  0.00    +0.000 A 
ENDBRANCH   1   6
BRANCH   1  12
ATOM     12  C   UNL     1       4.624   3.593  19.699  0.00  0.00    +0.000 C 
BRANCH  12  15
ATOM     13  C   UNL     1       6.605   4.701  18.694  0.00  0.00    +0.000 C 
ATOM     14  O   UNL     1       6.825   5.335  19.731  0.00  0.00    +0.000 OA
ATOM     15  N   UNL     1       5.538   3.844  18.583  0.00  0.00    +0.000 N 
ATOM     16  H   UNL     1       5.253   3.540  17.661  0.00  0.00    +0.000 HD
BRANCH  13  17
ATOM     17  C   UNL     1       7.496   4.839  17.467  0.00  0.00    +0.000 C 
BRANCH  17  19
ATOM     18  N   UNL     1       6.090   3.853  15.280  0.00  0.00    +0.000 NA
ATOM     19  C   UNL     1       6.728   4.301  16.272  0.00  0.00    +0.000 C 
ENDBRANCH  17  19
ENDBRANCH  13  17
ENDBRANCH  12  15
ENDBRANCH   1  12
TORSDOF 5
ENDMDL
MODEL 3
REMARK VINA RESULT:      -6.9      1.546      1.954
REMARK  Name = 
REMARK  5 active torsions:
REMARK  status: ('A' for Active; 'I' for Inactive)
REMARK    1  A    between atoms: C_2  and  C_3
REMARK    2  A    between atoms: C_3  and  C_4
REMARK    3  A    between atoms: N_6  and  C_7
REMARK    4  A    between atoms: C_7  and  C_8
REMARK    5  A    between atoms: C_8  and  C_9
REMARK                            x       y       z     vdW  Elec       q    Type
REMARK                         _______ _______ _______ _____ _____    ______ ____
ROOT
ATOM      1  C   UNL     1       3.100   3.777  19.402  0.00  0.00    +0.000 C 
ATOM      2  C   UNL     1       2.608   2.981  18.167  0.00  0.00    +0.000 C 
ATOM      3  C   UNL     1       1.092   2.933  18.311  0.00  0.00    +0.000 C 
ATOM      4  C   UNL     1       0.834   2.917  19.814  0.00  0.00    +0.000 C 
ATOM      5  C   UNL     1       2.192   3.141  20.483  0.00  0.00    +0.000 C 
ENDROOT
BRANCH   1   6
ATOM      6  C   UNL     1       2.953   5.305  19.307  0.00  0.00    +0.000 A 
ATOM      7  C   UNL     1       2.431   6.070  20.361  0.00  0.00    +0.000 A 
ATOM      8  C   UNL     1       2.003   7.383  20.149  0.00  0.00    +0.000 A 
ATOM      9  C   UNL     1       2.125   7.967  18.891  0.00  0.00    +0.000 A 
ATOM     10  C   UNL     1       2.719   7.260  17.856  0.00  0.00    +0.000 A 
ATOM     11  C   UNL     1       3.134   5.950  18.065  0.00  0.00    +0.000 A 
ENDBRANCH   1   6
BRANCH   1  12
ATOM     12  C   UNL     1       4.610   3.481  19.655  0.00  0.00    +0.000 C 
BRANCH  12  15
ATOM     13  C   UNL     1       6.519   4.759  18.715  0.00  0.00    +0.000 C 
ATOM     14  O   UNL     1       6.720   5.327  19.793  0.00  0.00    +0.000 OA
ATOM     15  N   UNL     1       5.496   3.858  18.552  0.00  0.00    +0.000 N 
ATOM     16  H   UNL     1       5.215   3.607  17.612  0.00  0.00    +0.000 HD
BRANCH  13  17
ATOM     17  C   UNL     1       7.386   5.031  17.493  0.00  0.00    +0.000 C 
BRANCH  17  19
ATOM     18  N   UNL     1       7.483   7.783  17.114  0.00  0.00    +0.000 NA
ATOM     19  C   UNL     1       7.439   6.535  17.286  0.00  0.00    +0.000 C 
ENDBRANCH  17  19
ENDBRANCH  13  17
ENDBRANCH  12  15
ENDBRANCH   1  12
TORSDOF 5
ENDMDL
MODEL 4
REMARK VINA RESULT:      -6.8      2.719      5.672
REMARK  Name = 
REMARK  5 active torsions:
REMARK  status: ('A' for Active; 'I' for Inactive)
REMARK    1  A    between atoms: C_2  and  C_3
REMARK    2  A    between atoms: C_3  and  C_4
REMARK    3  A    between atoms: N_6  and  C_7
REMARK    4  A    between atoms: C_7  and  C_8
REMARK    5  A    between atoms: C_8  and  C_9
REMARK                            x       y       z     vdW  Elec       q    Type
REMARK                         _______ _______ _______ _____ _____    ______ ____
ROOT
ATOM      1  C   UNL     1       4.936   5.221  16.796  0.00  0.00    +0.000 C 
ATOM      2  C   UNL     1       5.209   3.714  16.560  0.00  0.00    +0.000 C 
ATOM      3  C   UNL     1       6.246   3.675  15.443  0.00  0.00    +0.000 C 
ATOM      4  C   UNL     1       5.948   4.897  14.579  0.00  0.00    +0.000 C 
ATOM      5  C   UNL     1       4.876   5.695  15.324  0.00  0.00    +0.000 C 
ENDROOT
BRANCH   1   6
ATOM      6  C   UNL     1       5.995   5.963  17.630  0.00  0.00    +0.000 A 
ATOM      7  C   UNL     1       6.540   7.189  17.221  0.00  0.00    +0.000 A 
ATOM      8  C   UNL     1       7.711   7.680  17.803  0.00  0.00    +0.000 A 
ATOM      9  C   UNL     1       8.335   6.977  18.830  0.00  0.00    +0.000 A 
ATOM     10  C   UNL     1       7.765   5.807  19.310  0.00  0.00    +0.000 A 
ATOM     11  C   UNL     1       6.606   5.312  18.723  0.00  0.00    +0.000 A 
ENDBRANCH   1   6
BRANCH   1  12
ATOM     12  C   UNL     1       3.572   5.403  17.528  0.00  0.00    +0.000 C 
BRANCH  12  15
ATOM     13  C   UNL     1       1.818   3.701  17.959  0.00  0.00    +0.000 C 
ATOM     14  O   UNL     1       1.025   4.269  17.200  0.00  0.00    +0.000 OA
ATOM     15  N   UNL     1       3.075   4.198  18.195  0.00  0.00    +0.000 N 
ATOM     16  H   UNL     1       3.592   3.851  18.993  0.00  0.00    +0.000 HD
BRANCH  13  17
ATOM     17  C   UNL     1       1.444   2.420  18.693  0.00  0.00    +0.000 C 
BRANCH  17  19
ATOM     18  N   UNL     1       1.500   2.954  21.420  0.00  0.00    +0.000 NA
ATOM     19  C   UNL     1       1.475   2.712  20.183  0.00  0.00    +0.000 C 
ENDBRANCH  17  19
ENDBRANCH  13  17
ENDBRANCH  12  15
ENDBRANCH   1  12
TORSDOF 5
ENDMDL
MODEL 5
REMARK VINA RESULT:      -6.8      1.923      2.662
REMARK  Name = 
REMARK  5 active torsions:
REMARK  status: ('A' for Active; 'I' for Inactive)
REMARK    1  A    between atoms: C_2  and  C_3
REMARK    2  A    between atoms: C_3  and  C_4
REMARK    3  A    between atoms: N_6  and  C_7
REMARK    4  A    between atoms: C_7  and  C_8
REMARK    5  A    between atoms: C_8  and  C_9
REMARK                            x       y       z     vdW  Elec       q    Type
REMARK                         _______ _______ _______ _____ _____    ______ ____
ROOT
ATOM      1  C   UNL     1       3.132   4.777  18.228  0.00  0.00    +0.000 C 
ATOM      2  C   UNL     1       1.952   3.957  17.647  0.00  0.00    +0.000 C 
ATOM      3  C   UNL     1       1.140   3.527  18.863  0.00  0.00    +0.000 C 
ATOM      4  C   UNL     1       2.159   3.359  19.985  0.00  0.00    +0.000 C 
ATOM      5  C   UNL     1       3.490   3.874  19.433  0.00  0.00    +0.000 C 
ENDROOT
BRANCH   1   6
ATOM      6  C   UNL     1       2.799   6.224  18.631  0.00  0.00    +0.000 A 
ATOM      7  C   UNL     1       2.456   6.570  19.946  0.00  0.00    +0.000 A 
ATOM      8  C   UNL     1       1.847   7.796  20.227  0.00  0.00    +0.000 A 
ATOM      9  C   UNL     1       1.609   8.713  19.207  0.00  0.00    +0.000 A 
ATOM     10  C   UNL     1       2.020   8.428  17.913  0.00  0.00    +0.000 A 
ATOM     11  C   UNL     1       2.614   7.203  17.632  0.00  0.00    +0.000 A 
ENDBRANCH   1   6
BRANCH   1  12
ATOM     12  C   UNL     1       4.288   4.850  17.184  0.00  0.00    +0.000 C 
BRANCH  12  15
ATOM     13  C   UNL     1       6.266   6.349  17.161  0.00  0.00    +0.000 C 
ATOM     14  O   UNL     1       5.868   6.922  16.141  0.00  0.00    +0.000 OA
ATOM     15  N   UNL     1       5.568   5.311  17.726  0.00  0.00    +0.000 N 
ATOM     16  H   UNL     1       6.038   4.719  18.398  0.00  0.00    +0.000 HD
BRANCH  13  17
ATOM     17  C   UNL     1       7.564   6.749  17.848  0.00  0.00    +0.000 C 
BRANCH  17  19
ATOM     18  N   UNL     1       7.761   5.293  20.209  0.00  0.00    +0.000 NA
ATOM     19  C   UNL     1       7.671   5.953  19.138  0.00  0.00    +0.000 C 
ENDBRANCH  17  19
ENDBRANCH  13  17
ENDBRANCH  12  15
ENDBRANCH   1  12
TORSDOF 5
ENDMDL
MODEL 6
REMARK VINA RESULT:      -6.8      0.795      1.378
REMARK  Name = 
REMARK  5 active torsions:
REMARK  status: ('A' for Active; 'I' for Inactive)
REMARK    1  A    between atoms: C_2  and  C_3
REMARK    2  A    between atoms: C_3  and  C_4
REMARK    3  A    between atoms: N_6  and  C_7
REMARK    4  A    between atoms: C_7  and  C_8
REMARK    5  A    between atoms: C_8  and  C_9
REMARK                            x       y       z     vdW  Elec       q    Type
REMARK                         _______ _______ _______ _____ _____    ______ ____
ROOT
ATOM      1  C   UNL     1       3.188   4.496  19.001  0.00  0.00    +0.000 C 
ATOM      2  C   UNL     1       2.428   3.722  17.894  0.00  0.00    +0.000 C 
ATOM      3  C   UNL     1       1.025   3.518  18.452  0.00  0.00    +0.000 C 
ATOM      4  C   UNL     1       1.210   3.398  19.961  0.00  0.00    +0.000 C 
ATOM      5  C   UNL     1       2.680   3.718  20.239  0.00  0.00    +0.000 C 
ENDROOT
BRANCH   1   6
ATOM      6  C   UNL     1       2.900   6.005  19.071  0.00  0.00    +0.000 A 
ATOM      7  C   UNL     1       2.308   6.598  20.196  0.00  0.00    +0.000 A 
ATOM      8  C   UNL     1       1.760   7.881  20.123  0.00  0.00    +0.000 A 
ATOM      9  C   UNL     1       1.829   8.609  18.938  0.00  0.00    +0.000 A 
ATOM     10  C   UNL     1       2.487   8.077  17.839  0.00  0.00    +0.000 A 
ATOM     11  C   UNL     1       3.022   6.795  17.909  0.00  0.00    +0.000 A 
ENDBRANCH   1   6
BRANCH   1  12
ATOM     12  C   UNL     1       4.726   4.336  18.797  0.00  0.00    +0.000 C 
BRANCH  12  15
ATOM     13  C   UNL     1       5.795   4.536  16.566  0.00  0.00    +0.000 C 
ATOM     14  O   UNL     1       6.083   5.720  16.767  0.00  0.00    +0.000 OA
ATOM     15  N   UNL     1       5.112   3.790  17.495  0.00  0.00    +0.000 N 
ATOM     16  H   UNL     1       4.686   2.920  17.201  0.00  0.00    +0.000 HD
BRANCH  13  17
ATOM     17  C   UNL     1       6.166   3.831  15.268  0.00  0.00    +0.000 C 
BRANCH  17  19
ATOM     18  N   UNL     1       7.842   5.521  13.831  0.00  0.00    +0.000 NA
ATOM     19  C   UNL     1       7.082   4.755  14.483  0.00  0.00    +0.000 C 
ENDBRANCH  17  19
ENDBRANCH  13  17
ENDBRANCH  12  15
ENDBRANCH   1  12
TORSDOF 5
ENDMDL
MODEL 7
REMARK VINA RESULT:      -6.8      2.587      4.609
REMARK  Name = 
REMARK  5 active torsions:
REMARK  status: ('A' for Active; 'I' for Inactive)
REMARK    1  A    between atoms: C_2  and  C_3
REMARK    2  A    between atoms: C_3  and  C_4
REMARK    3  A    between atoms: N_6  and  C_7
REMARK    4  A    between atoms: C_7  and  C_8
REMARK    5  A    between atoms: C_8  and  C_9
REMARK                            x       y       z     vdW  Elec       q    Type
REMARK                         _______ _______ _______ _____ _____    ______ ____
ROOT
ATOM      1  C   UNL     1       5.944   5.573  16.681  0.00  0.00    +0.000 C 
ATOM      2  C   UNL     1       7.087   4.529  16.764  0.00  0.00    +0.000 C 
ATOM      3  C   UNL     1       7.664   4.693  18.165  0.00  0.00    +0.000 C 
ATOM      4  C   UNL     1       7.486   6.170  18.500  0.00  0.00    +0.000 C 
ATOM      5  C   UNL     1       6.652   6.768  17.365  0.00  0.00    +0.000 C 
ENDROOT
BRANCH   1   6
ATOM      6  C   UNL     1       4.628   5.171  17.368  0.00  0.00    +0.000 A 
ATOM      7  C   UNL     1       4.155   3.851  17.355  0.00  0.00    +0.000 A 
ATOM      8  C   UNL     1       2.828   3.563  17.687  0.00  0.00    +0.000 A 
ATOM      9  C   UNL     1       1.964   4.583  18.076  0.00  0.00    +0.000 A 
ATOM     10  C   UNL     1       2.435   5.884  18.181  0.00  0.00    +0.000 A 
ATOM     11  C   UNL     1       3.751   6.171  17.839  0.00  0.00    +0.000 A 
ENDBRANCH   1   6
BRANCH   1  12
ATOM     12  C   UNL     1       5.606   5.867  15.187  0.00  0.00    +0.000 C 
BRANCH  12  15
ATOM     13  C   UNL     1       6.546   4.448  13.382  0.00  0.00    +0.000 C 
ATOM     14  O   UNL     1       7.470   5.244  13.184  0.00  0.00    +0.000 OA
ATOM     15  N   UNL     1       5.578   4.684  14.326  0.00  0.00    +0.000 N 
ATOM     16  H   UNL     1       4.722   4.146  14.288  0.00  0.00    +0.000 HD
BRANCH  13  17
ATOM     17  C   UNL     1       6.414   3.160  12.581  0.00  0.00    +0.000 C 
BRANCH  17  19
ATOM     18  N   UNL     1       3.985   3.242  11.231  0.00  0.00    +0.000 NA
ATOM     19  C   UNL     1       5.087   3.204  11.843  0.00  0.00    +0.000 C 
ENDBRANCH  17  19
ENDBRANCH  13  17
ENDBRANCH  12  15
ENDBRANCH   1  12
TORSDOF 5
ENDMDL
MODEL 8
REMARK VINA RESULT:      -6.8      1.746      1.919
REMARK  Name = 
REMARK  5 active torsions:
REMARK  status: ('A' for Active; 'I' for Inactive)
REMARK    1  A    between atoms: C_2  and  C_3
REMARK    2  A    between atoms: C_3  and  C_4
REMARK    3  A    between atoms: N_6  and  C_7
REMARK    4  A    between atoms: C_7  and  C_8
REMARK    5  A    between atoms: C_8  and  C_9
REMARK                            x       y       z     vdW  Elec       q    Type
REMARK                         _______ _______ _______ _____ _____    ______ ____
ROOT
ATOM      1  C   UNL     1       3.554   3.706  19.098  0.00  0.00    +0.000 C 
ATOM      2  C   UNL     1       3.525   2.920  17.762  0.00  0.00    +0.000 C 
ATOM      3  C   UNL     1       2.134   2.299  17.706  0.00  0.00    +0.000 C 
ATOM      4  C   UNL     1       1.757   2.030  19.159  0.00  0.00    +0.000 C 
ATOM      5  C   UNL     1       2.856   2.669  20.011  0.00  0.00    +0.000 C 
ENDROOT
BRANCH   1   6
ATOM      6  C   UNL     1       2.848   5.072  19.077  0.00  0.00    +0.000 A 
ATOM      7  C   UNL     1       2.943   5.943  17.982  0.00  0.00    +0.000 A 
ATOM      8  C   UNL     1       2.581   7.287  18.104  0.00  0.00    +0.000 A 
ATOM      9  C   UNL     1       2.080   7.774  19.308  0.00  0.00    +0.000 A 
ATOM     10  C   UNL     1       1.894   6.910  20.378  0.00  0.00    +0.000 A 
ATOM     11  C   UNL     1       2.266   5.576  20.260  0.00  0.00    +0.000 A 
ENDBRANCH   1   6
BRANCH   1  12
ATOM     12  C   UNL     1       5.032   3.965  19.525  0.00  0.00    +0.000 C 
BRANCH  12  15
ATOM     13  C   UNL     1       6.908   5.526  19.077  0.00  0.00    +0.000 C 
ATOM     14  O   UNL     1       7.368   5.361  20.212  0.00  0.00    +0.000 OA
ATOM     15  N   UNL     1       5.758   4.901  18.665  0.00  0.00    +0.000 N 
ATOM     16  H   UNL     1       5.288   5.245  17.837  0.00  0.00    +0.000 HD
BRANCH  13  17
ATOM     17  C   UNL     1       7.581   6.446  18.068  0.00  0.00    +0.000 C 
BRANCH  17  19
ATOM     18  N   UNL     1       5.837   6.785  15.929  0.00  0.00    +0.000 NA
ATOM     19  C   UNL     1       6.628   6.631  16.899  0.00  0.00    +0.000 C 
ENDBRANCH  17  19
ENDBRANCH  13  17
ENDBRANCH  12  15
ENDBRANCH   1  12
TORSDOF 5
ENDMDL
MODEL 9
REMARK VINA RESULT:      -6.7      1.743      2.175
REMARK  Name = 
REMARK  5 active torsions:
REMARK  status: ('A' for Active; 'I' for Inactive)
REMARK    1  A    between atoms: C_2  and  C_3
REMARK    2  A    between atoms: C_3  and  C_4
REMARK    3  A    between atoms: N_6  and  C_7
REMARK    4  A    between atoms: C_7  and  C_8
REMARK    5  A    between atoms: C_8  and  C_9
REMARK                            x       y       z     vdW  Elec       q    Type
REMARK                         _______ _______ _______ _____ _____    ______ ____
ROOT
ATOM      1  C   UNL     1       3.128   4.678  19.381  0.00  0.00    +0.000 C 
ATOM      2  C   UNL     1       2.748   3.809  18.156  0.00  0.00    +0.000 C 
ATOM      3  C   UNL     1       1.241   3.614  18.268  0.00  0.00    +0.000 C 
ATOM      4  C   UNL     1       0.949   3.608  19.765  0.00  0.00    +0.000 C 
ATOM      5  C   UNL     1       2.262   3.981  20.458  0.00  0.00    +0.000 C 
ENDROOT
BRANCH   1   6
ATOM      6  C   UNL     1       2.834   6.182  19.243  0.00  0.00    +0.000 A 
ATOM      7  C   UNL     1       2.217   6.916  20.267  0.00  0.00    +0.000 A 
ATOM      8  C   UNL     1       1.666   8.175  20.012  0.00  0.00    +0.000 A 
ATOM      9  C   UNL     1       1.757   8.738  18.742  0.00  0.00    +0.000 A 
ATOM     10  C   UNL     1       2.439   8.068  17.737  0.00  0.00    +0.000 A 
ATOM     11  C   UNL     1       2.977   6.810  17.989  0.00  0.00    +0.000 A 
ENDBRANCH   1   6
BRANCH   1  12
ATOM     12  C   UNL     1       4.654   4.540  19.674  0.00  0.00    +0.000 C 
BRANCH  12  15
ATOM     13  C   UNL     1       6.816   5.588  19.054  0.00  0.00    +0.000 C 
ATOM     14  O   UNL     1       7.304   5.327  20.158  0.00  0.00    +0.000 OA
ATOM     15  N   UNL     1       5.520   5.260  18.740  0.00  0.00    +0.000 N 
ATOM     16  H   UNL     1       5.088   5.700  17.937  0.00  0.00    +0.000 HD
BRANCH  13  17
ATOM     17  C   UNL     1       7.616   6.305  17.974  0.00  0.00    +0.000 C 
BRANCH  17  19
ATOM     18  N   UNL     1       6.064   6.370  15.667  0.00  0.00    +0.000 NA
ATOM     19  C   UNL     1       6.768   6.341  16.714  0.00  0.00    +0.000 C 
ENDBRANCH  17  19
ENDBRANCH  13  17
ENDBRANCH  12  15
ENDBRANCH   1  12
TORSDOF 5
ENDMDL
