MODEL 1
REMARK VINA RESULT:      -7.2      0.000      0.000
REMARK  Name = 
REMARK  11 active torsions:
REMARK  status: ('A' for Active; 'I' for Inactive)
REMARK    1  A    between atoms: C_1  and  C_2
REMARK    2  A    between atoms: C_2  and  C_3
REMARK    3  A    between atoms: C_3  and  C_4
REMARK    4  A    between atoms: C_9  and  O_10
REMARK    5  A    between atoms: O_10  and  C_11
REMARK    6  A    between atoms: C_11  and  C_12
REMARK    7  A    between atoms: C_12  and  O_13
REMARK    8  A    between atoms: C_12  and  C_14
REMARK    9  A    between atoms: C_14  and  N_15
REMARK   10  A    between atoms: N_15  and  C_16
REMARK   11  A    between atoms: N_15  and  C_21
REMARK                            x       y       z     vdW  Elec       q    Type
REMARK                         _______ _______ _______ _____ _____    ______ ____
ROOT
ATOM      1  C   UNL     1       5.033   4.004  18.716  0.00  0.00    +0.000 C 
ENDROOT
BRANCH   1   2
ATOM      2  O   UNL     1       6.464   3.930  18.713  0.00  0.00    +0.000 OA
ATOM      3  H   UNL     1       6.677   2.979  18.776  0.00  0.00    +0.000 HD
ENDBRANCH   1   2
BRANCH   1   4
ATOM      4  C   UNL     1       4.486   3.602  17.338  0.00  0.00    +0.000 C 
BRANCH   4   5
ATOM      5  O   UNL     1       4.504   4.727  16.460  0.00  0.00    +0.000 OA
BRANCH   5  11
ATOM      6  C   UNL     1       6.731   5.245  15.427  0.00  0.00    +0.000 A 
ATOM      7  C   UNL     1       7.518   5.034  14.269  0.00  0.00    +0.000 A 
ATOM      8  C   UNL     1       7.023   4.367  13.152  0.00  0.00    +0.000 A 
ATOM      9  C   UNL     1       5.725   3.884  13.165  0.00  0.00    +0.000 A 
ATOM     10  C   UNL     1       4.936   4.062  14.302  0.00  0.00    +0.000 A 
ATOM     11  C   UNL     1       5.417   4.740  15.438  0.00  0.00    +0.000 A 
BRANCH   6  12
ATOM     12  C   UNL     1       7.447   5.942  16.559  0.00  0.00    +0.000 C 
BRANCH  12  14
ATOM     13  C   UNL     1       7.761   8.174  17.675  0.00  0.00    +0.000 C 
ATOM     14  C   UNL     1       6.782   7.263  16.950  0.00  0.00    +0.000 C 
ENDBRANCH  12  14
ENDBRANCH   6  12
ENDBRANCH   5  11
ENDBRANCH   4   5
ENDBRANCH   1   4
BRANCH   1  15
ATOM     15  C   UNL     1       4.592   5.428  19.140  0.00  0.00    +0.000 C 
BRANCH  15  16
ATOM     16  N   UNL     1       3.287   5.529  19.844  0.00  0.00    +0.000 NA
BRANCH  16  17
ATOM     17  C   UNL     1       2.414   6.566  19.249  0.00  0.00    +0.000 C 
ATOM     18  C   UNL     1       1.913   7.672  20.180  0.00  0.00    +0.000 C 
ATOM     19  C   UNL     1       1.521   8.830  19.278  0.00  0.00    +0.000 C 
ATOM     20  C   UNL     1       2.291   8.661  17.977  0.00  0.00    +0.000 C 
ATOM     21  C   UNL     1       2.941   7.282  17.997  0.00  0.00    +0.000 C 
ENDBRANCH  16  17
BRANCH  16  22
ATOM     22  C   UNL     1       2.657   4.210  20.092  0.00  0.00    +0.000 C 
ATOM     23  C   UNL     1       2.263   3.867  21.532  0.00  0.00    +0.000 C 
ATOM     24  C   UNL     1       1.167   2.820  21.441  0.00  0.00    +0.000 C 
ATOM     25  C   UNL     1       0.589   2.895  20.037  0.00  0.00    +0.000 C 
ATOM     26  C   UNL     1       1.373   3.961  19.277  0.00  0.00    +0.000 C 
ENDBRANCH  16  22
ENDBRANCH  15  16
ENDBRANCH   1  15
TORSDOF 10
ENDMDL
MODEL 2
REMARK VINA RESULT:      -7.1      1.574      6.692
REMARK  Name = 
REMARK  11 active torsions:
REMARK  status: ('A' for Active; 'I' for Inactive)
REMARK    1  A    between atoms: C_1  and  C_2
REMARK    2  A    between atoms: C_2  and  C_3
REMARK    3  A    between atoms: C_3  and  C_4
REMARK    4  A    between atoms: C_9  and  O_10
REMARK    5  A    between atoms: O_10  and  C_11
REMARK    6  A    between atoms: C_11  and  C_12
REMARK    7  A    between atoms: C_12  and  O_13
REMARK    8  A    between atoms: C_12  and  C_14
REMARK    9  A    between atoms: C_14  and  N_15
REMARK   10  A    between atoms: N_15  and  C_16
REMARK   11  A    between atoms: N_15  and  C_21
REMARK                            x       y       z     vdW  Elec       q    Type
REMARK                         _______ _______ _______ _____ _____    ______ ____
ROOT
ATOM      1  C   UNL     1       4.339   3.593  17.595  0.00  0.00    +0.000 C 
ENDROOT
BRANCH   1   2
ATOM      2  O   UNL     1       3.582   2.378  17.532  0.00  0.00    +0.000 OA
ATOM      3  H   UNL     1       2.791   2.589  16.999  0.00  0.00    +0.000 HD
ENDBRANCH   1   2
BRANCH   1   4
ATOM      4  C   UNL     1       3.398   4.801  17.463  0.00  0.00    +0.000 C 
BRANCH   4   5
ATOM      5  O   UNL     1       3.847   5.863  18.304  0.00  0.00    +0.000 OA
BRANCH   5  11
ATOM      6  C   UNL     1       2.117   6.831  19.840  0.00  0.00    +0.000 A 
ATOM      7  C   UNL     1       1.337   7.988  20.080  0.00  0.00    +0.000 A 
ATOM      8  C   UNL     1       1.349   9.079  19.215  0.00  0.00    +0.000 A 
ATOM      9  C   UNL     1       2.150   9.045  18.086  0.00  0.00    +0.000 A 
ATOM     10  C   UNL     1       2.942   7.924  17.837  0.00  0.00    +0.000 A 
ATOM     11  C   UNL     1       2.938   6.810  18.697  0.00  0.00    +0.000 A 
BRANCH   6  12
ATOM     12  C   UNL     1       2.017   5.769  20.909  0.00  0.00    +0.000 C 
BRANCH  12  14
ATOM     13  C   UNL     1       1.648   3.292  21.134  0.00  0.00    +0.000 C 
ATOM     14  C   UNL     1       1.167   4.574  20.473  0.00  0.00    +0.000 C 
ENDBRANCH  12  14
ENDBRANCH   6  12
ENDBRANCH   5  11
ENDBRANCH   4   5
ENDBRANCH   1   4
BRANCH   1  15
ATOM     15  C   UNL     1       5.439   3.572  16.504  0.00  0.00    +0.000 C 
BRANCH  15  16
ATOM     16  N   UNL     1       5.854   4.894  15.965  0.00  0.00    +0.000 NA
BRANCH  16  17
ATOM     17  C   UNL     1       6.988   5.471  16.722  0.00  0.00    +0.000 C 
ATOM     18  C   UNL     1       6.891   6.950  17.101  0.00  0.00    +0.000 C 
ATOM     19  C   UNL     1       7.849   7.146  18.263  0.00  0.00    +0.000 C 
ATOM     20  C   UNL     1       8.041   5.786  18.915  0.00  0.00    +0.000 C 
ATOM     21  C   UNL     1       7.410   4.738  18.004  0.00  0.00    +0.000 C 
ENDBRANCH  16  17
BRANCH  16  22
ATOM     22  C   UNL     1       5.983   4.905  14.487  0.00  0.00    +0.000 C 
ATOM     23  C   UNL     1       7.387   5.063  13.896  0.00  0.00    +0.000 C 
ATOM     24  C   UNL     1       7.335   4.469  12.499  0.00  0.00    +0.000 C 
ATOM     25  C   UNL     1       6.117   3.562  12.442  0.00  0.00    +0.000 C 
ATOM     26  C   UNL     1       5.418   3.650  13.796  0.00  0.00    +0.000 C 
ENDBRANCH  16  22
ENDBRANCH  15  16
ENDBRANCH   1  15
TORSDOF 10
ENDMDL
MODEL 3
REMARK VINA RESULT:      -7.0      2.860      7.516
REMARK  Name = 
REMARK  11 active torsions:
REMARK  status: ('A' for Active; 'I' for Inactive)
REMARK    1  A    between atoms: C_1  and  C_2
REMARK    2  A    between atoms: C_2  and  C_3
REMARK    3  A    between atoms: C_3  and  C_4
REMARK    4  A    between atoms: C_9  and  O_10
REMARK    5  A    between atoms: O_10  and  C_11
REMARK    6  A    between atoms: C_11  and  C_12
REMARK    7  A    between atoms: C_12  and  O_13
REMARK    8  A    between atoms: C_12  and  C_14
REMARK    9  A    between atoms: C_14  and  N_15
REMARK   10  A    between atoms: N_15  and  C_16
REMARK   11  A    between atoms: N_15  and  C_21
REMARK                            x       y       z     vdW  Elec       q    Type
REMARK                         _______ _______ _______ _____ _____    ______ ____
ROOT
ATOM      1  C   UNL     1       2.351   7.372  18.693  0.00  0.00    +0.000 C 
ENDROOT
BRANCH   1   2
ATOM      2  O   UNL     1       2.913   8.419  17.892  0.00  0.00    +0.000 OA
ATOM      3  H   UNL     1       2.600   9.253  18.293  0.00  0.00    +0.000 HD
ENDBRANCH   1   2
BRANCH   1   4
ATOM      4  C   UNL     1       1.831   7.952  20.018  0.00  0.00    +0.000 C 
BRANCH   4   5
ATOM      5  O   UNL     1       1.286   9.252  19.800  0.00  0.00    +0.000 OA
BRANCH   5  11
ATOM      6  C   UNL     1      -0.333  10.920  20.745  0.00  0.00    +0.000 A 
ATOM      7  C   UNL     1      -1.062  11.253  21.912  0.00  0.00    +0.000 A 
ATOM      8  C   UNL     1      -0.911  10.548  23.103  0.00  0.00    +0.000 A 
ATOM      9  C   UNL     1      -0.029   9.482  23.157  0.00  0.00    +0.000 A 
ATOM     10  C   UNL     1       0.687   9.122  22.016  0.00  0.00    +0.000 A 
ATOM     11  C   UNL     1       0.552   9.827  20.805  0.00  0.00    +0.000 A 
BRANCH   6  12
ATOM     12  C   UNL     1      -0.662  11.759  19.533  0.00  0.00    +0.000 C 
BRANCH  12  14
ATOM     13  C   UNL     1      -1.506  10.189  17.760  0.00  0.00    +0.000 C 
ATOM     14  C   UNL     1      -1.891  11.248  18.781  0.00  0.00    +0.000 C 
ENDBRANCH  12  14
ENDBRANCH   6  12
ENDBRANCH   5  11
ENDBRANCH   4   5
ENDBRANCH   1   4
BRANCH   1  15
ATOM     15  C   UNL     1       3.409   6.260  18.903  0.00  0.00    +0.000 C 
BRANCH  15  16
ATOM     16  N   UNL     1       3.387   5.140  17.927  0.00  0.00    +0.000 NA
BRANCH  16  17
ATOM     17  C   UNL     1       4.673   5.008  17.204  0.00  0.00    +0.000 C 
ATOM     18  C   UNL     1       4.972   3.653  16.559  0.00  0.00    +0.000 C 
ATOM     19  C   UNL     1       6.016   3.923  15.490  0.00  0.00    +0.000 C 
ATOM     20  C   UNL     1       5.899   5.392  15.115  0.00  0.00    +0.000 C 
ATOM     21  C   UNL     1       4.973   6.059  16.126  0.00  0.00    +0.000 C 
ENDBRANCH  16  17
BRANCH  16  22
ATOM     22  C   UNL     1       2.823   3.889  18.489  0.00  0.00    +0.000 C 
ATOM     23  C   UNL     1       2.897   3.692  20.006  0.00  0.00    +0.000 C 
ATOM     24  C   UNL     1       1.794   2.713  20.368  0.00  0.00    +0.000 C 
ATOM     25  C   UNL     1       0.803   2.709  19.216  0.00  0.00    +0.000 C 
ATOM     26  C   UNL     1       1.340   3.656  18.148  0.00  0.00    +0.000 C 
ENDBRANCH  16  22
ENDBRANCH  15  16
ENDBRANCH   1  15
TORSDOF 10
ENDMDL
MODEL 4
REMARK VINA RESULT:      -7.0      2.369      7.319
REMARK  Name = 
REMARK  11 active torsions:
REMARK  status: ('A' for Active; 'I' for Inactive)
REMARK    1  A    between atoms: C_1  and  C_2
REMARK    2  A    between atoms: C_2  and  C_3
REMARK    3  A    between atoms: C_3  and  C_4
REMARK    4  A    between atoms: C_9  and  O_10
REMARK    5  A    between atoms: O_10  and  C_11
REMARK    6  A    between atoms: C_11  and  C_12
REMARK    7  A    between atoms: C_12  and  O_13
REMARK    8  A    between atoms: C_12  and  C_14
REMARK    9  A    between atoms: C_14  and  N_15
REMARK   10  A    between atoms: N_15  and  C_16
REMARK   11  A    between atoms: N_15  and  C_21
REMARK                            x       y       z     vdW  Elec       q    Type
REMARK                         _______ _______ _______ _____ _____    ______ ____
ROOT
ATOM      1  C   UNL     1       2.968   6.909  17.726  0.00  0.00    +0.000 C 
ENDROOT
BRANCH   1   2
ATOM      2  O   UNL     1       4.208   7.582  17.473  0.00  0.00    +0.000 OA
ATOM      3  H   UNL     1       4.224   7.748  16.510  0.00  0.00    +0.000 HD
ENDBRANCH   1   2
BRANCH   1   4
ATOM      4  C   UNL     1       2.361   7.413  19.045  0.00  0.00    +0.000 C 
BRANCH   4   5
ATOM      5  O   UNL     1       1.811   8.716  18.861  0.00  0.00    +0.000 OA
BRANCH   5  11
ATOM      6  C   UNL     1       0.034  10.212  19.809  0.00  0.00    +0.000 A 
ATOM      7  C   UNL     1      -0.664  10.526  21.001  0.00  0.00    +0.000 A 
ATOM      8  C   UNL     1      -0.343   9.936  22.221  0.00  0.00    +0.000 A 
ATOM      9  C   UNL     1       0.682   9.007  22.281  0.00  0.00    +0.000 A 
ATOM     10  C   UNL     1       1.371   8.666  21.117  0.00  0.00    +0.000 A 
ATOM     11  C   UNL     1       1.066   9.257  19.877  0.00  0.00    +0.000 A 
BRANCH   6  12
ATOM     12  C   UNL     1      -0.481  10.909  18.573  0.00  0.00    +0.000 C 
BRANCH  12  14
ATOM     13  C   UNL     1      -2.719  10.024  17.841  0.00  0.00    +0.000 C 
ATOM     14  C   UNL     1      -1.215   9.958  17.625  0.00  0.00    +0.000 C 
ENDBRANCH  12  14
ENDBRANCH   6  12
ENDBRANCH   5  11
ENDBRANCH   4   5
ENDBRANCH   1   4
BRANCH   1  15
ATOM     15  C   UNL     1       3.205   5.378  17.725  0.00  0.00    +0.000 C 
BRANCH  15  16
ATOM     16  N   UNL     1       3.892   4.818  18.919  0.00  0.00    +0.000 NA
BRANCH  16  17
ATOM     17  C   UNL     1       3.081   3.777  19.589  0.00  0.00    +0.000 C 
ATOM     18  C   UNL     1       2.465   4.140  20.942  0.00  0.00    +0.000 C 
ATOM     19  C   UNL     1       1.312   3.173  21.147  0.00  0.00    +0.000 C 
ATOM     20  C   UNL     1       0.893   2.682  19.770  0.00  0.00    +0.000 C 
ATOM     21  C   UNL     1       1.946   3.147  18.769  0.00  0.00    +0.000 C 
ENDBRANCH  16  17
BRANCH  16  22
ATOM     22  C   UNL     1       5.312   4.475  18.664  0.00  0.00    +0.000 C 
ATOM     23  C   UNL     1       5.772   4.377  17.207  0.00  0.00    +0.000 C 
ATOM     24  C   UNL     1       7.273   4.610  17.212  0.00  0.00    +0.000 C 
ATOM     25  C   UNL     1       7.615   5.300  18.522  0.00  0.00    +0.000 C 
ATOM     26  C   UNL     1       6.320   5.440  19.317  0.00  0.00    +0.000 C 
ENDBRANCH  16  22
ENDBRANCH  15  16
ENDBRANCH   1  15
TORSDOF 10
ENDMDL
MODEL 5
REMARK VINA RESULT:      -7.0      1.507      3.119
REMARK  Name = 
REMARK  11 active torsions:
REMARK  status: ('A' for Active; 'I' for Inactive)
REMARK    1  A    between atoms: C_1  and  C_2
REMARK    2  A    between atoms: C_2  and  C_3
REMARK    3  A    between atoms: C_3  and  C_4
REMARK    4  A    between atoms: C_9  and  O_10
REMARK    5  A    between atoms: O_10  and  C_11
REMARK    6  A    between atoms: C_11  and  C_12
REMARK    7  A    between atoms: C_12  and  O_13
REMARK    8  A    between atoms: C_12  and  C_14
REMARK    9  A    between atoms: C_14  and  N_15
REMARK   10  A    between atoms: N_15  and  C_16
REMARK   11  A    between atoms: N_15  and  C_21
REMARK                            x       y       z     vdW  Elec       q    Type
REMARK                         _______ _______ _______ _____ _____    ______ ____
ROOT
ATOM      1  C   UNL     1       5.310   4.416  17.388  0.00  0.00    +0.000 C 
ENDROOT
BRANCH   1   2
ATOM      2  O   UNL     1       6.663   4.010  17.625  0.00  0.00    +0.000 OA
ATOM      3  H   UNL     1       6.652   3.033  17.602  0.00  0.00    +0.000 HD
ENDBRANCH   1   2
BRANCH   1   4
ATOM      4  C   UNL     1       5.152   4.881  15.932  0.00  0.00    +0.000 C 
BRANCH   4   5
ATOM      5  O   UNL     1       5.597   3.857  15.043  0.00  0.00    +0.000 OA
BRANCH   5  11
ATOM      6  C   UNL     1       6.321   3.801  12.642  0.00  0.00    +0.000 A 
ATOM      7  C   UNL     1       7.197   4.408  11.709  0.00  0.00    +0.000 A 
ATOM      8  C   UNL     1       8.125   5.374  12.089  0.00  0.00    +0.000 A 
ATOM      9  C   UNL     1       8.197   5.766  13.415  0.00  0.00    +0.000 A 
ATOM     10  C   UNL     1       7.332   5.197  14.350  0.00  0.00    +0.000 A 
ATOM     11  C   UNL     1       6.392   4.214  13.985  0.00  0.00    +0.000 A 
BRANCH   6  12
ATOM     12  C   UNL     1       5.348   2.813  12.044  0.00  0.00    +0.000 C 
BRANCH  12  14
ATOM     13  C   UNL     1       3.552   3.339  10.364  0.00  0.00    +0.000 C 
ATOM     14  C   UNL     1       3.958   3.414  11.827  0.00  0.00    +0.000 C 
ENDBRANCH  12  14
ENDBRANCH   6  12
ENDBRANCH   5  11
ENDBRANCH   4   5
ENDBRANCH   1   4
BRANCH   1  15
ATOM     15  C   UNL     1       4.914   5.511  18.410  0.00  0.00    +0.000 C 
BRANCH  15  16
ATOM     16  N   UNL     1       3.572   5.374  19.033  0.00  0.00    +0.000 NA
BRANCH  16  17
ATOM     17  C   UNL     1       2.673   6.493  18.670  0.00  0.00    +0.000 C 
ATOM     18  C   UNL     1       2.122   7.343  19.816  0.00  0.00    +0.000 C 
ATOM     19  C   UNL     1       1.705   8.663  19.193  0.00  0.00    +0.000 C 
ATOM     20  C   UNL     1       2.500   8.818  17.906  0.00  0.00    +0.000 C 
ATOM     21  C   UNL     1       3.196   7.490  17.625  0.00  0.00    +0.000 C 
ENDBRANCH  16  17
BRANCH  16  22
ATOM     22  C   UNL     1       3.004   4.011  18.896  0.00  0.00    +0.000 C 
ATOM     23  C   UNL     1       2.800   3.191  20.172  0.00  0.00    +0.000 C 
ATOM     24  C   UNL     1       1.722   2.168  19.860  0.00  0.00    +0.000 C 
ATOM     25  C   UNL     1       0.972   2.665  18.635  0.00  0.00    +0.000 C 
ATOM     26  C   UNL     1       1.634   3.967  18.192  0.00  0.00    +0.000 C 
ENDBRANCH  16  22
ENDBRANCH  15  16
ENDBRANCH   1  15
TORSDOF 10
ENDMDL
MODEL 6
REMARK VINA RESULT:      -6.9      1.390      4.366
REMARK  Name = 
REMARK  11 active torsions:
REMARK  status: ('A' for Active; 'I' for Inactive)
REMARK    1  A    between atoms: C_1  and  C_2
REMARK    2  A    between atoms: C_2  and  C_3
REMARK    3  A    between atoms: C_3  and  C_4
REMARK    4  A    between atoms: C_9  and  O_10
REMARK    5  A    between atoms: O_10  and  C_11
REMARK    6  A    between atoms: C_11  and  C_12
REMARK    7  A    between atoms: C_12  and  O_13
REMARK    8  A    between atoms: C_12  and  C_14
REMARK    9  A    between atoms: C_14  and  N_15
REMARK   10  A    between atoms: N_15  and  C_16
REMARK   11  A    between atoms: N_15  and  C_21
REMARK                            x       y       z     vdW  Elec       q    Type
REMARK                         _______ _______ _______ _____ _____    ______ ____
ROOT
ATOM      1  C   UNL     1       4.912   4.304  18.016  0.00  0.00    +0.000 C 
ENDROOT
BRANCH   1   2
ATOM      2  O   UNL     1       6.228   3.927  18.437  0.00  0.00    +0.000 OA
ATOM      3  H   UNL     1       6.452   3.131  17.916  0.00  0.00    +0.000 HD
ENDBRANCH   1   2
BRANCH   1   4
ATOM      4  C   UNL     1       4.952   4.812  16.567  0.00  0.00    +0.000 C 
BRANCH   4   5
ATOM      5  O   UNL     1       5.384   3.768  15.696  0.00  0.00    +0.000 OA
BRANCH   5  11
ATOM      6  C   UNL     1       5.853   3.860  13.234  0.00  0.00    +0.000 A 
ATOM      7  C   UNL     1       6.728   4.415  12.268  0.00  0.00    +0.000 A 
ATOM      8  C   UNL     1       7.843   5.167  12.628  0.00  0.00    +0.000 A 
ATOM      9  C   UNL     1       8.110   5.392  13.968  0.00  0.00    +0.000 A 
ATOM     10  C   UNL     1       7.252   4.873  14.938  0.00  0.00    +0.000 A 
ATOM     11  C   UNL     1       6.124   4.105  14.593  0.00  0.00    +0.000 A 
BRANCH   6  12
ATOM     12  C   UNL     1       4.670   3.117  12.661  0.00  0.00    +0.000 C 
BRANCH  12  14
ATOM     13  C   UNL     1       3.473   3.629  10.509  0.00  0.00    +0.000 C 
ATOM     14  C   UNL     1       4.719   3.022  11.135  0.00  0.00    +0.000 C 
ENDBRANCH  12  14
ENDBRANCH   6  12
ENDBRANCH   5  11
ENDBRANCH   4   5
ENDBRANCH   1   4
BRANCH   1  15
ATOM     15  C   UNL     1       4.337   5.354  19.001  0.00  0.00    +0.000 C 
BRANCH  15  16
ATOM     16  N   UNL     1       2.945   5.805  18.741  0.00  0.00    +0.000 NA
BRANCH  16  17
ATOM     17  C   UNL     1       1.946   4.908  19.366  0.00  0.00    +0.000 C 
ATOM     18  C   UNL     1       1.301   3.851  18.467  0.00  0.00    +0.000 C 
ATOM     19  C   UNL     1       0.764   2.781  19.402  0.00  0.00    +0.000 C 
ATOM     20  C   UNL     1       1.554   2.885  20.697  0.00  0.00    +0.000 C 
ATOM     21  C   UNL     1       2.380   4.166  20.638  0.00  0.00    +0.000 C 
ENDBRANCH  16  17
BRANCH  16  22
ATOM     22  C   UNL     1       2.751   7.257  18.970  0.00  0.00    +0.000 C 
ATOM     23  C   UNL     1       2.171   8.089  17.823  0.00  0.00    +0.000 C 
ATOM     24  C   UNL     1       1.541   9.316  18.456  0.00  0.00    +0.000 C 
ATOM     25  C   UNL     1       1.314   8.997  19.925  0.00  0.00    +0.000 C 
ATOM     26  C   UNL     1       1.851   7.591  20.175  0.00  0.00    +0.000 C 
ENDBRANCH  16  22
ENDBRANCH  15  16
ENDBRANCH   1  15
TORSDOF 10
ENDMDL
MODEL 7
REMARK VINA RESULT:      -6.8      3.313      7.313
REMARK  Name = 
REMARK  11 active torsions:
REMARK  status: ('A' for Active; 'I' for Inactive)
REMARK    1  A    between atoms: C_1  and  C_2
REMARK    2  A    between atoms: C_2  and  C_3
REMARK    3  A    between atoms: C_3  and  C_4
REMARK    4  A    between atoms: C_9  and  O_10
REMARK    5  A    between atoms: O_10  and  C_11
REMARK    6  A    between atoms: C_11  and  C_12
REMARK    7  A    between atoms: C_12  and  O_13
REMARK    8  A    between atoms: C_12  and  C_14
REMARK    9  A    between atoms: C_14  and  N_15
REMARK   10  A    between atoms: N_15  and  C_16
REMARK   11  A    between atoms: N_15  and  C_21
REMARK                            x       y       z     vdW  Elec       q    Type
REMARK                         _______ _______ _______ _____ _____    ______ ____
ROOT
ATOM      1  C   UNL     1       2.544   7.908  18.683  0.00  0.00    +0.000 C 
ENDROOT
BRANCH   1   2
ATOM      2  O   UNL     1       2.055   7.871  20.030  0.00  0.00    +0.000 OA
ATOM      3  H   UNL     1       2.733   7.389  20.542  0.00  0.00    +0.000 HD
ENDBRANCH   1   2
BRANCH   1   4
ATOM      4  C   UNL     1       2.039   9.177  17.979  0.00  0.00    +0.000 C 
BRANCH   4   5
ATOM      5  O   UNL     1       0.617   9.138  17.867  0.00  0.00    +0.000 OA
BRANCH   5  11
ATOM      6  C   UNL     1      -1.405  10.622  17.803  0.00  0.00    +0.000 A 
ATOM      7  C   UNL     1      -1.952  11.813  18.338  0.00  0.00    +0.000 A 
ATOM      8  C   UNL     1      -1.223  12.644  19.186  0.00  0.00    +0.000 A 
ATOM      9  C   UNL     1       0.074  12.300  19.528  0.00  0.00    +0.000 A 
ATOM     10  C   UNL     1       0.628  11.121  19.029  0.00  0.00    +0.000 A 
ATOM     11  C   UNL     1      -0.090  10.273  18.167  0.00  0.00    +0.000 A 
BRANCH   6  12
ATOM     12  C   UNL     1      -2.355   9.821  16.945  0.00  0.00    +0.000 C 
BRANCH  12  14
ATOM     13  C   UNL     1      -3.066  10.106  14.549  0.00  0.00    +0.000 C 
ATOM     14  C   UNL     1      -3.126  10.693  15.951  0.00  0.00    +0.000 C 
ENDBRANCH  12  14
ENDBRANCH   6  12
ENDBRANCH   5  11
ENDBRANCH   4   5
ENDBRANCH   1   4
BRANCH   1  15
ATOM     15  C   UNL     1       2.125   6.610  17.947  0.00  0.00    +0.000 C 
BRANCH  15  16
ATOM     16  N   UNL     1       3.119   5.506  17.946  0.00  0.00    +0.000 NA
BRANCH  16  17
ATOM     17  C   UNL     1       4.486   5.989  18.249  0.00  0.00    +0.000 C 
ATOM     18  C   UNL     1       5.345   5.115  19.165  0.00  0.00    +0.000 C 
ATOM     19  C   UNL     1       6.784   5.519  18.896  0.00  0.00    +0.000 C 
ATOM     20  C   UNL     1       6.819   6.139  17.508  0.00  0.00    +0.000 C 
ATOM     21  C   UNL     1       5.378   6.341  17.051  0.00  0.00    +0.000 C 
ENDBRANCH  16  17
BRANCH  16  22
ATOM     22  C   UNL     1       2.666   4.314  18.703  0.00  0.00    +0.000 C 
ATOM     23  C   UNL     1       1.688   4.534  19.861  0.00  0.00    +0.000 C 
ATOM     24  C   UNL     1       0.953   3.220  20.060  0.00  0.00    +0.000 C 
ATOM     25  C   UNL     1       1.119   2.415  18.781  0.00  0.00    +0.000 C 
ATOM     26  C   UNL     1       1.991   3.235  17.835  0.00  0.00    +0.000 C 
ENDBRANCH  16  22
ENDBRANCH  15  16
ENDBRANCH   1  15
TORSDOF 10
ENDMDL
MODEL 8
REMARK VINA RESULT:      -6.8      3.134      7.272
REMARK  Name = 
REMARK  11 active torsions:
REMARK  status: ('A' for Active; 'I' for Inactive)
REMARK    1  A    between atoms: C_1  and  C_2
REMARK    2  A    between atoms: C_2  and  C_3
REMARK    3  A    between atoms: C_3  and  C_4
REMARK    4  A    between atoms: C_9  and  O_10
REMARK    5  A    between atoms: O_10  and  C_11
REMARK    6  A    between atoms: C_11  and  C_12
REMARK    7  A    between atoms: C_12  and  O_13
REMARK    8  A    between atoms: C_12  and  C_14
REMARK    9  A    between atoms: C_14  and  N_15
REMARK   10  A    between atoms: N_15  and  C_16
REMARK   11  A    between atoms: N_15  and  C_21
REMARK                            x       y       z     vdW  Elec       q    Type
REMARK                         _______ _______ _______ _____ _____    ______ ____
ROOT
ATOM      1  C   UNL     1       2.389   7.718  18.995  0.00  0.00    +0.000 C 
ENDROOT
BRANCH   1   2
ATOM      2  O   UNL     1       2.145   7.522  20.393  0.00  0.00    +0.000 OA
ATOM      3  H   UNL     1       2.973   7.148  20.754  0.00  0.00    +0.000 HD
ENDBRANCH   1   2
BRANCH   1   4
ATOM      4  C   UNL     1       1.639   8.967  18.505  0.00  0.00    +0.000 C 
BRANCH   4   5
ATOM      5  O   UNL     1       1.110   9.685  19.618  0.00  0.00    +0.000 OA
BRANCH   5  11
ATOM      6  C   UNL     1      -0.704  11.267  20.326  0.00  0.00    +0.000 A 
ATOM      7  C   UNL     1      -1.870  11.928  19.871  0.00  0.00    +0.000 A 
ATOM      8  C   UNL     1      -2.406  11.694  18.607  0.00  0.00    +0.000 A 
ATOM      9  C   UNL     1      -1.783  10.794  17.758  0.00  0.00    +0.000 A 
ATOM     10  C   UNL     1      -0.621  10.145  18.176  0.00  0.00    +0.000 A 
ATOM     11  C   UNL     1      -0.069  10.364  19.452  0.00  0.00    +0.000 A 
BRANCH   6  12
ATOM     12  C   UNL     1      -0.239  11.681  21.702  0.00  0.00    +0.000 C 
BRANCH  12  14
ATOM     13  C   UNL     1      -0.285   9.636  23.165  0.00  0.00    +0.000 C 
ATOM     14  C   UNL     1      -0.980  10.944  22.819  0.00  0.00    +0.000 C 
ENDBRANCH  12  14
ENDBRANCH   6  12
ENDBRANCH   5  11
ENDBRANCH   4   5
ENDBRANCH   1   4
BRANCH   1  15
ATOM     15  C   UNL     1       1.989   6.439  18.218  0.00  0.00    +0.000 C 
BRANCH  15  16
ATOM     16  N   UNL     1       3.040   5.396  18.085  0.00  0.00    +0.000 NA
BRANCH  16  17
ATOM     17  C   UNL     1       4.392   5.931  18.362  0.00  0.00    +0.000 C 
ATOM     18  C   UNL     1       5.331   5.054  19.192  0.00  0.00    +0.000 C 
ATOM     19  C   UNL     1       6.736   5.547  18.890  0.00  0.00    +0.000 C 
ATOM     20  C   UNL     1       6.682   6.244  17.540  0.00  0.00    +0.000 C 
ATOM     21  C   UNL     1       5.215   6.396  17.152  0.00  0.00    +0.000 C 
ENDBRANCH  16  17
BRANCH  16  22
ATOM     22  C   UNL     1       2.689   4.126  18.767  0.00  0.00    +0.000 C 
ATOM     23  C   UNL     1       1.824   4.210  20.028  0.00  0.00    +0.000 C 
ATOM     24  C   UNL     1       1.141   2.861  20.172  0.00  0.00    +0.000 C 
ATOM     25  C   UNL     1       1.200   2.181  18.814  0.00  0.00    +0.000 C 
ATOM     26  C   UNL     1       1.957   3.110  17.870  0.00  0.00    +0.000 C 
ENDBRANCH  16  22
ENDBRANCH  15  16
ENDBRANCH   1  15
TORSDOF 10
ENDMDL
MODEL 9
REMARK VINA RESULT:      -6.7      3.095      7.631
REMARK  Name = 
REMARK  11 active torsions:
REMARK  status: ('A' for Active; 'I' for Inactive)
REMARK    1  A    between atoms: C_1  and  C_2
REMARK    2  A    between atoms: C_2  and  C_3
REMARK    3  A    between atoms: C_3  and  C_4
REMARK    4  A    between atoms: C_9  and  O_10
REMARK    5  A    between atoms: O_10  and  C_11
REMARK    6  A    between atoms: C_11  and  C_12
REMARK    7  A    between atoms: C_12  and  O_13
REMARK    8  A    between atoms: C_12  and  C_14
REMARK    9  A    between atoms: C_14  and  N_15
REMARK   10  A    between atoms: N_15  and  C_16
REMARK   11  A    between atoms: N_15  and  C_21
REMARK                            x       y       z     vdW  Elec       q    Type
REMARK                         _______ _______ _______ _____ _____    ______ ____
ROOT
ATOM      1  C   UNL     1       2.135   7.781  18.270  0.00  0.00    +0.000 C 
ENDROOT
BRANCH   1   2
ATOM      2  O   UNL     1       2.414   8.885  17.401  0.00  0.00    +0.000 OA
ATOM      3  H   UNL     1       1.732   9.556  17.602  0.00  0.00    +0.000 HD
ENDBRANCH   1   2
BRANCH   1   4
ATOM      4  C   UNL     1       1.766   8.299  19.669  0.00  0.00    +0.000 C 
BRANCH   4   5
ATOM      5  O   UNL     1       1.117   9.565  19.564  0.00  0.00    +0.000 OA
BRANCH   5  11
ATOM      6  C   UNL     1      -0.453  11.126  20.743  0.00  0.00    +0.000 A 
ATOM      7  C   UNL     1      -1.117  11.347  21.974  0.00  0.00    +0.000 A 
ATOM      8  C   UNL     1      -0.894  10.541  23.088  0.00  0.00    +0.000 A 
ATOM      9  C   UNL     1      -0.004   9.484  22.998  0.00  0.00    +0.000 A 
ATOM     10  C   UNL     1       0.647   9.234  21.790  0.00  0.00    +0.000 A 
ATOM     11  C   UNL     1       0.439  10.041  20.656  0.00  0.00    +0.000 A 
BRANCH   6  12
ATOM     12  C   UNL     1      -0.855  12.066  19.631  0.00  0.00    +0.000 C 
BRANCH  12  14
ATOM     13  C   UNL     1      -0.225  14.372  18.850  0.00  0.00    +0.000 C 
ATOM     14  C   UNL     1       0.289  12.983  19.195  0.00  0.00    +0.000 C 
ENDBRANCH  12  14
ENDBRANCH   6  12
ENDBRANCH   5  11
ENDBRANCH   4   5
ENDBRANCH   1   4
BRANCH   1  15
ATOM     15  C   UNL     1       3.353   6.822  18.291  0.00  0.00    +0.000 C 
BRANCH  15  16
ATOM     16  N   UNL     1       3.138   5.475  17.701  0.00  0.00    +0.000 NA
BRANCH  16  17
ATOM     17  C   UNL     1       4.405   4.723  17.559  0.00  0.00    +0.000 C 
ATOM     18  C   UNL     1       5.053   4.705  16.174  0.00  0.00    +0.000 C 
ATOM     19  C   UNL     1       6.514   4.360  16.402  0.00  0.00    +0.000 C 
ATOM     20  C   UNL     1       6.843   4.740  17.837  0.00  0.00    +0.000 C 
ATOM     21  C   UNL     1       5.532   5.071  18.543  0.00  0.00    +0.000 C 
ENDBRANCH  16  17
BRANCH  16  22
ATOM     22  C   UNL     1       2.009   4.741  18.322  0.00  0.00    +0.000 C 
ATOM     23  C   UNL     1       1.720   3.323  17.823  0.00  0.00    +0.000 C 
ATOM     24  C   UNL     1       0.983   2.613  18.945  0.00  0.00    +0.000 C 
ATOM     25  C   UNL     1       1.255   3.391  20.222  0.00  0.00    +0.000 C 
ATOM     26  C   UNL     1       2.120   4.591  19.851  0.00  0.00    +0.000 C 
ENDBRANCH  16  22
ENDBRANCH  15  16
ENDBRANCH   1  15
TORSDOF 10
ENDMDL
