MODEL 1
REMARK VINA RESULT:      -9.0      0.000      0.000
REMARK  Name = 
REMARK  9 active torsions:
REMARK  status: ('A' for Active; 'I' for Inactive)
REMARK    1  A    between atoms: C_1  and  O_2
REMARK    2  A    between atoms: O_2  and  C_3
REMARK    3  A    between atoms: C_6  and  C_7
REMARK    4  A    between atoms: C_8  and  C_9
REMARK    5  A    between atoms: N_11  and  C_12
REMARK    6  A    between atoms: N_21  and  C_22
REMARK    7  A    between atoms: C_26  and  C_27
REMARK    8  A    between atoms: C_31  and  O_32
REMARK    9  A    between atoms: O_32  and  C_33
REMARK                            x       y       z     vdW  Elec       q    Type
REMARK                         _______ _______ _______ _____ _____    ______ ____
ROOT
ATOM      1  C   UNL     1       0.514   9.969  21.079  0.00  0.00    +0.000 A 
ATOM      2  C   UNL     1      -0.087   9.389  22.199  0.00  0.00    +0.000 A 
ATOM      3  C   UNL     1      -0.972  10.109  23.000  0.00  0.00    +0.000 A 
ATOM      4  C   UNL     1      -1.257  11.431  22.739  0.00  0.00    +0.000 A 
ATOM      5  N   UNL     1      -2.210  12.020  23.472  0.00  0.00    +0.000 NA
ATOM      6  C   UNL     1      -2.467  13.327  23.265  0.00  0.00    +0.000 A 
ATOM      7  N   UNL     1      -3.757  13.743  23.305  0.00  0.00    +0.000 N 
ATOM      8  C   UNL     1      -4.071  15.173  23.298  0.00  0.00    +0.000 C 
ATOM      9  C   UNL     1      -5.487  15.355  23.900  0.00  0.00    +0.000 C 
ATOM     10  N   UNL     1      -6.503  14.390  23.442  0.00  0.00    +0.000 NA
ATOM     11  C   UNL     1      -7.780  14.502  24.116  0.00  0.00    +0.000 C 
ATOM     12  C   UNL     1      -6.059  13.009  23.192  0.00  0.00    +0.000 C 
ATOM     13  C   UNL     1      -4.704  12.972  22.471  0.00  0.00    +0.000 C 
ATOM     14  C   UNL     1      -1.481  14.072  22.682  0.00  0.00    +0.000 A 
ATOM     15  C   UNL     1      -1.015  13.461  21.531  0.00  0.00    +0.000 A 
ATOM     16  C   UNL     1      -1.558  14.061  20.256  0.00  0.00    +0.000 C 
ATOM     17  C   UNL     1      -0.652  12.084  21.651  0.00  0.00    +0.000 A 
ATOM     18  C   UNL     1       0.209  11.319  20.794  0.00  0.00    +0.000 A 
ENDROOT
BRANCH   1  21
ATOM     19  C   UNL     1       1.300   9.170  18.843  0.00  0.00    +0.000 C 
ATOM     20  O   UNL     1       0.408   9.617  18.144  0.00  0.00    +0.000 OA
ATOM     21  N   UNL     1       1.395   9.249  20.225  0.00  0.00    +0.000 N 
ATOM     22  H   UNL     1       2.169   8.789  20.683  0.00  0.00    +0.000 HD
BRANCH  19  24
ATOM     23  C   UNL     1       2.589   7.120  18.415  0.00  0.00    +0.000 C 
ATOM     24  C   UNL     1       2.455   8.445  18.205  0.00  0.00    +0.000 C 
BRANCH  23  28
ATOM     25  C   UNL     1       5.413   4.560  16.409  0.00  0.00    +0.000 A 
ATOM     26  C   UNL     1       4.184   4.069  16.871  0.00  0.00    +0.000 A 
ATOM     27  C   UNL     1       3.280   4.903  17.546  0.00  0.00    +0.000 A 
ATOM     28  C   UNL     1       3.606   6.237  17.819  0.00  0.00    +0.000 A 
ATOM     29  C   UNL     1       4.853   6.704  17.408  0.00  0.00    +0.000 A 
ATOM     30  C   UNL     1       5.769   5.883  16.717  0.00  0.00    +0.000 A 
BRANCH  25  32
ATOM     31  C   UNL     1       6.206   3.848  14.283  0.00  0.00    +0.000 C 
ATOM     32  O   UNL     1       6.282   3.773  15.706  0.00  0.00    +0.000 OA
ENDBRANCH  25  32
BRANCH  30  33
ATOM     33  O   UNL     1       6.924   6.556  16.412  0.00  0.00    +0.000 OA
ATOM     34  C   UNL     1       7.594   7.289  17.425  0.00  0.00    +0.000 C 
ENDBRANCH  30  33
ENDBRANCH  23  28
ENDBRANCH  19  24
ENDBRANCH   1  21
TORSDOF 5
ENDMDL
MODEL 2
REMARK VINA RESULT:      -8.4      1.351      1.561
REMARK  Name = 
REMARK  9 active torsions:
REMARK  status: ('A' for Active; 'I' for Inactive)
REMARK    1  A    between atoms: C_1  and  O_2
REMARK    2  A    between atoms: O_2  and  C_3
REMARK    3  A    between atoms: C_6  and  C_7
REMARK    4  A    between atoms: C_8  and  C_9
REMARK    5  A    between atoms: N_11  and  C_12
REMARK    6  A    between atoms: N_21  and  C_22
REMARK    7  A    between atoms: C_26  and  C_27
REMARK    8  A    between atoms: C_31  and  O_32
REMARK    9  A    between atoms: O_32  and  C_33
REMARK                            x       y       z     vdW  Elec       q    Type
REMARK                         _______ _______ _______ _____ _____    ______ ____
ROOT
ATOM      1  C   UNL     1       1.176   8.952  21.239  0.00  0.00    +0.000 A 
ATOM      2  C   UNL     1       0.656   8.756  22.521  0.00  0.00    +0.000 A 
ATOM      3  C   UNL     1      -0.110   9.738  23.148  0.00  0.00    +0.000 A 
ATOM      4  C   UNL     1      -0.349  10.952  22.544  0.00  0.00    +0.000 A 
ATOM      5  N   UNL     1      -1.196  11.794  23.149  0.00  0.00    +0.000 NA
ATOM      6  C   UNL     1      -1.402  13.006  22.598  0.00  0.00    +0.000 A 
ATOM      7  N   UNL     1      -2.659  13.516  22.617  0.00  0.00    +0.000 N 
ATOM      8  C   UNL     1      -2.897  14.906  22.227  0.00  0.00    +0.000 C 
ATOM      9  C   UNL     1      -4.237  15.358  22.859  0.00  0.00    +0.000 C 
ATOM     10  N   UNL     1      -5.341  14.386  22.775  0.00  0.00    +0.000 NA
ATOM     11  C   UNL     1      -6.541  14.780  23.485  0.00  0.00    +0.000 C 
ATOM     12  C   UNL     1      -4.997  12.960  22.896  0.00  0.00    +0.000 C 
ATOM     13  C   UNL     1      -3.720  12.618  22.114  0.00  0.00    +0.000 C 
ATOM     14  C   UNL     1      -0.439  13.480  21.753  0.00  0.00    +0.000 A 
ATOM     15  C   UNL     1      -0.118  12.538  20.791  0.00  0.00    +0.000 A 
ATOM     16  C   UNL     1      -0.748  12.798  19.445  0.00  0.00    +0.000 C 
ATOM     17  C   UNL     1       0.182  11.225  21.271  0.00  0.00    +0.000 A 
ATOM     18  C   UNL     1       0.916  10.187  20.604  0.00  0.00    +0.000 A 
ENDROOT
BRANCH   1  21
ATOM     19  C   UNL     1       1.586   6.617  20.440  0.00  0.00    +0.000 C 
ATOM     20  O   UNL     1       0.641   6.055  20.964  0.00  0.00    +0.000 OA
ATOM     21  N   UNL     1       1.932   7.956  20.561  0.00  0.00    +0.000 N 
ATOM     22  H   UNL     1       2.775   8.279  20.107  0.00  0.00    +0.000 HD
BRANCH  19  24
ATOM     23  C   UNL     1       3.318   6.507  18.697  0.00  0.00    +0.000 C 
ATOM     24  C   UNL     1       2.518   5.837  19.550  0.00  0.00    +0.000 C 
BRANCH  23  28
ATOM     25  C   UNL     1       6.139   4.905  15.864  0.00  0.00    +0.000 A 
ATOM     26  C   UNL     1       4.942   4.237  16.160  0.00  0.00    +0.000 A 
ATOM     27  C   UNL     1       4.040   4.752  17.103  0.00  0.00    +0.000 A 
ATOM     28  C   UNL     1       4.337   5.923  17.809  0.00  0.00    +0.000 A 
ATOM     29  C   UNL     1       5.554   6.553  17.552  0.00  0.00    +0.000 A 
ATOM     30  C   UNL     1       6.467   6.056  16.599  0.00  0.00    +0.000 A 
BRANCH  25  32
ATOM     31  C   UNL     1       6.426   3.998  13.684  0.00  0.00    +0.000 C 
ATOM     32  O   UNL     1       7.004   4.441  14.911  0.00  0.00    +0.000 OA
ENDBRANCH  25  32
BRANCH  30  33
ATOM     33  O   UNL     1       7.589   6.838  16.514  0.00  0.00    +0.000 OA
ATOM     34  C   UNL     1       7.810   7.849  17.485  0.00  0.00    +0.000 C 
ENDBRANCH  30  33
ENDBRANCH  23  28
ENDBRANCH  19  24
ENDBRANCH   1  21
TORSDOF 5
ENDMDL
MODEL 3
REMARK VINA RESULT:      -8.2      1.880      2.412
REMARK  Name = 
REMARK  9 active torsions:
REMARK  status: ('A' for Active; 'I' for Inactive)
REMARK    1  A    between atoms: C_1  and  O_2
REMARK    2  A    between atoms: O_2  and  C_3
REMARK    3  A    between atoms: C_6  and  C_7
REMARK    4  A    between atoms: C_8  and  C_9
REMARK    5  A    between atoms: N_11  and  C_12
REMARK    6  A    between atoms: N_21  and  C_22
REMARK    7  A    between atoms: C_26  and  C_27
REMARK    8  A    between atoms: C_31  and  O_32
REMARK    9  A    between atoms: O_32  and  C_33
REMARK                            x       y       z     vdW  Elec       q    Type
REMARK                         _______ _______ _______ _____ _____    ______ ____
ROOT
ATOM      1  C   UNL     1      -0.354  10.637  18.728  0.00  0.00    +0.000 A 
ATOM      2  C   UNL     1      -1.502  10.833  17.955  0.00  0.00    +0.000 A 
ATOM      3  C   UNL     1      -2.593  11.546  18.449  0.00  0.00    +0.000 A 
ATOM      4  C   UNL     1      -2.596  12.050  19.730  0.00  0.00    +0.000 A 
ATOM      5  N   UNL     1      -3.623  12.831  20.090  0.00  0.00    +0.000 NA
ATOM      6  C   UNL     1      -3.667  13.293  21.355  0.00  0.00    +0.000 A 
ATOM      7  N   UNL     1      -4.094  14.563  21.562  0.00  0.00    +0.000 N 
ATOM      8  C   UNL     1      -4.362  15.040  22.920  0.00  0.00    +0.000 C 
ATOM      9  C   UNL     1      -5.327  16.248  22.822  0.00  0.00    +0.000 C 
ATOM     10  N   UNL     1      -5.020  17.224  21.761  0.00  0.00    +0.000 NA
ATOM     11  C   UNL     1      -6.008  18.272  21.609  0.00  0.00    +0.000 C 
ATOM     12  C   UNL     1      -4.480  16.701  20.497  0.00  0.00    +0.000 C 
ATOM     13  C   UNL     1      -3.436  15.600  20.739  0.00  0.00    +0.000 C 
ATOM     14  C   UNL     1      -2.957  12.603  22.297  0.00  0.00    +0.000 A 
ATOM     15  C   UNL     1      -1.652  12.400  21.881  0.00  0.00    +0.000 A 
ATOM     16  C   UNL     1      -0.654  13.340  22.512  0.00  0.00    +0.000 C 
ATOM     17  C   UNL     1      -1.488  11.852  20.571  0.00  0.00    +0.000 A 
ATOM     18  C   UNL     1      -0.342  11.172  20.036  0.00  0.00    +0.000 A 
ENDROOT
BRANCH   1  21
ATOM     19  C   UNL     1       1.454   8.917  18.893  0.00  0.00    +0.000 C 
ATOM     20  O   UNL     1       1.239   8.505  20.019  0.00  0.00    +0.000 OA
ATOM     21  N   UNL     1       0.787   9.943  18.239  0.00  0.00    +0.000 N 
ATOM     22  H   UNL     1       1.104  10.215  17.318  0.00  0.00    +0.000 HD
BRANCH  19  24
ATOM     23  C   UNL     1       3.084   7.123  18.475  0.00  0.00    +0.000 C 
ATOM     24  C   UNL     1       2.544   8.288  18.065  0.00  0.00    +0.000 C 
BRANCH  23  28
ATOM     25  C   UNL     1       5.918   4.880  16.133  0.00  0.00    +0.000 A 
ATOM     26  C   UNL     1       4.658   4.356  16.451  0.00  0.00    +0.000 A 
ATOM     27  C   UNL     1       3.750   5.082  17.236  0.00  0.00    +0.000 A 
ATOM     28  C   UNL     1       4.100   6.330  17.763  0.00  0.00    +0.000 A 
ATOM     29  C   UNL     1       5.376   6.821  17.492  0.00  0.00    +0.000 A 
ATOM     30  C   UNL     1       6.297   6.110  16.694  0.00  0.00    +0.000 A 
BRANCH  25  32
ATOM     31  C   UNL     1       6.475   4.153  13.938  0.00  0.00    +0.000 C 
ATOM     32  O   UNL     1       6.794   4.206  15.327  0.00  0.00    +0.000 OA
ENDBRANCH  25  32
BRANCH  30  33
ATOM     33  O   UNL     1       7.482   6.787  16.561  0.00  0.00    +0.000 OA
ATOM     34  C   UNL     1       7.792   7.836  17.464  0.00  0.00    +0.000 C 
ENDBRANCH  30  33
ENDBRANCH  23  28
ENDBRANCH  19  24
ENDBRANCH   1  21
TORSDOF 5
ENDMDL
MODEL 4
REMARK VINA RESULT:      -8.1      1.265      1.286
REMARK  Name = 
REMARK  9 active torsions:
REMARK  status: ('A' for Active; 'I' for Inactive)
REMARK    1  A    between atoms: C_1  and  O_2
REMARK    2  A    between atoms: O_2  and  C_3
REMARK    3  A    between atoms: C_6  and  C_7
REMARK    4  A    between atoms: C_8  and  C_9
REMARK    5  A    between atoms: N_11  and  C_12
REMARK    6  A    between atoms: N_21  and  C_22
REMARK    7  A    between atoms: C_26  and  C_27
REMARK    8  A    between atoms: C_31  and  O_32
REMARK    9  A    between atoms: O_32  and  C_33
REMARK                            x       y       z     vdW  Elec       q    Type
REMARK                         _______ _______ _______ _____ _____    ______ ____
ROOT
ATOM      1  C   UNL     1       0.536   9.929  21.222  0.00  0.00    +0.000 A 
ATOM      2  C   UNL     1      -0.005   9.416  22.404  0.00  0.00    +0.000 A 
ATOM      3  C   UNL     1      -0.889  10.165  23.180  0.00  0.00    +0.000 A 
ATOM      4  C   UNL     1      -1.230  11.452  22.831  0.00  0.00    +0.000 A 
ATOM      5  N   UNL     1      -2.180  12.062  23.552  0.00  0.00    +0.000 NA
ATOM      6  C   UNL     1      -2.491  13.340  23.256  0.00  0.00    +0.000 A 
ATOM      7  N   UNL     1      -3.794  13.714  23.312  0.00  0.00    +0.000 N 
ATOM      8  C   UNL     1      -4.160  15.127  23.209  0.00  0.00    +0.000 C 
ATOM      9  C   UNL     1      -5.561  15.306  23.846  0.00  0.00    +0.000 C 
ATOM     10  N   UNL     1      -6.555  14.275  23.499  0.00  0.00    +0.000 NA
ATOM     11  C   UNL     1      -7.812  14.395  24.208  0.00  0.00    +0.000 C 
ATOM     12  C   UNL     1      -6.070  12.896  23.338  0.00  0.00    +0.000 C 
ATOM     13  C   UNL     1      -4.739  12.850  22.573  0.00  0.00    +0.000 C 
ATOM     14  C   UNL     1      -1.553  14.072  22.584  0.00  0.00    +0.000 A 
ATOM     15  C   UNL     1      -1.105  13.391  21.465  0.00  0.00    +0.000 A 
ATOM     16  C   UNL     1      -1.711  13.873  20.170  0.00  0.00    +0.000 C 
ATOM     17  C   UNL     1      -0.687  12.040  21.676  0.00  0.00    +0.000 A 
ATOM     18  C   UNL     1       0.172  11.242  20.848  0.00  0.00    +0.000 A 
ENDROOT
BRANCH   1  21
ATOM     19  C   UNL     1       1.588   7.800  20.436  0.00  0.00    +0.000 C 
ATOM     20  O   UNL     1       1.100   7.025  21.239  0.00  0.00    +0.000 OA
ATOM     21  N   UNL     1       1.413   9.176  20.394  0.00  0.00    +0.000 N 
ATOM     22  H   UNL     1       1.921   9.706  19.698  0.00  0.00    +0.000 HD
BRANCH  19  24
ATOM     23  C   UNL     1       3.301   6.239  19.614  0.00  0.00    +0.000 C 
ATOM     24  C   UNL     1       2.485   7.277  19.345  0.00  0.00    +0.000 C 
BRANCH  23  28
ATOM     25  C   UNL     1       5.923   4.492  16.678  0.00  0.00    +0.000 A 
ATOM     26  C   UNL     1       4.560   4.686  16.415  0.00  0.00    +0.000 A 
ATOM     27  C   UNL     1       3.707   5.231  17.386  0.00  0.00    +0.000 A 
ATOM     28  C   UNL     1       4.188   5.551  18.661  0.00  0.00    +0.000 A 
ATOM     29  C   UNL     1       5.532   5.304  18.936  0.00  0.00    +0.000 A 
ATOM     30  C   UNL     1       6.407   4.767  17.967  0.00  0.00    +0.000 A 
BRANCH  25  32
ATOM     31  C   UNL     1       6.238   3.825  14.417  0.00  0.00    +0.000 C 
ATOM     32  O   UNL     1       6.777   4.009  15.725  0.00  0.00    +0.000 OA
ENDBRANCH  25  32
BRANCH  30  33
ATOM     33  O   UNL     1       7.677   4.615  18.460  0.00  0.00    +0.000 OA
ATOM     34  C   UNL     1       8.141   5.488  19.477  0.00  0.00    +0.000 C 
ENDBRANCH  30  33
ENDBRANCH  23  28
ENDBRANCH  19  24
ENDBRANCH   1  21
TORSDOF 5
ENDMDL
MODEL 5
REMARK VINA RESULT:      -8.1      1.262      1.408
REMARK  Name = 
REMARK  9 active torsions:
REMARK  status: ('A' for Active; 'I' for Inactive)
REMARK    1  A    between atoms: C_1  and  O_2
REMARK    2  A    between atoms: O_2  and  C_3
REMARK    3  A    between atoms: C_6  and  C_7
REMARK    4  A    between atoms: C_8  and  C_9
REMARK    5  A    between atoms: N_11  and  C_12
REMARK    6  A    between atoms: N_21  and  C_22
REMARK    7  A    between atoms: C_26  and  C_27
REMARK    8  A    between atoms: C_31  and  O_32
REMARK    9  A    between atoms: O_32  and  C_33
REMARK                            x       y       z     vdW  Elec       q    Type
REMARK                         _______ _______ _______ _____ _____    ______ ____
ROOT
ATOM      1  C   UNL     1       0.564  10.719  20.888  0.00  0.00    +0.000 A 
ATOM      2  C   UNL     1      -0.325  10.226  21.847  0.00  0.00    +0.000 A 
ATOM      3  C   UNL     1      -1.061  11.086  22.662  0.00  0.00    +0.000 A 
ATOM      4  C   UNL     1      -0.910  12.452  22.577  0.00  0.00    +0.000 A 
ATOM      5  N   UNL     1      -1.740  13.217  23.299  0.00  0.00    +0.000 NA
ATOM      6  C   UNL     1      -1.574  14.554  23.267  0.00  0.00    +0.000 A 
ATOM      7  N   UNL     1      -2.679  15.339  23.250  0.00  0.00    +0.000 N 
ATOM      8  C   UNL     1      -2.559  16.787  23.429  0.00  0.00    +0.000 C 
ATOM      9  C   UNL     1      -3.928  17.324  23.917  0.00  0.00    +0.000 C 
ATOM     10  N   UNL     1      -5.110  16.778  23.226  0.00  0.00    +0.000 NA
ATOM     11  C   UNL     1      -6.377  17.198  23.787  0.00  0.00    +0.000 C 
ATOM     12  C   UNL     1      -5.059  15.366  22.814  0.00  0.00    +0.000 C 
ATOM     13  C   UNL     1      -3.689  14.997  22.225  0.00  0.00    +0.000 C 
ATOM     14  C   UNL     1      -0.345  15.022  22.898  0.00  0.00    +0.000 A 
ATOM     15  C   UNL     1       0.073  14.435  21.716  0.00  0.00    +0.000 A 
ATOM     16  C   UNL     1      -0.095  15.315  20.501  0.00  0.00    +0.000 C 
ATOM     17  C   UNL     1      -0.001  13.008  21.661  0.00  0.00    +0.000 A 
ATOM     18  C   UNL     1       0.706  12.120  20.782  0.00  0.00    +0.000 A 
ENDROOT
BRANCH   1  21
ATOM     19  C   UNL     1       0.969   9.557  18.710  0.00  0.00    +0.000 C 
ATOM     20  O   UNL     1      -0.045   9.880  18.118  0.00  0.00    +0.000 OA
ATOM     21  N   UNL     1       1.302   9.867  20.021  0.00  0.00    +0.000 N 
ATOM     22  H   UNL     1       2.159   9.490  20.403  0.00  0.00    +0.000 HD
BRANCH  19  24
ATOM     23  C   UNL     1       2.416   7.574  18.559  0.00  0.00    +0.000 C 
ATOM     24  C   UNL     1       2.016   8.736  18.005  0.00  0.00    +0.000 C 
BRANCH  23  28
ATOM     25  C   UNL     1       5.041   4.768  16.615  0.00  0.00    +0.000 A 
ATOM     26  C   UNL     1       3.815   4.363  17.159  0.00  0.00    +0.000 A 
ATOM     27  C   UNL     1       2.977   5.278  17.814  0.00  0.00    +0.000 A 
ATOM     28  C   UNL     1       3.368   6.611  17.983  0.00  0.00    +0.000 A 
ATOM     29  C   UNL     1       4.614   6.995  17.491  0.00  0.00    +0.000 A 
ATOM     30  C   UNL     1       5.465   6.091  16.819  0.00  0.00    +0.000 A 
BRANCH  25  32
ATOM     31  C   UNL     1       5.925   4.079  14.518  0.00  0.00    +0.000 C 
ATOM     32  O   UNL     1       5.846   3.899  15.931  0.00  0.00    +0.000 OA
ENDBRANCH  25  32
BRANCH  30  33
ATOM     33  O   UNL     1       6.631   6.692  16.422  0.00  0.00    +0.000 OA
ATOM     34  C   UNL     1       7.536   7.175  17.402  0.00  0.00    +0.000 C 
ENDBRANCH  30  33
ENDBRANCH  23  28
ENDBRANCH  19  24
ENDBRANCH   1  21
TORSDOF 5
ENDMDL
MODEL 6
REMARK VINA RESULT:      -8.1      1.936      3.301
REMARK  Name = 
REMARK  9 active torsions:
REMARK  status: ('A' for Active; 'I' for Inactive)
REMARK    1  A    between atoms: C_1  and  O_2
REMARK    2  A    between atoms: O_2  and  C_3
REMARK    3  A    between atoms: C_6  and  C_7
REMARK    4  A    between atoms: C_8  and  C_9
REMARK    5  A    between atoms: N_11  and  C_12
REMARK    6  A    between atoms: N_21  and  C_22
REMARK    7  A    between atoms: C_26  and  C_27
REMARK    8  A    between atoms: C_31  and  O_32
REMARK    9  A    between atoms: O_32  and  C_33
REMARK                            x       y       z     vdW  Elec       q    Type
REMARK                         _______ _______ _______ _____ _____    ______ ____
ROOT
ATOM      1  C   UNL     1       0.261  11.704  18.864  0.00  0.00    +0.000 A 
ATOM      2  C   UNL     1       0.236  13.024  18.405  0.00  0.00    +0.000 A 
ATOM      3  C   UNL     1      -0.504  14.005  19.062  0.00  0.00    +0.000 A 
ATOM      4  C   UNL     1      -1.270  13.702  20.165  0.00  0.00    +0.000 A 
ATOM      5  N   UNL     1      -1.851  14.717  20.819  0.00  0.00    +0.000 NA
ATOM      6  C   UNL     1      -2.645  14.434  21.871  0.00  0.00    +0.000 A 
ATOM      7  N   UNL     1      -2.594  15.250  22.953  0.00  0.00    +0.000 N 
ATOM      8  C   UNL     1      -3.579  15.115  24.027  0.00  0.00    +0.000 C 
ATOM      9  C   UNL     1      -3.636  16.457  24.797  0.00  0.00    +0.000 C 
ATOM     10  N   UNL     1      -2.332  17.081  25.088  0.00  0.00    +0.000 NA
ATOM     11  C   UNL     1      -2.419  18.394  25.693  0.00  0.00    +0.000 C 
ATOM     12  C   UNL     1      -1.275  16.940  24.074  0.00  0.00    +0.000 C 
ATOM     13  C   UNL     1      -1.241  15.523  23.484  0.00  0.00    +0.000 C 
ATOM     14  C   UNL     1      -3.173  13.176  21.935  0.00  0.00    +0.000 A 
ATOM     15  C   UNL     1      -2.186  12.218  21.777  0.00  0.00    +0.000 A 
ATOM     16  C   UNL     1      -1.741  11.577  23.070  0.00  0.00    +0.000 C 
ATOM     17  C   UNL     1      -1.321  12.384  20.652  0.00  0.00    +0.000 A 
ATOM     18  C   UNL     1      -0.506  11.392  20.009  0.00  0.00    +0.000 A 
ENDROOT
BRANCH   1  21
ATOM     19  C   UNL     1       1.386   9.472  18.796  0.00  0.00    +0.000 C 
ATOM     20  O   UNL     1       1.181   9.107  19.940  0.00  0.00    +0.000 OA
ATOM     21  N   UNL     1       1.033  10.690  18.233  0.00  0.00    +0.000 N 
ATOM     22  H   UNL     1       1.311  10.880  17.280  0.00  0.00    +0.000 HD
BRANCH  19  24
ATOM     23  C   UNL     1       2.841   7.545  18.329  0.00  0.00    +0.000 C 
ATOM     24  C   UNL     1       2.093   8.552  17.836  0.00  0.00    +0.000 C 
BRANCH  23  28
ATOM     25  C   UNL     1       5.129   4.561  16.228  0.00  0.00    +0.000 A 
ATOM     26  C   UNL     1       5.287   5.927  15.956  0.00  0.00    +0.000 A 
ATOM     27  C   UNL     1       4.520   6.892  16.626  0.00  0.00    +0.000 A 
ATOM     28  C   UNL     1       3.541   6.510  17.550  0.00  0.00    +0.000 A 
ATOM     29  C   UNL     1       3.348   5.147  17.775  0.00  0.00    +0.000 A 
ATOM     30  C   UNL     1       4.119   4.164  17.120  0.00  0.00    +0.000 A 
BRANCH  25  32
ATOM     31  C   UNL     1       6.372   3.915  14.306  0.00  0.00    +0.000 C 
ATOM     32  O   UNL     1       5.904   3.613  15.620  0.00  0.00    +0.000 OA
ENDBRANCH  25  32
BRANCH  30  33
ATOM     33  O   UNL     1       3.756   2.898  17.500  0.00  0.00    +0.000 OA
ATOM     34  C   UNL     1       3.829   2.532  18.868  0.00  0.00    +0.000 C 
ENDBRANCH  30  33
ENDBRANCH  23  28
ENDBRANCH  19  24
ENDBRANCH   1  21
TORSDOF 5
ENDMDL
MODEL 7
REMARK VINA RESULT:      -7.9      1.405      2.167
REMARK  Name = 
REMARK  9 active torsions:
REMARK  status: ('A' for Active; 'I' for Inactive)
REMARK    1  A    between atoms: C_1  and  O_2
REMARK    2  A    between atoms: O_2  and  C_3
REMARK    3  A    between atoms: C_6  and  C_7
REMARK    4  A    between atoms: C_8  and  C_9
REMARK    5  A    between atoms: N_11  and  C_12
REMARK    6  A    between atoms: N_21  and  C_22
REMARK    7  A    between atoms: C_26  and  C_27
REMARK    8  A    between atoms: C_31  and  O_32
REMARK    9  A    between atoms: O_32  and  C_33
REMARK                            x       y       z     vdW  Elec       q    Type
REMARK                         _______ _______ _______ _____ _____    ______ ____
ROOT
ATOM      1  C   UNL     1       0.534  10.663  20.820  0.00  0.00    +0.000 A 
ATOM      2  C   UNL     1      -0.322  10.146  21.796  0.00  0.00    +0.000 A 
ATOM      3  C   UNL     1      -1.023  10.985  22.661  0.00  0.00    +0.000 A 
ATOM      4  C   UNL     1      -0.869  12.352  22.610  0.00  0.00    +0.000 A 
ATOM      5  N   UNL     1      -1.669  13.099  23.383  0.00  0.00    +0.000 NA
ATOM      6  C   UNL     1      -1.498  14.436  23.384  0.00  0.00    +0.000 A 
ATOM      7  N   UNL     1      -2.600  15.225  23.429  0.00  0.00    +0.000 N 
ATOM      8  C   UNL     1      -2.467  16.667  23.645  0.00  0.00    +0.000 C 
ATOM      9  C   UNL     1      -3.814  17.194  24.197  0.00  0.00    +0.000 C 
ATOM     10  N   UNL     1      -5.023  16.673  23.535  0.00  0.00    +0.000 NA
ATOM     11  C   UNL     1      -6.267  17.081  24.153  0.00  0.00    +0.000 C 
ATOM     12  C   UNL     1      -4.994  15.273  23.080  0.00  0.00    +0.000 C 
ATOM     13  C   UNL     1      -3.648  14.917  22.432  0.00  0.00    +0.000 C 
ATOM     14  C   UNL     1      -0.281  14.910  22.984  0.00  0.00    +0.000 A 
ATOM     15  C   UNL     1       0.091  14.356  21.771  0.00  0.00    +0.000 A 
ATOM     16  C   UNL     1      -0.117  15.272  20.589  0.00  0.00    +0.000 C 
ATOM     17  C   UNL     1       0.008  12.932  21.678  0.00  0.00    +0.000 A 
ATOM     18  C   UNL     1       0.680  12.067  20.749  0.00  0.00    +0.000 A 
ENDROOT
BRANCH   1  21
ATOM     19  C   UNL     1       0.899   9.627  18.573  0.00  0.00    +0.000 C 
ATOM     20  O   UNL     1      -0.093  10.038  17.997  0.00  0.00    +0.000 OA
ATOM     21  N   UNL     1       1.237   9.834  19.903  0.00  0.00    +0.000 N 
ATOM     22  H   UNL     1       2.071   9.391  20.263  0.00  0.00    +0.000 HD
BRANCH  19  24
ATOM     23  C   UNL     1       2.341   7.646  18.361  0.00  0.00    +0.000 C 
ATOM     24  C   UNL     1       1.910   8.803  17.820  0.00  0.00    +0.000 C 
BRANCH  23  28
ATOM     25  C   UNL     1       5.226   4.859  16.794  0.00  0.00    +0.000 A 
ATOM     26  C   UNL     1       5.397   6.243  16.653  0.00  0.00    +0.000 A 
ATOM     27  C   UNL     1       4.440   7.144  17.143  0.00  0.00    +0.000 A 
ATOM     28  C   UNL     1       3.265   6.680  17.744  0.00  0.00    +0.000 A 
ATOM     29  C   UNL     1       3.073   5.302  17.831  0.00  0.00    +0.000 A 
ATOM     30  C   UNL     1       4.031   4.382  17.355  0.00  0.00    +0.000 A 
BRANCH  25  32
ATOM     31  C   UNL     1       6.276   3.772  14.958  0.00  0.00    +0.000 C 
ATOM     32  O   UNL     1       6.174   3.970  16.367  0.00  0.00    +0.000 OA
ENDBRANCH  25  32
BRANCH  30  33
ATOM     33  O   UNL     1       3.630   3.085  17.551  0.00  0.00    +0.000 OA
ATOM     34  C   UNL     1       2.942   2.739  18.742  0.00  0.00    +0.000 C 
ENDBRANCH  30  33
ENDBRANCH  23  28
ENDBRANCH  19  24
ENDBRANCH   1  21
TORSDOF 5
ENDMDL
MODEL 8
REMARK VINA RESULT:      -7.7      2.094      2.755
REMARK  Name = 
REMARK  9 active torsions:
REMARK  status: ('A' for Active; 'I' for Inactive)
REMARK    1  A    between atoms: C_1  and  O_2
REMARK    2  A    between atoms: O_2  and  C_3
REMARK    3  A    between atoms: C_6  and  C_7
REMARK    4  A    between atoms: C_8  and  C_9
REMARK    5  A    between atoms: N_11  and  C_12
REMARK    6  A    between atoms: N_21  and  C_22
REMARK    7  A    between atoms: C_26  and  C_27
REMARK    8  A    between atoms: C_31  and  O_32
REMARK    9  A    between atoms: O_32  and  C_33
REMARK                            x       y       z     vdW  Elec       q    Type
REMARK                         _______ _______ _______ _____ _____    ______ ____
ROOT
ATOM      1  C   UNL     1      -0.445  10.920  18.516  0.00  0.00    +0.000 A 
ATOM      2  C   UNL     1      -0.132  12.028  19.308  0.00  0.00    +0.000 A 
ATOM      3  C   UNL     1      -1.130  12.859  19.816  0.00  0.00    +0.000 A 
ATOM      4  C   UNL     1      -2.457  12.642  19.525  0.00  0.00    +0.000 A 
ATOM      5  N   UNL     1      -3.366  13.401  20.151  0.00  0.00    +0.000 NA
ATOM      6  C   UNL     1      -4.667  13.236  19.841  0.00  0.00    +0.000 A 
ATOM      7  N   UNL     1      -5.580  13.302  20.841  0.00  0.00    +0.000 N 
ATOM      8  C   UNL     1      -7.010  13.341  20.533  0.00  0.00    +0.000 C 
ATOM      9  C   UNL     1      -7.744  13.962  21.747  0.00  0.00    +0.000 C 
ATOM     10  N   UNL     1      -7.304  13.485  23.070  0.00  0.00    +0.000 NA
ATOM     11  C   UNL     1      -7.915  14.175  24.188  0.00  0.00    +0.000 C 
ATOM     12  C   UNL     1      -5.873  13.189  23.240  0.00  0.00    +0.000 C 
ATOM     13  C   UNL     1      -5.298  12.455  22.019  0.00  0.00    +0.000 C 
ATOM     14  C   UNL     1      -4.953  12.667  18.632  0.00  0.00    +0.000 A 
ATOM     15  C   UNL     1      -4.241  11.493  18.458  0.00  0.00    +0.000 A 
ATOM     16  C   UNL     1      -5.052  10.243  18.697  0.00  0.00    +0.000 C 
ATOM     17  C   UNL     1      -2.834  11.568  18.700  0.00  0.00    +0.000 A 
ATOM     18  C   UNL     1      -1.808  10.679  18.232  0.00  0.00    +0.000 A 
ENDROOT
BRANCH   1  21
ATOM     19  C   UNL     1       1.273   9.119  18.758  0.00  0.00    +0.000 C 
ATOM     20  O   UNL     1       1.251   8.981  19.968  0.00  0.00    +0.000 OA
ATOM     21  N   UNL     1       0.548  10.037  18.011  0.00  0.00    +0.000 N 
ATOM     22  H   UNL     1       0.701  10.074  17.012  0.00  0.00    +0.000 HD
BRANCH  19  24
ATOM     23  C   UNL     1       2.943   7.327  18.539  0.00  0.00    +0.000 C 
ATOM     24  C   UNL     1       2.156   8.231  17.922  0.00  0.00    +0.000 C 
BRANCH  23  28
ATOM     25  C   UNL     1       5.383   4.520  16.368  0.00  0.00    +0.000 A 
ATOM     26  C   UNL     1       4.021   4.279  16.596  0.00  0.00    +0.000 A 
ATOM     27  C   UNL     1       3.239   5.185  17.326  0.00  0.00    +0.000 A 
ATOM     28  C   UNL     1       3.811   6.332  17.889  0.00  0.00    +0.000 A 
ATOM     29  C   UNL     1       5.178   6.538  17.707  0.00  0.00    +0.000 A 
ATOM     30  C   UNL     1       5.978   5.643  16.965  0.00  0.00    +0.000 A 
BRANCH  25  32
ATOM     31  C   UNL     1       6.195   3.927  14.212  0.00  0.00    +0.000 C 
ATOM     32  O   UNL     1       6.147   3.671  15.615  0.00  0.00    +0.000 OA
ENDBRANCH  25  32
BRANCH  30  33
ATOM     33  O   UNL     1       7.286   6.051  16.918  0.00  0.00    +0.000 OA
ATOM     34  C   UNL     1       7.852   6.712  18.038  0.00  0.00    +0.000 C 
ENDBRANCH  30  33
ENDBRANCH  23  28
ENDBRANCH  19  24
ENDBRANCH   1  21
TORSDOF 5
ENDMDL
MODEL 9
REMARK VINA RESULT:      -7.7      1.730      2.757
REMARK  Name = 
REMARK  9 active torsions:
REMARK  status: ('A' for Active; 'I' for Inactive)
REMARK    1  A    between atoms: C_1  and  O_2
REMARK    2  A    between atoms: O_2  and  C_3
REMARK    3  A    between atoms: C_6  and  C_7
REMARK    4  A    between atoms: C_8  and  C_9
REMARK    5  A    between atoms: N_11  and  C_12
REMARK    6  A    between atoms: N_21  and  C_22
REMARK    7  A    between atoms: C_26  and  C_27
REMARK    8  A    between atoms: C_31  and  O_32
REMARK    9  A    between atoms: O_32  and  C_33
REMARK                            x       y       z     vdW  Elec       q    Type
REMARK                         _______ _______ _______ _____ _____    ______ ____
ROOT
ATOM      1  C   UNL     1       0.247  11.973  19.315  0.00  0.00    +0.000 A 
ATOM      2  C   UNL     1       0.285  13.291  18.854  0.00  0.00    +0.000 A 
ATOM      3  C   UNL     1      -0.571  14.263  19.371  0.00  0.00    +0.000 A 
ATOM      4  C   UNL     1      -1.511  13.950  20.327  0.00  0.00    +0.000 A 
ATOM      5  N   UNL     1      -2.210  14.957  20.868  0.00  0.00    +0.000 NA
ATOM      6  C   UNL     1      -3.169  14.665  21.768  0.00  0.00    +0.000 A 
ATOM      7  N   UNL     1      -3.316  15.482  22.840  0.00  0.00    +0.000 N 
ATOM      8  C   UNL     1      -4.469  15.334  23.729  0.00  0.00    +0.000 C 
ATOM      9  C   UNL     1      -4.676  16.677  24.473  0.00  0.00    +0.000 C 
ATOM     10  N   UNL     1      -3.450  17.318  24.982  0.00  0.00    +0.000 NA
ATOM     11  C   UNL     1      -3.658  18.631  25.558  0.00  0.00    +0.000 C 
ATOM     12  C   UNL     1      -2.233  17.192  24.166  0.00  0.00    +0.000 C 
ATOM     13  C   UNL     1      -2.078  15.774  23.595  0.00  0.00    +0.000 C 
ATOM     14  C   UNL     1      -3.683  13.399  21.744  0.00  0.00    +0.000 A 
ATOM     15  C   UNL     1      -2.671  12.455  21.762  0.00  0.00    +0.000 A 
ATOM     16  C   UNL     1      -2.447  11.822  23.114  0.00  0.00    +0.000 C 
ATOM     17  C   UNL     1      -1.627  12.632  20.802  0.00  0.00    +0.000 A 
ATOM     18  C   UNL     1      -0.701  11.651  20.312  0.00  0.00    +0.000 A 
ENDROOT
BRANCH   1  21
ATOM     19  C   UNL     1       0.763   9.855  18.089  0.00  0.00    +0.000 C 
ATOM     20  O   UNL     1      -0.369   9.501  17.811  0.00  0.00    +0.000 OA
ATOM     21  N   UNL     1       1.130  10.969  18.830  0.00  0.00    +0.000 N 
ATOM     22  H   UNL     1       2.111  11.116  19.026  0.00  0.00    +0.000 HD
BRANCH  19  24
ATOM     23  C   UNL     1       2.307   7.953  18.304  0.00  0.00    +0.000 C 
ATOM     24  C   UNL     1       1.937   9.044  17.605  0.00  0.00    +0.000 C 
BRANCH  23  28
ATOM     25  C   UNL     1       5.299   5.149  16.988  0.00  0.00    +0.000 A 
ATOM     26  C   UNL     1       4.050   4.717  17.454  0.00  0.00    +0.000 A 
ATOM     27  C   UNL     1       3.090   5.635  17.906  0.00  0.00    +0.000 A 
ATOM     28  C   UNL     1       3.375   7.004  17.948  0.00  0.00    +0.000 A 
ATOM     29  C   UNL     1       4.639   7.423  17.536  0.00  0.00    +0.000 A 
ATOM     30  C   UNL     1       5.613   6.516  17.067  0.00  0.00    +0.000 A 
BRANCH  25  32
ATOM     31  C   UNL     1       5.978   3.737  15.198  0.00  0.00    +0.000 C 
ATOM     32  O   UNL     1       6.226   4.271  16.498  0.00  0.00    +0.000 OA
ENDBRANCH  25  32
BRANCH  30  33
ATOM     33  O   UNL     1       6.774   7.153  16.716  0.00  0.00    +0.000 OA
ATOM     34  C   UNL     1       7.672   7.578  17.729  0.00  0.00    +0.000 C 
ENDBRANCH  30  33
ENDBRANCH  23  28
ENDBRANCH  19  24
ENDBRANCH   1  21
TORSDOF 5
ENDMDL
