MODEL 1
REMARK VINA RESULT:      -7.5      0.000      0.000
REMARK  Name = 
REMARK  3 active torsions:
REMARK  status: ('A' for Active; 'I' for Inactive)
REMARK    1  A    between atoms: C_2  and  O_3
REMARK    2  A    between atoms: C_2  and  C_4
REMARK    3  A    between atoms: C_15  and  O_16
REMARK                            x       y       z     vdW  Elec       q    Type
REMARK                         _______ _______ _______ _____ _____    ______ ____
ROOT
ATOM      1  C   UNL     1       6.508   4.259  15.830  0.00  0.00    +0.000 C 
ATOM      2  C   UNL     1       5.995   4.908  16.899  0.00  0.00    +0.000 C 
ATOM      3  C   UNL     1       5.813   6.401  17.038  0.00  0.00    +0.000 C 
ATOM      4  C   UNL     1       4.341   6.797  16.926  0.00  0.00    +0.000 C 
ATOM      5  C   UNL     1       3.533   6.410  18.166  0.00  0.00    +0.000 C 
ATOM      6  C   UNL     1       3.133   4.953  18.197  0.00  0.00    +0.000 A 
ATOM      7  C   UNL     1       1.757   4.651  18.209  0.00  0.00    +0.000 A 
ATOM      8  C   UNL     1       1.305   3.332  18.223  0.00  0.00    +0.000 A 
ATOM      9  C   UNL     1       2.222   2.291  18.253  0.00  0.00    +0.000 A 
ATOM     10  C   UNL     1       3.588   2.569  18.252  0.00  0.00    +0.000 A 
ATOM     11  C   UNL     1       4.069   3.894  18.205  0.00  0.00    +0.000 A 
ATOM     12  C   UNL     1       5.576   4.099  18.120  0.00  0.00    +0.000 C 
ENDROOT
BRANCH   1  14
ATOM     13  O   UNL     1       7.885   5.562  14.444  0.00  0.00    +0.000 OA
ATOM     14  C   UNL     1       7.003   4.719  14.524  0.00  0.00    +0.000 C 
BRANCH  14  15
ATOM     15  O   UNL     1       6.496   4.107  13.437  0.00  0.00    +0.000 OA
ATOM     16  H   UNL     1       5.816   3.448  13.647  0.00  0.00    +0.000 HD
ENDBRANCH  14  15
ENDBRANCH   1  14
BRANCH  12  17
ATOM     17  O   UNL     1       6.114   4.709  19.288  0.00  0.00    +0.000 OA
ATOM     18  H   UNL     1       7.067   4.529  19.306  0.00  0.00    +0.000 HD
ENDBRANCH  12  17
TORSDOF 3
ENDMDL
MODEL 2
REMARK VINA RESULT:      -7.3      2.278      3.384
REMARK  Name = 
REMARK  3 active torsions:
REMARK  status: ('A' for Active; 'I' for Inactive)
REMARK    1  A    between atoms: C_2  and  O_3
REMARK    2  A    between atoms: C_2  and  C_4
REMARK    3  A    between atoms: C_15  and  O_16
REMARK                            x       y       z     vdW  Elec       q    Type
REMARK                         _______ _______ _______ _____ _____    ______ ____
ROOT
ATOM      1  C   UNL     1       5.978   5.679  19.157  0.00  0.00    +0.000 C 
ATOM      2  C   UNL     1       4.834   5.564  18.446  0.00  0.00    +0.000 C 
ATOM      3  C   UNL     1       4.717   5.134  17.003  0.00  0.00    +0.000 C 
ATOM      4  C   UNL     1       4.152   3.718  16.886  0.00  0.00    +0.000 C 
ATOM      5  C   UNL     1       2.657   3.655  17.205  0.00  0.00    +0.000 C 
ATOM      6  C   UNL     1       2.355   3.647  18.687  0.00  0.00    +0.000 A 
ATOM      7  C   UNL     1       1.684   2.526  19.213  0.00  0.00    +0.000 A 
ATOM      8  C   UNL     1       1.380   2.436  20.571  0.00  0.00    +0.000 A 
ATOM      9  C   UNL     1       1.719   3.477  21.422  0.00  0.00    +0.000 A 
ATOM     10  C   UNL     1       2.375   4.600  20.919  0.00  0.00    +0.000 A 
ATOM     11  C   UNL     1       2.721   4.700  19.555  0.00  0.00    +0.000 A 
ATOM     12  C   UNL     1       3.513   5.924  19.112  0.00  0.00    +0.000 C 
ENDROOT
BRANCH   1  14
ATOM     13  O   UNL     1       7.726   4.422  18.221  0.00  0.00    +0.000 OA
ATOM     14  C   UNL     1       7.389   5.426  18.830  0.00  0.00    +0.000 C 
BRANCH  14  15
ATOM     15  O   UNL     1       8.267   6.391  19.163  0.00  0.00    +0.000 OA
ATOM     16  H   UNL     1       8.144   7.214  18.664  0.00  0.00    +0.000 HD
ENDBRANCH  14  15
ENDBRANCH   1  14
BRANCH  12  17
ATOM     17  O   UNL     1       2.770   6.772  18.245  0.00  0.00    +0.000 OA
ATOM     18  H   UNL     1       1.922   6.340  18.059  0.00  0.00    +0.000 HD
ENDBRANCH  12  17
TORSDOF 3
ENDMDL
MODEL 3
REMARK VINA RESULT:      -7.3      0.683      1.051
REMARK  Name = 
REMARK  3 active torsions:
REMARK  status: ('A' for Active; 'I' for Inactive)
REMARK    1  A    between atoms: C_2  and  O_3
REMARK    2  A    between atoms: C_2  and  C_4
REMARK    3  A    between atoms: C_15  and  O_16
REMARK                            x       y       z     vdW  Elec       q    Type
REMARK                         _______ _______ _______ _____ _____    ______ ____
ROOT
ATOM      1  C   UNL     1       6.295   3.874  15.075  0.00  0.00    +0.000 C 
ATOM      2  C   UNL     1       6.030   4.554  16.212  0.00  0.00    +0.000 C 
ATOM      3  C   UNL     1       6.116   6.051  16.400  0.00  0.00    +0.000 C 
ATOM      4  C   UNL     1       4.727   6.684  16.482  0.00  0.00    +0.000 C 
ATOM      5  C   UNL     1       4.023   6.386  17.806  0.00  0.00    +0.000 C 
ATOM      6  C   UNL     1       3.394   5.012  17.861  0.00  0.00    +0.000 A 
ATOM      7  C   UNL     1       1.999   4.936  18.041  0.00  0.00    +0.000 A 
ATOM      8  C   UNL     1       1.340   3.709  18.088  0.00  0.00    +0.000 A 
ATOM      9  C   UNL     1       2.069   2.533  17.983  0.00  0.00    +0.000 A 
ATOM     10  C   UNL     1       3.452   2.586  17.815  0.00  0.00    +0.000 A 
ATOM     11  C   UNL     1       4.136   3.817  17.732  0.00  0.00    +0.000 A 
ATOM     12  C   UNL     1       5.635   3.778  17.461  0.00  0.00    +0.000 C 
ENDROOT
BRANCH   1  14
ATOM     13  O   UNL     1       6.240   3.754  12.730  0.00  0.00    +0.000 OA
ATOM     14  C   UNL     1       6.697   4.297  13.726  0.00  0.00    +0.000 C 
BRANCH  14  15
ATOM     15  O   UNL     1       7.523   5.358  13.648  0.00  0.00    +0.000 OA
ATOM     16  H   UNL     1       8.164   5.296  12.922  0.00  0.00    +0.000 HD
ENDBRANCH  14  15
ENDBRANCH   1  14
BRANCH  12  17
ATOM     17  O   UNL     1       6.403   4.247  18.562  0.00  0.00    +0.000 OA
ATOM     18  H   UNL     1       7.260   4.548  18.222  0.00  0.00    +0.000 HD
ENDBRANCH  12  17
TORSDOF 3
ENDMDL
MODEL 4
REMARK VINA RESULT:      -6.9      3.025      5.553
REMARK  Name = 
REMARK  3 active torsions:
REMARK  status: ('A' for Active; 'I' for Inactive)
REMARK    1  A    between atoms: C_2  and  O_3
REMARK    2  A    between atoms: C_2  and  C_4
REMARK    3  A    between atoms: C_15  and  O_16
REMARK                            x       y       z     vdW  Elec       q    Type
REMARK                         _______ _______ _______ _____ _____    ______ ____
ROOT
ATOM      1  C   UNL     1       2.356   2.797  20.064  0.00  0.00    +0.000 C 
ATOM      2  C   UNL     1       2.001   3.883  19.342  0.00  0.00    +0.000 C 
ATOM      3  C   UNL     1       1.391   5.155  19.881  0.00  0.00    +0.000 C 
ATOM      4  C   UNL     1       2.399   6.304  19.877  0.00  0.00    +0.000 C 
ATOM      5  C   UNL     1       2.681   6.832  18.470  0.00  0.00    +0.000 C 
ATOM      6  C   UNL     1       3.655   5.981  17.687  0.00  0.00    +0.000 A 
ATOM      7  C   UNL     1       4.861   6.579  17.270  0.00  0.00    +0.000 A 
ATOM      8  C   UNL     1       5.817   5.859  16.557  0.00  0.00    +0.000 A 
ATOM      9  C   UNL     1       5.575   4.534  16.225  0.00  0.00    +0.000 A 
ATOM     10  C   UNL     1       4.384   3.926  16.620  0.00  0.00    +0.000 A 
ATOM     11  C   UNL     1       3.414   4.625  17.370  0.00  0.00    +0.000 A 
ATOM     12  C   UNL     1       2.183   3.855  17.831  0.00  0.00    +0.000 C 
ENDROOT
BRANCH   1  14
ATOM     13  O   UNL     1       1.271   2.592  22.137  0.00  0.00    +0.000 OA
ATOM     14  C   UNL     1       2.311   2.492  21.501  0.00  0.00    +0.000 C 
BRANCH  14  15
ATOM     15  O   UNL     1       3.446   2.022  22.054  0.00  0.00    +0.000 OA
ATOM     16  H   UNL     1       3.390   1.091  22.319  0.00  0.00    +0.000 HD
ENDBRANCH  14  15
ENDBRANCH   1  14
BRANCH  12  17
ATOM     17  O   UNL     1       0.987   4.311  17.209  0.00  0.00    +0.000 OA
ATOM     18  H   UNL     1       0.536   4.904  17.830  0.00  0.00    +0.000 HD
ENDBRANCH  12  17
TORSDOF 3
ENDMDL
MODEL 5
REMARK VINA RESULT:      -6.7      2.875      5.159
REMARK  Name = 
REMARK  3 active torsions:
REMARK  status: ('A' for Active; 'I' for Inactive)
REMARK    1  A    between atoms: C_2  and  O_3
REMARK    2  A    between atoms: C_2  and  C_4
REMARK    3  A    between atoms: C_15  and  O_16
REMARK                            x       y       z     vdW  Elec       q    Type
REMARK                         _______ _______ _______ _____ _____    ______ ____
ROOT
ATOM      1  C   UNL     1       3.641   2.475  19.715  0.00  0.00    +0.000 C 
ATOM      2  C   UNL     1       2.934   3.472  19.140  0.00  0.00    +0.000 C 
ATOM      3  C   UNL     1       2.141   4.538  19.860  0.00  0.00    +0.000 C 
ATOM      4  C   UNL     1       2.843   5.894  19.798  0.00  0.00    +0.000 C 
ATOM      5  C   UNL     1       2.766   6.533  18.411  0.00  0.00    +0.000 C 
ATOM      6  C   UNL     1       3.773   5.973  17.431  0.00  0.00    +0.000 A 
ATOM      7  C   UNL     1       4.725   6.860  16.891  0.00  0.00    +0.000 A 
ATOM      8  C   UNL     1       5.695   6.421  15.992  0.00  0.00    +0.000 A 
ATOM      9  C   UNL     1       5.715   5.092  15.596  0.00  0.00    +0.000 A 
ATOM     10  C   UNL     1       4.775   4.200  16.111  0.00  0.00    +0.000 A 
ATOM     11  C   UNL     1       3.804   4.614  17.046  0.00  0.00    +0.000 A 
ATOM     12  C   UNL     1       2.874   3.553  17.620  0.00  0.00    +0.000 C 
ENDROOT
BRANCH   1  14
ATOM     13  O   UNL     1       3.026   2.209  21.965  0.00  0.00    +0.000 OA
ATOM     14  C   UNL     1       3.899   2.109  21.115  0.00  0.00    +0.000 C 
BRANCH  14  15
ATOM     15  O   UNL     1       5.109   1.586  21.389  0.00  0.00    +0.000 OA
ATOM     16  H   UNL     1       5.204   0.664  21.106  0.00  0.00    +0.000 HD
ENDBRANCH  14  15
ENDBRANCH   1  14
BRANCH  12  17
ATOM     17  O   UNL     1       1.521   3.733  17.217  0.00  0.00    +0.000 OA
ATOM     18  H   UNL     1       1.316   4.679  17.277  0.00  0.00    +0.000 HD
ENDBRANCH  12  17
TORSDOF 3
ENDMDL
MODEL 6
REMARK VINA RESULT:      -6.6      2.553      5.176
REMARK  Name = 
REMARK  3 active torsions:
REMARK  status: ('A' for Active; 'I' for Inactive)
REMARK    1  A    between atoms: C_2  and  O_3
REMARK    2  A    between atoms: C_2  and  C_4
REMARK    3  A    between atoms: C_15  and  O_16
REMARK                            x       y       z     vdW  Elec       q    Type
REMARK                         _______ _______ _______ _____ _____    ______ ____
ROOT
ATOM      1  C   UNL     1       2.102   3.606  17.791  0.00  0.00    +0.000 C 
ATOM      2  C   UNL     1       2.988   4.500  18.283  0.00  0.00    +0.000 C 
ATOM      3  C   UNL     1       3.531   4.540  19.692  0.00  0.00    +0.000 C 
ATOM      4  C   UNL     1       4.985   4.069  19.745  0.00  0.00    +0.000 C 
ATOM      5  C   UNL     1       5.956   5.094  19.158  0.00  0.00    +0.000 C 
ATOM      6  C   UNL     1       6.011   5.080  17.647  0.00  0.00    +0.000 A 
ATOM      7  C   UNL     1       7.245   4.775  17.039  0.00  0.00    +0.000 A 
ATOM      8  C   UNL     1       7.377   4.728  15.652  0.00  0.00    +0.000 A 
ATOM      9  C   UNL     1       6.283   5.010  14.847  0.00  0.00    +0.000 A 
ATOM     10  C   UNL     1       5.055   5.323  15.429  0.00  0.00    +0.000 A 
ATOM     11  C   UNL     1       4.890   5.346  16.830  0.00  0.00    +0.000 A 
ATOM     12  C   UNL     1       3.492   5.614  17.375  0.00  0.00    +0.000 C 
ENDROOT
BRANCH   1  14
ATOM     13  O   UNL     1       0.213   2.422  18.530  0.00  0.00    +0.000 OA
ATOM     14  C   UNL     1       1.427   2.440  18.379  0.00  0.00    +0.000 C 
BRANCH  14  15
ATOM     15  O   UNL     1       2.200   1.374  18.661  0.00  0.00    +0.000 OA
ATOM     16  H   UNL     1       2.319   1.225  19.612  0.00  0.00    +0.000 HD
ENDBRANCH  14  15
ENDBRANCH   1  14
BRANCH  12  17
ATOM     17  O   UNL     1       3.402   6.854  18.066  0.00  0.00    +0.000 OA
ATOM     18  H   UNL     1       4.075   7.449  17.700  0.00  0.00    +0.000 HD
ENDBRANCH  12  17
TORSDOF 3
ENDMDL
MODEL 7
REMARK VINA RESULT:      -6.6      2.507      5.022
REMARK  Name = 
REMARK  3 active torsions:
REMARK  status: ('A' for Active; 'I' for Inactive)
REMARK    1  A    between atoms: C_2  and  O_3
REMARK    2  A    between atoms: C_2  and  C_4
REMARK    3  A    between atoms: C_15  and  O_16
REMARK                            x       y       z     vdW  Elec       q    Type
REMARK                         _______ _______ _______ _____ _____    ______ ____
ROOT
ATOM      1  C   UNL     1       3.994   3.403  18.853  0.00  0.00    +0.000 C 
ATOM      2  C   UNL     1       4.560   4.584  18.516  0.00  0.00    +0.000 C 
ATOM      3  C   UNL     1       5.544   5.374  19.345  0.00  0.00    +0.000 C 
ATOM      4  C   UNL     1       6.957   5.289  18.767  0.00  0.00    +0.000 C 
ATOM      5  C   UNL     1       7.117   6.108  17.485  0.00  0.00    +0.000 C 
ATOM      6  C   UNL     1       6.577   5.416  16.254  0.00  0.00    +0.000 A 
ATOM      7  C   UNL     1       7.482   5.128  15.214  0.00  0.00    +0.000 A 
ATOM      8  C   UNL     1       7.067   4.481  14.052  0.00  0.00    +0.000 A 
ATOM      9  C   UNL     1       5.733   4.132  13.897  0.00  0.00    +0.000 A 
ATOM     10  C   UNL     1       4.819   4.417  14.911  0.00  0.00    +0.000 A 
ATOM     11  C   UNL     1       5.222   5.043  16.109  0.00  0.00    +0.000 A 
ATOM     12  C   UNL     1       4.172   5.236  17.196  0.00  0.00    +0.000 C 
ENDROOT
BRANCH   1  14
ATOM     13  O   UNL     1       3.286   2.499  20.901  0.00  0.00    +0.000 OA
ATOM     14  C   UNL     1       4.136   2.524  20.022  0.00  0.00    +0.000 C 
BRANCH  14  15
ATOM     15  O   UNL     1       5.199   1.697  20.031  0.00  0.00    +0.000 OA
ATOM     16  H   UNL     1       5.147   1.008  20.711  0.00  0.00    +0.000 HD
ENDBRANCH  14  15
ENDBRANCH   1  14
BRANCH  12  17
ATOM     17  O   UNL     1       3.867   6.607  17.426  0.00  0.00    +0.000 OA
ATOM     18  H   UNL     1       3.134   6.647  18.061  0.00  0.00    +0.000 HD
ENDBRANCH  12  17
TORSDOF 3
ENDMDL
MODEL 8
REMARK VINA RESULT:      -6.5      2.776      5.499
REMARK  Name = 
REMARK  3 active torsions:
REMARK  status: ('A' for Active; 'I' for Inactive)
REMARK    1  A    between atoms: C_2  and  O_3
REMARK    2  A    between atoms: C_2  and  C_4
REMARK    3  A    between atoms: C_15  and  O_16
REMARK                            x       y       z     vdW  Elec       q    Type
REMARK                         _______ _______ _______ _____ _____    ______ ____
ROOT
ATOM      1  C   UNL     1       2.837   4.757  20.439  0.00  0.00    +0.000 C 
ATOM      2  C   UNL     1       3.448   4.006  19.495  0.00  0.00    +0.000 C 
ATOM      3  C   UNL     1       2.784   3.340  18.314  0.00  0.00    +0.000 C 
ATOM      4  C   UNL     1       3.113   4.061  17.007  0.00  0.00    +0.000 C 
ATOM      5  C   UNL     1       4.553   3.822  16.551  0.00  0.00    +0.000 C 
ATOM      6  C   UNL     1       5.567   4.679  17.274  0.00  0.00    +0.000 A 
ATOM      7  C   UNL     1       6.336   5.576  16.505  0.00  0.00    +0.000 A 
ATOM      8  C   UNL     1       7.282   6.411  17.098  0.00  0.00    +0.000 A 
ATOM      9  C   UNL     1       7.495   6.346  18.467  0.00  0.00    +0.000 A 
ATOM     10  C   UNL     1       6.752   5.459  19.244  0.00  0.00    +0.000 A 
ATOM     11  C   UNL     1       5.767   4.627  18.672  0.00  0.00    +0.000 A 
ATOM     12  C   UNL     1       4.945   3.753  19.611  0.00  0.00    +0.000 C 
ENDROOT
BRANCH   1  14
ATOM     13  O   UNL     1       1.162   6.360  20.814  0.00  0.00    +0.000 OA
ATOM     14  C   UNL     1       1.443   5.184  20.630  0.00  0.00    +0.000 C 
BRANCH  14  15
ATOM     15  O   UNL     1       0.499   4.231  20.511  0.00  0.00    +0.000 OA
ATOM     16  H   UNL     1       0.327   3.753  21.337  0.00  0.00    +0.000 HD
ENDBRANCH  14  15
ENDBRANCH   1  14
BRANCH  12  17
ATOM     17  O   UNL     1       5.197   2.364  19.428  0.00  0.00    +0.000 OA
ATOM     18  H   UNL     1       4.348   1.897  19.481  0.00  0.00    +0.000 HD
ENDBRANCH  12  17
TORSDOF 3
ENDMDL
MODEL 9
REMARK VINA RESULT:      -6.5      2.453      5.501
REMARK  Name = 
REMARK  3 active torsions:
REMARK  status: ('A' for Active; 'I' for Inactive)
REMARK    1  A    between atoms: C_2  and  O_3
REMARK    2  A    between atoms: C_2  and  C_4
REMARK    3  A    between atoms: C_15  and  O_16
REMARK                            x       y       z     vdW  Elec       q    Type
REMARK                         _______ _______ _______ _____ _____    ______ ____
ROOT
ATOM      1  C   UNL     1       3.394   4.369  20.109  0.00  0.00    +0.000 C 
ATOM      2  C   UNL     1       3.747   4.565  18.819  0.00  0.00    +0.000 C 
ATOM      3  C   UNL     1       2.882   5.166  17.736  0.00  0.00    +0.000 C 
ATOM      4  C   UNL     1       3.333   6.583  17.383  0.00  0.00    +0.000 C 
ATOM      5  C   UNL     1       4.640   6.603  16.589  0.00  0.00    +0.000 C 
ATOM      6  C   UNL     1       5.872   6.430  17.448  0.00  0.00    +0.000 A 
ATOM      7  C   UNL     1       6.815   7.477  17.460  0.00  0.00    +0.000 A 
ATOM      8  C   UNL     1       7.970   7.402  18.236  0.00  0.00    +0.000 A 
ATOM      9  C   UNL     1       8.217   6.267  18.994  0.00  0.00    +0.000 A 
ATOM     10  C   UNL     1       7.302   5.215  18.988  0.00  0.00    +0.000 A 
ATOM     11  C   UNL     1       6.110   5.282  18.235  0.00  0.00    +0.000 A 
ATOM     12  C   UNL     1       5.129   4.123  18.358  0.00  0.00    +0.000 C 
ENDROOT
BRANCH   1  14
ATOM     13  O   UNL     1       1.449   3.765  21.279  0.00  0.00    +0.000 OA
ATOM     14  C   UNL     1       2.169   4.664  20.867  0.00  0.00    +0.000 C 
BRANCH  14  15
ATOM     15  O   UNL     1       1.932   5.959  21.150  0.00  0.00    +0.000 OA
ATOM     16  H   UNL     1       1.586   6.461  20.396  0.00  0.00    +0.000 HD
ENDBRANCH  14  15
ENDBRANCH   1  14
BRANCH  12  17
ATOM     17  O   UNL     1       5.002   3.383  17.149  0.00  0.00    +0.000 OA
ATOM     18  H   UNL     1       4.993   4.014  16.412  0.00  0.00    +0.000 HD
ENDBRANCH  12  17
TORSDOF 3
ENDMDL
