MODEL 1
REMARK VINA RESULT:      -6.9      0.000      0.000
REMARK  Name = 
REMARK  2 active torsions:
REMARK  status: ('A' for Active; 'I' for Inactive)
REMARK    1  A    between atoms: C_6  and  C_7
REMARK    2  A    between atoms: C_7  and  N_8
REMARK                            x       y       z     vdW  Elec       q    Type
REMARK                         _______ _______ _______ _____ _____    ______ ____
ROOT
ATOM      1  C   UNL     1       3.707   6.735  17.798  0.00  0.00    +0.000 C 
ENDROOT
BRANCH   1   7
ATOM      2 CL   UNL     1       6.637   4.454  14.109  0.00  0.00    +0.000 Cl
ATOM      3  C   UNL     1       6.361   4.910  15.745  0.00  0.00    +0.000 A 
ATOM      4  C   UNL     1       7.296   4.572  16.722  0.00  0.00    +0.000 A 
ATOM      5  C   UNL     1       7.072   4.942  18.047  0.00  0.00    +0.000 A 
ATOM      6  C   UNL     1       5.917   5.651  18.390  0.00  0.00    +0.000 A 
ATOM      7  C   UNL     1       4.971   5.994  17.413  0.00  0.00    +0.000 A 
ATOM      8  C   UNL     1       5.205   5.614  16.083  0.00  0.00    +0.000 A 
ENDBRANCH   1   7
BRANCH   1   9
ATOM      9  N   UNL     1       2.631   5.877  18.340  0.00  0.00    +0.000 NA
ATOM     10  C   UNL     1       2.706   4.511  17.813  0.00  0.00    +0.000 C 
ATOM     11  C   UNL     1       1.385   3.738  17.922  0.00  0.00    +0.000 C 
ATOM     12  C   UNL     1       1.114   3.104  19.277  0.00  0.00    +0.000 C 
ATOM     13  C   UNL     1       1.003   4.102  20.418  0.00  0.00    +0.000 C 
ATOM     14  C   UNL     1       2.322   4.804  20.696  0.00  0.00    +0.000 C 
ATOM     15  C   UNL     1       2.591   6.018  19.805  0.00  0.00    +0.000 C 
ENDBRANCH   1   9
TORSDOF 2
ENDMDL
MODEL 2
REMARK VINA RESULT:      -6.8      1.897      2.384
REMARK  Name = 
REMARK  2 active torsions:
REMARK  status: ('A' for Active; 'I' for Inactive)
REMARK    1  A    between atoms: C_6  and  C_7
REMARK    2  A    between atoms: C_7  and  N_8
REMARK                            x       y       z     vdW  Elec       q    Type
REMARK                         _______ _______ _______ _____ _____    ______ ____
ROOT
ATOM      1  C   UNL     1       3.051   5.133  17.615  0.00  0.00    +0.000 C 
ENDROOT
BRANCH   1   7
ATOM      2 CL   UNL     1       7.722   7.489  17.470  0.00  0.00    +0.000 Cl
ATOM      3  C   UNL     1       6.670   6.201  17.026  0.00  0.00    +0.000 A 
ATOM      4  C   UNL     1       7.140   5.178  16.205  0.00  0.00    +0.000 A 
ATOM      5  C   UNL     1       6.287   4.136  15.846  0.00  0.00    +0.000 A 
ATOM      6  C   UNL     1       4.969   4.117  16.313  0.00  0.00    +0.000 A 
ATOM      7  C   UNL     1       4.489   5.143  17.139  0.00  0.00    +0.000 A 
ATOM      8  C   UNL     1       5.354   6.190  17.491  0.00  0.00    +0.000 A 
ENDBRANCH   1   7
BRANCH   1   9
ATOM      9  N   UNL     1       2.738   4.082  18.609  0.00  0.00    +0.000 NA
ATOM     10  C   UNL     1       3.768   3.993  19.648  0.00  0.00    +0.000 C 
ATOM     11  C   UNL     1       3.778   2.648  20.388  0.00  0.00    +0.000 C 
ATOM     12  C   UNL     1       2.761   2.518  21.511  0.00  0.00    +0.000 C 
ATOM     13  C   UNL     1       1.316   2.629  21.056  0.00  0.00    +0.000 C 
ATOM     14  C   UNL     1       0.983   4.019  20.537  0.00  0.00    +0.000 C 
ATOM     15  C   UNL     1       1.350   4.249  19.069  0.00  0.00    +0.000 C 
ENDBRANCH   1   9
TORSDOF 2
ENDMDL
MODEL 3
REMARK VINA RESULT:      -6.8      0.867      1.790
REMARK  Name = 
REMARK  2 active torsions:
REMARK  status: ('A' for Active; 'I' for Inactive)
REMARK    1  A    between atoms: C_6  and  C_7
REMARK    2  A    between atoms: C_7  and  N_8
REMARK                            x       y       z     vdW  Elec       q    Type
REMARK                         _______ _______ _______ _____ _____    ______ ____
ROOT
ATOM      1  C   UNL     1       3.658   5.654  17.713  0.00  0.00    +0.000 C 
ENDROOT
BRANCH   1   7
ATOM      2 CL   UNL     1       6.315   3.972  13.529  0.00  0.00    +0.000 Cl
ATOM      3  C   UNL     1       6.256   4.473  15.175  0.00  0.00    +0.000 A 
ATOM      4  C   UNL     1       7.427   4.496  15.931  0.00  0.00    +0.000 A 
ATOM      5  C   UNL     1       7.377   4.902  17.263  0.00  0.00    +0.000 A 
ATOM      6  C   UNL     1       6.160   5.287  17.834  0.00  0.00    +0.000 A 
ATOM      7  C   UNL     1       4.978   5.265  17.080  0.00  0.00    +0.000 A 
ATOM      8  C   UNL     1       5.038   4.851  15.740  0.00  0.00    +0.000 A 
ENDBRANCH   1   7
BRANCH   1   9
ATOM      9  N   UNL     1       3.138   4.679  18.699  0.00  0.00    +0.000 NA
ATOM     10  C   UNL     1       2.372   5.337  19.761  0.00  0.00    +0.000 C 
ATOM     11  C   UNL     1       2.243   4.493  21.037  0.00  0.00    +0.000 C 
ATOM     12  C   UNL     1       1.141   3.446  21.013  0.00  0.00    +0.000 C 
ATOM     13  C   UNL     1       1.314   2.386  19.938  0.00  0.00    +0.000 C 
ATOM     14  C   UNL     1       1.182   2.964  18.538  0.00  0.00    +0.000 C 
ATOM     15  C   UNL     1       2.468   3.581  17.985  0.00  0.00    +0.000 C 
ENDBRANCH   1   9
TORSDOF 2
ENDMDL
MODEL 4
REMARK VINA RESULT:      -6.8      1.358      2.436
REMARK  Name = 
REMARK  2 active torsions:
REMARK  status: ('A' for Active; 'I' for Inactive)
REMARK    1  A    between atoms: C_6  and  C_7
REMARK    2  A    between atoms: C_7  and  N_8
REMARK                            x       y       z     vdW  Elec       q    Type
REMARK                         _______ _______ _______ _____ _____    ______ ____
ROOT
ATOM      1  C   UNL     1       5.291   3.973  18.951  0.00  0.00    +0.000 C 
ENDROOT
BRANCH   1   7
ATOM      2 CL   UNL     1       6.077   3.818  13.778  0.00  0.00    +0.000 Cl
ATOM      3  C   UNL     1       5.656   4.670  15.214  0.00  0.00    +0.000 A 
ATOM      4  C   UNL     1       5.338   6.025  15.143  0.00  0.00    +0.000 A 
ATOM      5  C   UNL     1       4.998   6.714  16.306  0.00  0.00    +0.000 A 
ATOM      6  C   UNL     1       4.972   6.046  17.533  0.00  0.00    +0.000 A 
ATOM      7  C   UNL     1       5.291   4.683  17.613  0.00  0.00    +0.000 A 
ATOM      8  C   UNL     1       5.636   3.999  16.437  0.00  0.00    +0.000 A 
ENDBRANCH   1   7
BRANCH   1   9
ATOM      9  N   UNL     1       3.947   3.613  19.457  0.00  0.00    +0.000 NA
ATOM     10  C   UNL     1       3.260   4.767  20.043  0.00  0.00    +0.000 C 
ATOM     11  C   UNL     1       2.129   4.381  21.007  0.00  0.00    +0.000 C 
ATOM     12  C   UNL     1       0.803   4.040  20.348  0.00  0.00    +0.000 C 
ATOM     13  C   UNL     1       0.862   2.838  19.419  0.00  0.00    +0.000 C 
ATOM     14  C   UNL     1       1.724   3.102  18.195  0.00  0.00    +0.000 C 
ATOM     15  C   UNL     1       3.220   2.871  18.414  0.00  0.00    +0.000 C 
ENDBRANCH   1   9
TORSDOF 2
ENDMDL
MODEL 5
REMARK VINA RESULT:      -6.7      1.898      2.764
REMARK  Name = 
REMARK  2 active torsions:
REMARK  status: ('A' for Active; 'I' for Inactive)
REMARK    1  A    between atoms: C_6  and  C_7
REMARK    2  A    between atoms: C_7  and  N_8
REMARK                            x       y       z     vdW  Elec       q    Type
REMARK                         _______ _______ _______ _____ _____    ______ ____
ROOT
ATOM      1  C   UNL     1       3.881   3.173  17.164  0.00  0.00    +0.000 C 
ENDROOT
BRANCH   1   7
ATOM      2 CL   UNL     1       7.890   6.102  18.821  0.00  0.00    +0.000 Cl
ATOM      3  C   UNL     1       6.960   5.400  17.555  0.00  0.00    +0.000 A 
ATOM      4  C   UNL     1       7.314   5.633  16.227  0.00  0.00    +0.000 A 
ATOM      5  C   UNL     1       6.560   5.064  15.203  0.00  0.00    +0.000 A 
ATOM      6  C   UNL     1       5.458   4.260  15.508  0.00  0.00    +0.000 A 
ATOM      7  C   UNL     1       5.095   4.020  16.841  0.00  0.00    +0.000 A 
ATOM      8  C   UNL     1       5.858   4.602  17.865  0.00  0.00    +0.000 A 
ENDBRANCH   1   7
BRANCH   1   9
ATOM      9  N   UNL     1       3.267   3.454  18.482  0.00  0.00    +0.000 NA
ATOM     10  C   UNL     1       2.359   4.604  18.424  0.00  0.00    +0.000 C 
ATOM     11  C   UNL     1       2.095   5.244  19.794  0.00  0.00    +0.000 C 
ATOM     12  C   UNL     1       1.030   4.560  20.636  0.00  0.00    +0.000 C 
ATOM     13  C   UNL     1       1.361   3.123  21.007  0.00  0.00    +0.000 C 
ATOM     14  C   UNL     1       1.388   2.209  19.792  0.00  0.00    +0.000 C 
ATOM     15  C   UNL     1       2.717   2.206  19.035  0.00  0.00    +0.000 C 
ENDBRANCH   1   9
TORSDOF 2
ENDMDL
MODEL 6
REMARK VINA RESULT:      -6.7      2.193      5.330
REMARK  Name = 
REMARK  2 active torsions:
REMARK  status: ('A' for Active; 'I' for Inactive)
REMARK    1  A    between atoms: C_6  and  C_7
REMARK    2  A    between atoms: C_7  and  N_8
REMARK                            x       y       z     vdW  Elec       q    Type
REMARK                         _______ _______ _______ _____ _____    ______ ____
ROOT
ATOM      1  C   UNL     1       3.443   6.736  17.653  0.00  0.00    +0.000 C 
ENDROOT
BRANCH   1   7
ATOM      2 CL   UNL     1       0.820   2.312  18.624  0.00  0.00    +0.000 Cl
ATOM      3  C   UNL     1       1.434   3.840  19.124  0.00  0.00    +0.000 A 
ATOM      4  C   UNL     1       1.198   4.286  20.423  0.00  0.00    +0.000 A 
ATOM      5  C   UNL     1       1.695   5.524  20.827  0.00  0.00    +0.000 A 
ATOM      6  C   UNL     1       2.430   6.309  19.934  0.00  0.00    +0.000 A 
ATOM      7  C   UNL     1       2.672   5.867  18.625  0.00  0.00    +0.000 A 
ATOM      8  C   UNL     1       2.163   4.621  18.227  0.00  0.00    +0.000 A 
ENDBRANCH   1   7
BRANCH   1   9
ATOM      9  N   UNL     1       4.839   6.305  17.415  0.00  0.00    +0.000 NA
ATOM     10  C   UNL     1       5.435   5.706  18.612  0.00  0.00    +0.000 C 
ATOM     11  C   UNL     1       6.970   5.706  18.598  0.00  0.00    +0.000 C 
ATOM     12  C   UNL     1       7.612   4.569  17.819  0.00  0.00    +0.000 C 
ATOM     13  C   UNL     1       7.272   4.562  16.338  0.00  0.00    +0.000 C 
ATOM     14  C   UNL     1       5.800   4.276  16.089  0.00  0.00    +0.000 C 
ATOM     15  C   UNL     1       4.894   5.506  16.180  0.00  0.00    +0.000 C 
ENDBRANCH   1   9
TORSDOF 2
ENDMDL
MODEL 7
REMARK VINA RESULT:      -6.7      2.638      5.590
REMARK  Name = 
REMARK  2 active torsions:
REMARK  status: ('A' for Active; 'I' for Inactive)
REMARK    1  A    between atoms: C_6  and  C_7
REMARK    2  A    between atoms: C_7  and  N_8
REMARK                            x       y       z     vdW  Elec       q    Type
REMARK                         _______ _______ _______ _____ _____    ______ ____
ROOT
ATOM      1  C   UNL     1       3.221   6.412  18.746  0.00  0.00    +0.000 C 
ENDROOT
BRANCH   1   7
ATOM      2 CL   UNL     1       1.496   2.647  21.946  0.00  0.00    +0.000 Cl
ATOM      3  C   UNL     1       1.661   3.330  20.375  0.00  0.00    +0.000 A 
ATOM      4  C   UNL     1       1.121   2.668  19.274  0.00  0.00    +0.000 A 
ATOM      5  C   UNL     1       1.255   3.222  18.003  0.00  0.00    +0.000 A 
ATOM      6  C   UNL     1       1.924   4.438  17.836  0.00  0.00    +0.000 A 
ATOM      7  C   UNL     1       2.471   5.111  18.938  0.00  0.00    +0.000 A 
ATOM      8  C   UNL     1       2.334   4.542  20.214  0.00  0.00    +0.000 A 
ENDBRANCH   1   7
BRANCH   1   9
ATOM      9  N   UNL     1       4.602   6.257  18.236  0.00  0.00    +0.000 NA
ATOM     10  C   UNL     1       5.334   5.211  18.955  0.00  0.00    +0.000 C 
ATOM     11  C   UNL     1       6.859   5.338  18.838  0.00  0.00    +0.000 C 
ATOM     12  C   UNL     1       7.462   4.761  17.568  0.00  0.00    +0.000 C 
ATOM     13  C   UNL     1       6.981   5.431  16.291  0.00  0.00    +0.000 C 
ATOM     14  C   UNL     1       5.502   5.184  16.037  0.00  0.00    +0.000 C 
ATOM     15  C   UNL     1       4.566   6.147  16.768  0.00  0.00    +0.000 C 
ENDBRANCH   1   9
TORSDOF 2
ENDMDL
MODEL 8
REMARK VINA RESULT:      -6.7      1.917      2.644
REMARK  Name = 
REMARK  2 active torsions:
REMARK  status: ('A' for Active; 'I' for Inactive)
REMARK    1  A    between atoms: C_6  and  C_7
REMARK    2  A    between atoms: C_7  and  N_8
REMARK                            x       y       z     vdW  Elec       q    Type
REMARK                         _______ _______ _______ _____ _____    ______ ____
ROOT
ATOM      1  C   UNL     1       4.279   5.270  17.315  0.00  0.00    +0.000 C 
ENDROOT
BRANCH   1   7
ATOM      2 CL   UNL     1       7.891   9.056  17.451  0.00  0.00    +0.000 Cl
ATOM      3  C   UNL     1       7.337   7.486  17.888  0.00  0.00    +0.000 A 
ATOM      4  C   UNL     1       8.141   6.665  18.677  0.00  0.00    +0.000 A 
ATOM      5  C   UNL     1       7.691   5.394  19.030  0.00  0.00    +0.000 A 
ATOM      6  C   UNL     1       6.438   4.950  18.599  0.00  0.00    +0.000 A 
ATOM      7  C   UNL     1       5.623   5.770  17.805  0.00  0.00    +0.000 A 
ATOM      8  C   UNL     1       6.087   7.046  17.451  0.00  0.00    +0.000 A 
ENDBRANCH   1   7
BRANCH   1   9
ATOM      9  N   UNL     1       3.447   4.622  18.354  0.00  0.00    +0.000 NA
ATOM     10  C   UNL     1       2.728   5.606  19.167  0.00  0.00    +0.000 C 
ATOM     11  C   UNL     1       2.271   5.060  20.527  0.00  0.00    +0.000 C 
ATOM     12  C   UNL     1       0.976   4.265  20.505  0.00  0.00    +0.000 C 
ATOM     13  C   UNL     1       1.033   3.008  19.653  0.00  0.00    +0.000 C 
ATOM     14  C   UNL     1       1.192   3.325  18.175  0.00  0.00    +0.000 C 
ATOM     15  C   UNL     1       2.637   3.561  17.732  0.00  0.00    +0.000 C 
ENDBRANCH   1   9
TORSDOF 2
ENDMDL
MODEL 9
REMARK VINA RESULT:      -6.7      1.764      2.075
REMARK  Name = 
REMARK  2 active torsions:
REMARK  status: ('A' for Active; 'I' for Inactive)
REMARK    1  A    between atoms: C_6  and  C_7
REMARK    2  A    between atoms: C_7  and  N_8
REMARK                            x       y       z     vdW  Elec       q    Type
REMARK                         _______ _______ _______ _____ _____    ______ ____
ROOT
ATOM      1  C   UNL     1       5.127   3.929  19.553  0.00  0.00    +0.000 C 
ENDROOT
BRANCH   1   7
ATOM      2 CL   UNL     1       5.153   6.919  15.257  0.00  0.00    +0.000 Cl
ATOM      3  C   UNL     1       5.870   6.393  16.731  0.00  0.00    +0.000 A 
ATOM      4  C   UNL     1       7.087   6.936  17.139  0.00  0.00    +0.000 A 
ATOM      5  C   UNL     1       7.666   6.510  18.332  0.00  0.00    +0.000 A 
ATOM      6  C   UNL     1       7.025   5.546  19.117  0.00  0.00    +0.000 A 
ATOM      7  C   UNL     1       5.800   4.995  18.714  0.00  0.00    +0.000 A 
ATOM      8  C   UNL     1       5.228   5.428  17.508  0.00  0.00    +0.000 A 
ENDBRANCH   1   7
BRANCH   1   9
ATOM      9  N   UNL     1       3.679   3.765  19.295  0.00  0.00    +0.000 NA
ATOM     10  C   UNL     1       3.366   2.430  18.776  0.00  0.00    +0.000 C 
ATOM     11  C   UNL     1       2.025   2.360  18.034  0.00  0.00    +0.000 C 
ATOM     12  C   UNL     1       0.800   2.204  18.921  0.00  0.00    +0.000 C 
ATOM     13  C   UNL     1       0.579   3.359  19.884  0.00  0.00    +0.000 C 
ATOM     14  C   UNL     1       1.675   3.448  20.933  0.00  0.00    +0.000 C 
ATOM     15  C   UNL     1       2.924   4.206  20.479  0.00  0.00    +0.000 C 
ENDBRANCH   1   9
TORSDOF 2
ENDMDL
