MODEL 1
REMARK VINA RESULT:      -8.1      0.000      0.000
REMARK  Name = 
REMARK  9 active torsions:
REMARK  status: ('A' for Active; 'I' for Inactive)
REMARK    1  A    between atoms: C_1  and  O_2
REMARK    2  A    between atoms: O_2  and  C_3
REMARK    3  A    between atoms: C_6  and  C_7
REMARK    4  A    between atoms: C_7  and  O_8
REMARK    5  A    between atoms: O_8  and  C_9
REMARK    6  A    between atoms: C_20  and  C_21
REMARK    7  A    between atoms: C_21  and  C_22
REMARK    8  A    between atoms: C_22  and  O_24
REMARK    9  A    between atoms: C_26  and  C_27
REMARK                            x       y       z     vdW  Elec       q    Type
REMARK                         _______ _______ _______ _____ _____    ______ ____
ROOT
ATOM      1  C   UNL     1       7.472   7.634  17.803  0.00  0.00    +0.000 A 
ATOM      2  C   UNL     1       7.907   6.707  18.751  0.00  0.00    +0.000 A 
ATOM      3  C   UNL     1       7.129   5.592  19.086  0.00  0.00    +0.000 A 
ATOM      4  C   UNL     1       5.899   5.446  18.432  0.00  0.00    +0.000 A 
ATOM      5  C   UNL     1       5.422   6.377  17.500  0.00  0.00    +0.000 A 
ATOM      6  C   UNL     1       6.215   7.498  17.202  0.00  0.00    +0.000 A 
ATOM      7  C   UNL     1       4.156   5.915  17.011  0.00  0.00    +0.000 A 
ATOM      8  C   UNL     1       3.917   4.720  17.631  0.00  0.00    +0.000 A 
ATOM      9  N   UNL     1       4.946   4.485  18.493  0.00  0.00    +0.000 N 
ATOM     10  C   UNL     1       4.829   3.240  19.219  0.00  0.00    +0.000 C 
ATOM     11  C   UNL     1       3.675   2.532  18.496  0.00  0.00    +0.000 C 
ATOM     12  C   UNL     1       2.939   3.600  17.624  0.00  0.00    +0.000 C 
ENDROOT
BRANCH   1  13
ATOM     13  O   UNL     1       8.348   8.649  17.515  0.00  0.00    +0.000 OA
BRANCH  13  14
ATOM     14  C   UNL     1       8.894   9.306  18.665  0.00  0.00    +0.000 C 
BRANCH  14  18
ATOM     15  C   UNL     1      10.060  13.333  17.596  0.00  0.00    +0.000 A 
ATOM     16  C   UNL     1      11.020  12.309  17.662  0.00  0.00    +0.000 A 
ATOM     17  C   UNL     1      10.659  11.001  18.001  0.00  0.00    +0.000 A 
ATOM     18  C   UNL     1       9.325  10.693  18.273  0.00  0.00    +0.000 A 
ATOM     19  C   UNL     1       8.368  11.711  18.199  0.00  0.00    +0.000 A 
ATOM     20  C   UNL     1       8.718  13.020  17.844  0.00  0.00    +0.000 A 
BRANCH  15  22
ATOM     21  C   UNL     1      11.863  14.889  17.735  0.00  0.00    +0.000 C 
ATOM     22  O   UNL     1      10.584  14.540  17.212  0.00  0.00    +0.000 OA
ENDBRANCH  15  22
BRANCH  20  23
ATOM     23  C   UNL     1       7.638  13.944  17.697  0.00  0.00    +0.000 C 
ATOM     24  N   UNL     1       6.788  14.727  17.569  0.00  0.00    +0.000 NA
ENDBRANCH  20  23
ENDBRANCH  14  18
ENDBRANCH  13  14
ENDBRANCH   1  13
BRANCH  12  25
ATOM     25  C   UNL     1       1.573   4.008  18.176  0.00  0.00    +0.000 C 
BRANCH  25  26
ATOM     26  C   UNL     1       0.983   2.925  19.052  0.00  0.00    +0.000 C 
ATOM     27  O   UNL     1       1.015   2.906  20.272  0.00  0.00    +0.000 OA
BRANCH  26  28
ATOM     28  O   UNL     1       0.386   1.946  18.336  0.00  0.00    +0.000 OA
ATOM     29  H   UNL     1      -0.351   1.506  18.801  0.00  0.00    +0.000 HD
ENDBRANCH  26  28
ENDBRANCH  25  26
ENDBRANCH  12  25
TORSDOF 8
ENDMDL
MODEL 2
REMARK VINA RESULT:      -8.1      1.533      1.813
REMARK  Name = 
REMARK  9 active torsions:
REMARK  status: ('A' for Active; 'I' for Inactive)
REMARK    1  A    between atoms: C_1  and  O_2
REMARK    2  A    between atoms: O_2  and  C_3
REMARK    3  A    between atoms: C_6  and  C_7
REMARK    4  A    between atoms: C_7  and  O_8
REMARK    5  A    between atoms: O_8  and  C_9
REMARK    6  A    between atoms: C_20  and  C_21
REMARK    7  A    between atoms: C_21  and  C_22
REMARK    8  A    between atoms: C_22  and  O_24
REMARK    9  A    between atoms: C_26  and  C_27
REMARK                            x       y       z     vdW  Elec       q    Type
REMARK                         _______ _______ _______ _____ _____    ______ ____
ROOT
ATOM      1  C   UNL     1       7.622   7.205  18.126  0.00  0.00    +0.000 A 
ATOM      2  C   UNL     1       7.865   6.258  19.121  0.00  0.00    +0.000 A 
ATOM      3  C   UNL     1       6.972   5.204  19.353  0.00  0.00    +0.000 A 
ATOM      4  C   UNL     1       5.830   5.140  18.546  0.00  0.00    +0.000 A 
ATOM      5  C   UNL     1       5.543   6.094  17.560  0.00  0.00    +0.000 A 
ATOM      6  C   UNL     1       6.446   7.154  17.368  0.00  0.00    +0.000 A 
ATOM      7  C   UNL     1       4.320   5.719  16.913  0.00  0.00    +0.000 A 
ATOM      8  C   UNL     1       3.920   4.549  17.496  0.00  0.00    +0.000 A 
ATOM      9  N   UNL     1       4.810   4.248  18.483  0.00  0.00    +0.000 N 
ATOM     10  C   UNL     1       4.512   3.022  19.188  0.00  0.00    +0.000 C 
ATOM     11  C   UNL     1       3.414   2.391  18.321  0.00  0.00    +0.000 C 
ATOM     12  C   UNL     1       2.874   3.500  17.363  0.00  0.00    +0.000 C 
ENDROOT
BRANCH   1  13
ATOM     13  O   UNL     1       8.597   8.154  17.954  0.00  0.00    +0.000 OA
BRANCH  13  14
ATOM     14  C   UNL     1       8.106   9.453  17.602  0.00  0.00    +0.000 C 
BRANCH  14  18
ATOM     15  C   UNL     1      10.088  12.486  19.966  0.00  0.00    +0.000 A 
ATOM     16  C   UNL     1       9.842  11.213  20.506  0.00  0.00    +0.000 A 
ATOM     17  C   UNL     1       9.207  10.220  19.754  0.00  0.00    +0.000 A 
ATOM     18  C   UNL     1       8.813  10.483  18.441  0.00  0.00    +0.000 A 
ATOM     19  C   UNL     1       9.067  11.748  17.901  0.00  0.00    +0.000 A 
ATOM     20  C   UNL     1       9.717  12.743  18.641  0.00  0.00    +0.000 A 
BRANCH  15  22
ATOM     21  C   UNL     1       9.958  14.158  21.663  0.00  0.00    +0.000 C 
ATOM     22  O   UNL     1      10.753  13.319  20.829  0.00  0.00    +0.000 OA
ENDBRANCH  15  22
BRANCH  20  23
ATOM     23  C   UNL     1      10.014  13.955  17.944  0.00  0.00    +0.000 C 
ATOM     24  N   UNL     1      10.246  14.921  17.341  0.00  0.00    +0.000 NA
ENDBRANCH  20  23
ENDBRANCH  14  18
ENDBRANCH  13  14
ENDBRANCH   1  13
BRANCH  12  25
ATOM     25  C   UNL     1       1.481   4.008  17.735  0.00  0.00    +0.000 C 
BRANCH  25  26
ATOM     26  C   UNL     1       0.825   3.122  18.770  0.00  0.00    +0.000 C 
ATOM     27  O   UNL     1       0.255   2.068  18.539  0.00  0.00    +0.000 OA
BRANCH  26  28
ATOM     28  O   UNL     1       0.938   3.615  20.024  0.00  0.00    +0.000 OA
ATOM     29  H   UNL     1       0.678   2.986  20.724  0.00  0.00    +0.000 HD
ENDBRANCH  26  28
ENDBRANCH  25  26
ENDBRANCH  12  25
TORSDOF 8
ENDMDL
MODEL 3
REMARK VINA RESULT:      -7.8      4.374      7.618
REMARK  Name = 
REMARK  9 active torsions:
REMARK  status: ('A' for Active; 'I' for Inactive)
REMARK    1  A    between atoms: C_1  and  O_2
REMARK    2  A    between atoms: O_2  and  C_3
REMARK    3  A    between atoms: C_6  and  C_7
REMARK    4  A    between atoms: C_7  and  O_8
REMARK    5  A    between atoms: O_8  and  C_9
REMARK    6  A    between atoms: C_20  and  C_21
REMARK    7  A    between atoms: C_21  and  C_22
REMARK    8  A    between atoms: C_22  and  O_24
REMARK    9  A    between atoms: C_26  and  C_27
REMARK                            x       y       z     vdW  Elec       q    Type
REMARK                         _______ _______ _______ _____ _____    ______ ____
ROOT
ATOM      1  C   UNL     1       2.566   4.945  18.798  0.00  0.00    +0.000 A 
ATOM      2  C   UNL     1       2.254   4.967  20.158  0.00  0.00    +0.000 A 
ATOM      3  C   UNL     1       1.825   6.143  20.785  0.00  0.00    +0.000 A 
ATOM      4  C   UNL     1       1.723   7.293  19.994  0.00  0.00    +0.000 A 
ATOM      5  C   UNL     1       2.060   7.310  18.634  0.00  0.00    +0.000 A 
ATOM      6  C   UNL     1       2.510   6.119  18.038  0.00  0.00    +0.000 A 
ATOM      7  C   UNL     1       1.819   8.629  18.126  0.00  0.00    +0.000 A 
ATOM      8  C   UNL     1       1.324   9.358  19.172  0.00  0.00    +0.000 A 
ATOM      9  N   UNL     1       1.312   8.554  20.273  0.00  0.00    +0.000 N 
ATOM     10  C   UNL     1       0.801   9.198  21.462  0.00  0.00    +0.000 C 
ATOM     11  C   UNL     1       0.204  10.501  20.913  0.00  0.00    +0.000 C 
ATOM     12  C   UNL     1       0.760  10.702  19.467  0.00  0.00    +0.000 C 
ENDROOT
BRANCH   1  13
ATOM     13  O   UNL     1       2.915   3.722  18.285  0.00  0.00    +0.000 OA
BRANCH  13  14
ATOM     14  C   UNL     1       4.227   3.278  18.651  0.00  0.00    +0.000 C 
BRANCH  14  18
ATOM     15  C   UNL     1       7.073   6.184  17.176  0.00  0.00    +0.000 A 
ATOM     16  C   UNL     1       6.748   6.138  18.542  0.00  0.00    +0.000 A 
ATOM     17  C   UNL     1       5.833   5.202  19.036  0.00  0.00    +0.000 A 
ATOM     18  C   UNL     1       5.234   4.287  18.169  0.00  0.00    +0.000 A 
ATOM     19  C   UNL     1       5.565   4.327  16.810  0.00  0.00    +0.000 A 
ATOM     20  C   UNL     1       6.491   5.250  16.310  0.00  0.00    +0.000 A 
BRANCH  15  22
ATOM     21  C   UNL     1       7.983   8.340  17.639  0.00  0.00    +0.000 C 
ATOM     22  O   UNL     1       8.013   7.136  16.878  0.00  0.00    +0.000 OA
ENDBRANCH  15  22
BRANCH  20  23
ATOM     23  C   UNL     1       6.827   5.121  14.927  0.00  0.00    +0.000 C 
ATOM     24  N   UNL     1       7.079   5.053  13.795  0.00  0.00    +0.000 NA
ENDBRANCH  20  23
ENDBRANCH  14  18
ENDBRANCH  13  14
ENDBRANCH   1  13
BRANCH  12  25
ATOM     25  C   UNL     1       1.803  11.814  19.359  0.00  0.00    +0.000 C 
BRANCH  25  26
ATOM     26  C   UNL     1       1.396  12.859  18.343  0.00  0.00    +0.000 C 
ATOM     27  O   UNL     1       0.340  13.468  18.340  0.00  0.00    +0.000 OA
BRANCH  26  28
ATOM     28  O   UNL     1       2.349  13.072  17.407  0.00  0.00    +0.000 OA
ATOM     29  H   UNL     1       1.997  13.320  16.531  0.00  0.00    +0.000 HD
ENDBRANCH  26  28
ENDBRANCH  25  26
ENDBRANCH  12  25
TORSDOF 8
ENDMDL
MODEL 4
REMARK VINA RESULT:      -7.8      6.489      9.024
REMARK  Name = 
REMARK  9 active torsions:
REMARK  status: ('A' for Active; 'I' for Inactive)
REMARK    1  A    between atoms: C_1  and  O_2
REMARK    2  A    between atoms: O_2  and  C_3
REMARK    3  A    between atoms: C_6  and  C_7
REMARK    4  A    between atoms: C_7  and  O_8
REMARK    5  A    between atoms: O_8  and  C_9
REMARK    6  A    between atoms: C_20  and  C_21
REMARK    7  A    between atoms: C_21  and  C_22
REMARK    8  A    between atoms: C_22  and  O_24
REMARK    9  A    between atoms: C_26  and  C_27
REMARK                            x       y       z     vdW  Elec       q    Type
REMARK                         _______ _______ _______ _____ _____    ______ ____
ROOT
ATOM      1  C   UNL     1       0.799   9.805  19.892  0.00  0.00    +0.000 A 
ATOM      2  C   UNL     1       0.633   8.967  20.995  0.00  0.00    +0.000 A 
ATOM      3  C   UNL     1       1.189   7.682  21.020  0.00  0.00    +0.000 A 
ATOM      4  C   UNL     1       1.918   7.275  19.896  0.00  0.00    +0.000 A 
ATOM      5  C   UNL     1       2.076   8.082  18.762  0.00  0.00    +0.000 A 
ATOM      6  C   UNL     1       1.484   9.357  18.756  0.00  0.00    +0.000 A 
ATOM      7  C   UNL     1       2.888   7.376  17.815  0.00  0.00    +0.000 A 
ATOM      8  C   UNL     1       3.220   6.187  18.406  0.00  0.00    +0.000 A 
ATOM      9  N   UNL     1       2.603   6.138  19.620  0.00  0.00    +0.000 N 
ATOM     10  C   UNL     1       2.873   4.929  20.365  0.00  0.00    +0.000 C 
ATOM     11  C   UNL     1       4.009   4.281  19.562  0.00  0.00    +0.000 C 
ATOM     12  C   UNL     1       4.061   4.985  18.168  0.00  0.00    +0.000 C 
ENDROOT
BRANCH   1  13
ATOM     13  O   UNL     1       0.259  11.060  20.009  0.00  0.00    +0.000 OA
BRANCH  13  14
ATOM     14  C   UNL     1       0.061  11.740  18.764  0.00  0.00    +0.000 C 
BRANCH  14  18
ATOM     15  C   UNL     1      -4.066  11.268  17.553  0.00  0.00    +0.000 A 
ATOM     16  C   UNL     1      -3.752  11.823  18.804  0.00  0.00    +0.000 A 
ATOM     17  C   UNL     1      -2.424  11.987  19.209  0.00  0.00    +0.000 A 
ATOM     18  C   UNL     1      -1.383  11.604  18.362  0.00  0.00    +0.000 A 
ATOM     19  C   UNL     1      -1.696  11.060  17.111  0.00  0.00    +0.000 A 
ATOM     20  C   UNL     1      -3.023  10.907  16.691  0.00  0.00    +0.000 A 
BRANCH  15  22
ATOM     21  C   UNL     1      -6.279  11.685  18.339  0.00  0.00    +0.000 C 
ATOM     22  O   UNL     1      -5.414  11.218  17.308  0.00  0.00    +0.000 OA
ENDBRANCH  15  22
BRANCH  20  23
ATOM     23  C   UNL     1      -3.211  10.441  15.354  0.00  0.00    +0.000 C 
ATOM     24  N   UNL     1      -3.375  10.102  14.254  0.00  0.00    +0.000 NA
ENDBRANCH  20  23
ENDBRANCH  14  18
ENDBRANCH  13  14
ENDBRANCH   1  13
BRANCH  12  25
ATOM     25  C   UNL     1       3.538   4.118  17.023  0.00  0.00    +0.000 C 
BRANCH  25  26
ATOM     26  C   UNL     1       2.344   3.294  17.451  0.00  0.00    +0.000 C 
ATOM     27  O   UNL     1       1.207   3.716  17.585  0.00  0.00    +0.000 OA
BRANCH  26  28
ATOM     28  O   UNL     1       2.659   1.998  17.672  0.00  0.00    +0.000 OA
ATOM     29  H   UNL     1       2.684   1.750  18.616  0.00  0.00    +0.000 HD
ENDBRANCH  26  28
ENDBRANCH  25  26
ENDBRANCH  12  25
TORSDOF 8
ENDMDL
MODEL 5
REMARK VINA RESULT:      -7.8      6.284      8.759
REMARK  Name = 
REMARK  9 active torsions:
REMARK  status: ('A' for Active; 'I' for Inactive)
REMARK    1  A    between atoms: C_1  and  O_2
REMARK    2  A    between atoms: O_2  and  C_3
REMARK    3  A    between atoms: C_6  and  C_7
REMARK    4  A    between atoms: C_7  and  O_8
REMARK    5  A    between atoms: O_8  and  C_9
REMARK    6  A    between atoms: C_20  and  C_21
REMARK    7  A    between atoms: C_21  and  C_22
REMARK    8  A    between atoms: C_22  and  O_24
REMARK    9  A    between atoms: C_26  and  C_27
REMARK                            x       y       z     vdW  Elec       q    Type
REMARK                         _______ _______ _______ _____ _____    ______ ____
ROOT
ATOM      1  C   UNL     1       1.411   9.462  18.858  0.00  0.00    +0.000 A 
ATOM      2  C   UNL     1       1.148   8.886  20.101  0.00  0.00    +0.000 A 
ATOM      3  C   UNL     1       1.608   7.602  20.418  0.00  0.00    +0.000 A 
ATOM      4  C   UNL     1       2.342   6.923  19.438  0.00  0.00    +0.000 A 
ATOM      5  C   UNL     1       2.595   7.462  18.170  0.00  0.00    +0.000 A 
ATOM      6  C   UNL     1       2.098   8.743  17.873  0.00  0.00    +0.000 A 
ATOM      7  C   UNL     1       3.384   6.522  17.430  0.00  0.00    +0.000 A 
ATOM      8  C   UNL     1       3.609   5.465  18.268  0.00  0.00    +0.000 A 
ATOM      9  N   UNL     1       2.951   5.712  19.436  0.00  0.00    +0.000 N 
ATOM     10  C   UNL     1       3.107   4.671  20.427  0.00  0.00    +0.000 C 
ATOM     11  C   UNL     1       4.219   3.797  19.830  0.00  0.00    +0.000 C 
ATOM     12  C   UNL     1       4.367   4.188  18.324  0.00  0.00    +0.000 C 
ENDROOT
BRANCH   1  13
ATOM     13  O   UNL     1       0.960  10.746  18.687  0.00  0.00    +0.000 OA
BRANCH  13  14
ATOM     14  C   UNL     1      -0.009  11.169  19.654  0.00  0.00    +0.000 C 
BRANCH  14  18
ATOM     15  C   UNL     1      -3.825  11.508  17.644  0.00  0.00    +0.000 A 
ATOM     16  C   UNL     1      -3.660  12.013  18.944  0.00  0.00    +0.000 A 
ATOM     17  C   UNL     1      -2.432  11.916  19.606  0.00  0.00    +0.000 A 
ATOM     18  C   UNL     1      -1.342  11.317  18.973  0.00  0.00    +0.000 A 
ATOM     19  C   UNL     1      -1.505  10.821  17.674  0.00  0.00    +0.000 A 
ATOM     20  C   UNL     1      -2.726  10.929  16.998  0.00  0.00    +0.000 A 
BRANCH  15  22
ATOM     21  C   UNL     1      -6.185  11.352  17.957  0.00  0.00    +0.000 C 
ATOM     22  O   UNL     1      -5.080  11.724  17.137  0.00  0.00    +0.000 OA
ENDBRANCH  15  22
BRANCH  20  23
ATOM     23  C   UNL     1      -2.737  10.484  15.640  0.00  0.00    +0.000 C 
ATOM     24  N   UNL     1      -2.750  10.163  14.523  0.00  0.00    +0.000 NA
ENDBRANCH  20  23
ENDBRANCH  14  18
ENDBRANCH  13  14
ENDBRANCH   1  13
BRANCH  12  25
ATOM     25  C   UNL     1       3.820   3.135  17.360  0.00  0.00    +0.000 C 
BRANCH  25  26
ATOM     26  C   UNL     1       3.270   1.937  18.101  0.00  0.00    +0.000 C 
ATOM     27  O   UNL     1       2.137   1.839  18.543  0.00  0.00    +0.000 OA
BRANCH  26  28
ATOM     28  O   UNL     1       4.177   0.942  18.226  0.00  0.00    +0.000 OA
ATOM     29  H   UNL     1       3.858   0.175  18.740  0.00  0.00    +0.000 HD
ENDBRANCH  26  28
ENDBRANCH  25  26
ENDBRANCH  12  25
TORSDOF 8
ENDMDL
MODEL 6
REMARK VINA RESULT:      -7.8      4.880      8.053
REMARK  Name = 
REMARK  9 active torsions:
REMARK  status: ('A' for Active; 'I' for Inactive)
REMARK    1  A    between atoms: C_1  and  O_2
REMARK    2  A    between atoms: O_2  and  C_3
REMARK    3  A    between atoms: C_6  and  C_7
REMARK    4  A    between atoms: C_7  and  O_8
REMARK    5  A    between atoms: O_8  and  C_9
REMARK    6  A    between atoms: C_20  and  C_21
REMARK    7  A    between atoms: C_21  and  C_22
REMARK    8  A    between atoms: C_22  and  O_24
REMARK    9  A    between atoms: C_26  and  C_27
REMARK                            x       y       z     vdW  Elec       q    Type
REMARK                         _______ _______ _______ _____ _____    ______ ____
ROOT
ATOM      1  C   UNL     1       2.424   5.719  19.134  0.00  0.00    +0.000 A 
ATOM      2  C   UNL     1       2.023   5.936  20.453  0.00  0.00    +0.000 A 
ATOM      3  C   UNL     1       1.575   7.193  20.878  0.00  0.00    +0.000 A 
ATOM      4  C   UNL     1       1.545   8.220  19.927  0.00  0.00    +0.000 A 
ATOM      5  C   UNL     1       1.971   8.040  18.604  0.00  0.00    +0.000 A 
ATOM      6  C   UNL     1       2.439   6.774  18.214  0.00  0.00    +0.000 A 
ATOM      7  C   UNL     1       1.788   9.276  17.900  0.00  0.00    +0.000 A 
ATOM      8  C   UNL     1       1.237  10.150  18.797  0.00  0.00    +0.000 A 
ATOM      9  N   UNL     1       1.138   9.511  19.996  0.00  0.00    +0.000 N 
ATOM     10  C   UNL     1       0.562  10.321  21.045  0.00  0.00    +0.000 C 
ATOM     11  C   UNL     1       0.025  11.538  20.279  0.00  0.00    +0.000 C 
ATOM     12  C   UNL     1       0.679  11.527  18.860  0.00  0.00    +0.000 C 
ENDROOT
BRANCH   1  13
ATOM     13  O   UNL     1       2.785   4.433  18.824  0.00  0.00    +0.000 OA
BRANCH  13  14
ATOM     14  C   UNL     1       4.133   4.095  19.170  0.00  0.00    +0.000 C 
BRANCH  14  18
ATOM     15  C   UNL     1       6.815   5.356  16.018  0.00  0.00    +0.000 A 
ATOM     16  C   UNL     1       5.974   4.247  15.832  0.00  0.00    +0.000 A 
ATOM     17  C   UNL     1       5.098   3.829  16.839  0.00  0.00    +0.000 A 
ATOM     18  C   UNL     1       5.043   4.522  18.049  0.00  0.00    +0.000 A 
ATOM     19  C   UNL     1       5.875   5.632  18.230  0.00  0.00    +0.000 A 
ATOM     20  C   UNL     1       6.744   6.067  17.222  0.00  0.00    +0.000 A 
BRANCH  15  22
ATOM     21  C   UNL     1       7.320   4.893  13.732  0.00  0.00    +0.000 C 
ATOM     22  O   UNL     1       7.578   5.644  14.915  0.00  0.00    +0.000 OA
ENDBRANCH  15  22
BRANCH  20  23
ATOM     23  C   UNL     1       7.462   7.274  17.485  0.00  0.00    +0.000 C 
ATOM     24  N   UNL     1       8.076   8.232  17.720  0.00  0.00    +0.000 NA
ENDBRANCH  20  23
ENDBRANCH  14  18
ENDBRANCH  13  14
ENDBRANCH   1  13
BRANCH  12  25
ATOM     25  C   UNL     1       1.746  12.604  18.667  0.00  0.00    +0.000 C 
BRANCH  25  26
ATOM     26  C   UNL     1       1.290  13.940  19.210  0.00  0.00    +0.000 C 
ATOM     27  O   UNL     1       1.821  14.549  20.124  0.00  0.00    +0.000 OA
BRANCH  26  28
ATOM     28  O   UNL     1       0.206  14.422  18.562  0.00  0.00    +0.000 OA
ATOM     29  H   UNL     1       0.339  14.550  17.604  0.00  0.00    +0.000 HD
ENDBRANCH  26  28
ENDBRANCH  25  26
ENDBRANCH  12  25
TORSDOF 8
ENDMDL
MODEL 7
REMARK VINA RESULT:      -7.8      7.633     11.075
REMARK  Name = 
REMARK  9 active torsions:
REMARK  status: ('A' for Active; 'I' for Inactive)
REMARK    1  A    between atoms: C_1  and  O_2
REMARK    2  A    between atoms: O_2  and  C_3
REMARK    3  A    between atoms: C_6  and  C_7
REMARK    4  A    between atoms: C_7  and  O_8
REMARK    5  A    between atoms: O_8  and  C_9
REMARK    6  A    between atoms: C_20  and  C_21
REMARK    7  A    between atoms: C_21  and  C_22
REMARK    8  A    between atoms: C_22  and  O_24
REMARK    9  A    between atoms: C_26  and  C_27
REMARK                            x       y       z     vdW  Elec       q    Type
REMARK                         _______ _______ _______ _____ _____    ______ ____
ROOT
ATOM      1  C   UNL     1       0.717   8.948  20.956  0.00  0.00    +0.000 A 
ATOM      2  C   UNL     1       0.611   9.667  19.765  0.00  0.00    +0.000 A 
ATOM      3  C   UNL     1      -0.131  10.853  19.697  0.00  0.00    +0.000 A 
ATOM      4  C   UNL     1      -0.758  11.286  20.871  0.00  0.00    +0.000 A 
ATOM      5  C   UNL     1      -0.696  10.569  22.073  0.00  0.00    +0.000 A 
ATOM      6  C   UNL     1       0.036   9.370  22.103  0.00  0.00    +0.000 A 
ATOM      7  C   UNL     1      -1.423  11.298  23.071  0.00  0.00    +0.000 A 
ATOM      8  C   UNL     1      -1.876  12.436  22.462  0.00  0.00    +0.000 A 
ATOM      9  N   UNL     1      -1.500  12.385  21.152  0.00  0.00    +0.000 N 
ATOM     10  C   UNL     1      -1.910  13.537  20.381  0.00  0.00    +0.000 C 
ATOM     11  C   UNL     1      -2.392  14.516  21.462  0.00  0.00    +0.000 C 
ATOM     12  C   UNL     1      -2.587  13.702  22.781  0.00  0.00    +0.000 C 
ENDROOT
BRANCH   1  13
ATOM     13  O   UNL     1       1.519   7.836  20.912  0.00  0.00    +0.000 OA
BRANCH  13  14
ATOM     14  C   UNL     1       2.154   7.612  19.648  0.00  0.00    +0.000 C 
BRANCH  14  18
ATOM     15  C   UNL     1       3.533   3.512  19.555  0.00  0.00    +0.000 A 
ATOM     16  C   UNL     1       4.096   4.470  18.696  0.00  0.00    +0.000 A 
ATOM     17  C   UNL     1       3.665   5.800  18.717  0.00  0.00    +0.000 A 
ATOM     18  C   UNL     1       2.666   6.197  19.606  0.00  0.00    +0.000 A 
ATOM     19  C   UNL     1       2.111   5.243  20.467  0.00  0.00    +0.000 A 
ATOM     20  C   UNL     1       2.547   3.913  20.465  0.00  0.00    +0.000 A 
BRANCH  15  22
ATOM     21  C   UNL     1       3.619   1.442  18.371  0.00  0.00    +0.000 C 
ATOM     22  O   UNL     1       4.101   2.271  19.425  0.00  0.00    +0.000 OA
ENDBRANCH  15  22
BRANCH  20  23
ATOM     23  C   UNL     1       1.982   3.062  21.463  0.00  0.00    +0.000 C 
ATOM     24  N   UNL     1       1.524   2.402  22.303  0.00  0.00    +0.000 NA
ENDBRANCH  20  23
ENDBRANCH  14  18
ENDBRANCH  13  14
ENDBRANCH   1  13
BRANCH  12  25
ATOM     25  C   UNL     1      -4.052  13.476  23.153  0.00  0.00    +0.000 C 
BRANCH  25  26
ATOM     26  C   UNL     1      -4.195  12.992  24.579  0.00  0.00    +0.000 C 
ATOM     27  O   UNL     1      -4.634  11.904  24.915  0.00  0.00    +0.000 OA
BRANCH  26  28
ATOM     28  O   UNL     1      -3.769  13.904  25.482  0.00  0.00    +0.000 OA
ATOM     29  H   UNL     1      -4.267  14.743  25.465  0.00  0.00    +0.000 HD
ENDBRANCH  26  28
ENDBRANCH  25  26
ENDBRANCH  12  25
TORSDOF 8
ENDMDL
MODEL 8
REMARK VINA RESULT:      -7.8      1.746      1.883
REMARK  Name = 
REMARK  9 active torsions:
REMARK  status: ('A' for Active; 'I' for Inactive)
REMARK    1  A    between atoms: C_1  and  O_2
REMARK    2  A    between atoms: O_2  and  C_3
REMARK    3  A    between atoms: C_6  and  C_7
REMARK    4  A    between atoms: C_7  and  O_8
REMARK    5  A    between atoms: O_8  and  C_9
REMARK    6  A    between atoms: C_20  and  C_21
REMARK    7  A    between atoms: C_21  and  C_22
REMARK    8  A    between atoms: C_22  and  O_24
REMARK    9  A    between atoms: C_26  and  C_27
REMARK                            x       y       z     vdW  Elec       q    Type
REMARK                         _______ _______ _______ _____ _____    ______ ____
ROOT
ATOM      1  C   UNL     1       7.734   7.176  18.363  0.00  0.00    +0.000 A 
ATOM      2  C   UNL     1       7.949   6.151  19.285  0.00  0.00    +0.000 A 
ATOM      3  C   UNL     1       7.036   5.099  19.427  0.00  0.00    +0.000 A 
ATOM      4  C   UNL     1       5.902   5.117  18.607  0.00  0.00    +0.000 A 
ATOM      5  C   UNL     1       5.643   6.148  17.694  0.00  0.00    +0.000 A 
ATOM      6  C   UNL     1       6.566   7.203  17.592  0.00  0.00    +0.000 A 
ATOM      7  C   UNL     1       4.421   5.845  17.008  0.00  0.00    +0.000 A 
ATOM      8  C   UNL     1       3.994   4.641  17.496  0.00  0.00    +0.000 A 
ATOM      9  N   UNL     1       4.869   4.251  18.466  0.00  0.00    +0.000 N 
ATOM     10  C   UNL     1       4.542   2.980  19.072  0.00  0.00    +0.000 C 
ATOM     11  C   UNL     1       3.442   2.437  18.149  0.00  0.00    +0.000 C 
ATOM     12  C   UNL     1       2.932   3.625  17.273  0.00  0.00    +0.000 C 
ENDROOT
BRANCH   1  13
ATOM     13  O   UNL     1       8.727   8.117  18.273  0.00  0.00    +0.000 OA
BRANCH  13  14
ATOM     14  C   UNL     1       8.282   9.411  17.850  0.00  0.00    +0.000 C 
BRANCH  14  18
ATOM     15  C   UNL     1      10.866  12.369  19.666  0.00  0.00    +0.000 A 
ATOM     16  C   UNL     1      11.061  11.979  18.331  0.00  0.00    +0.000 A 
ATOM     17  C   UNL     1      10.232  11.028  17.727  0.00  0.00    +0.000 A 
ATOM     18  C   UNL     1       9.184  10.455  18.450  0.00  0.00    +0.000 A 
ATOM     19  C   UNL     1       8.985  10.851  19.777  0.00  0.00    +0.000 A 
ATOM     20  C   UNL     1       9.800  11.814  20.384  0.00  0.00    +0.000 A 
BRANCH  15  22
ATOM     21  C   UNL     1      11.583  14.640  19.527  0.00  0.00    +0.000 C 
ATOM     22  O   UNL     1      11.745  13.336  20.079  0.00  0.00    +0.000 OA
ENDBRANCH  15  22
BRANCH  20  23
ATOM     23  C   UNL     1       9.429  12.212  21.706  0.00  0.00    +0.000 C 
ATOM     24  N   UNL     1       9.114  12.574  22.764  0.00  0.00    +0.000 NA
ENDBRANCH  20  23
ENDBRANCH  14  18
ENDBRANCH  13  14
ENDBRANCH   1  13
BRANCH  12  25
ATOM     25  C   UNL     1       1.544   4.128  17.669  0.00  0.00    +0.000 C 
BRANCH  25  26
ATOM     26  C   UNL     1       0.988   3.355  18.844  0.00  0.00    +0.000 C 
ATOM     27  O   UNL     1       1.144   3.645  20.019  0.00  0.00    +0.000 OA
BRANCH  26  28
ATOM     28  O   UNL     1       0.268   2.276  18.461  0.00  0.00    +0.000 OA
ATOM     29  H   UNL     1       0.775   1.622  17.944  0.00  0.00    +0.000 HD
ENDBRANCH  26  28
ENDBRANCH  25  26
ENDBRANCH  12  25
TORSDOF 8
ENDMDL
MODEL 9
REMARK VINA RESULT:      -7.8      6.286      8.820
REMARK  Name = 
REMARK  9 active torsions:
REMARK  status: ('A' for Active; 'I' for Inactive)
REMARK    1  A    between atoms: C_1  and  O_2
REMARK    2  A    between atoms: O_2  and  C_3
REMARK    3  A    between atoms: C_6  and  C_7
REMARK    4  A    between atoms: C_7  and  O_8
REMARK    5  A    between atoms: O_8  and  C_9
REMARK    6  A    between atoms: C_20  and  C_21
REMARK    7  A    between atoms: C_21  and  C_22
REMARK    8  A    between atoms: C_22  and  O_24
REMARK    9  A    between atoms: C_26  and  C_27
REMARK                            x       y       z     vdW  Elec       q    Type
REMARK                         _______ _______ _______ _____ _____    ______ ____
ROOT
ATOM      1  C   UNL     1       2.076   7.610  19.596  0.00  0.00    +0.000 A 
ATOM      2  C   UNL     1       2.014   8.308  18.389  0.00  0.00    +0.000 A 
ATOM      3  C   UNL     1       1.321   9.521  18.288  0.00  0.00    +0.000 A 
ATOM      4  C   UNL     1       0.696  10.002  19.444  0.00  0.00    +0.000 A 
ATOM      5  C   UNL     1       0.714   9.308  20.661  0.00  0.00    +0.000 A 
ATOM      6  C   UNL     1       1.397   8.081  20.725  0.00  0.00    +0.000 A 
ATOM      7  C   UNL     1       0.003  10.085  21.633  0.00  0.00    +0.000 A 
ATOM      8  C   UNL     1      -0.397  11.227  20.995  0.00  0.00    +0.000 A 
ATOM      9  N   UNL     1      -0.006  11.135  19.692  0.00  0.00    +0.000 N 
ATOM     10  C   UNL     1      -0.360  12.286  18.892  0.00  0.00    +0.000 C 
ATOM     11  C   UNL     1      -0.817  13.304  19.946  0.00  0.00    +0.000 C 
ATOM     12  C   UNL     1      -1.061  12.526  21.279  0.00  0.00    +0.000 C 
ENDROOT
BRANCH   1  13
ATOM     13  O   UNL     1       2.834   6.467  19.586  0.00  0.00    +0.000 OA
BRANCH  13  14
ATOM     14  C   UNL     1       2.554   5.579  18.497  0.00  0.00    +0.000 C 
BRANCH  14  18
ATOM     15  C   UNL     1       6.251   4.966  16.335  0.00  0.00    +0.000 A 
ATOM     16  C   UNL     1       5.198   4.045  16.215  0.00  0.00    +0.000 A 
ATOM     17  C   UNL     1       3.995   4.230  16.904  0.00  0.00    +0.000 A 
ATOM     18  C   UNL     1       3.822   5.349  17.719  0.00  0.00    +0.000 A 
ATOM     19  C   UNL     1       4.869   6.271  17.831  0.00  0.00    +0.000 A 
ATOM     20  C   UNL     1       6.070   6.102  17.133  0.00  0.00    +0.000 A 
BRANCH  15  22
ATOM     21  C   UNL     1       7.210   4.830  14.154  0.00  0.00    +0.000 C 
ATOM     22  O   UNL     1       7.337   4.646  15.562  0.00  0.00    +0.000 OA
ENDBRANCH  15  22
BRANCH  20  23
ATOM     23  C   UNL     1       7.019   7.164  17.243  0.00  0.00    +0.000 C 
ATOM     24  N   UNL     1       7.823   8.000  17.323  0.00  0.00    +0.000 NA
ENDBRANCH  20  23
ENDBRANCH  14  18
ENDBRANCH  13  14
ENDBRANCH   1  13
BRANCH  12  25
ATOM     25  C   UNL     1      -2.539  12.366  21.634  0.00  0.00    +0.000 C 
BRANCH  25  26
ATOM     26  C   UNL     1      -2.780  12.574  23.113  0.00  0.00    +0.000 C 
ATOM     27  O   UNL     1      -3.436  11.838  23.832  0.00  0.00    +0.000 OA
BRANCH  26  28
ATOM     28  O   UNL     1      -2.173  13.685  23.587  0.00  0.00    +0.000 OA
ATOM     29  H   UNL     1      -2.791  14.384  23.875  0.00  0.00    +0.000 HD
ENDBRANCH  26  28
ENDBRANCH  25  26
ENDBRANCH  12  25
TORSDOF 8
ENDMDL
