MODEL 1
REMARK VINA RESULT:      -8.9      0.000      0.000
REMARK  Name = 
REMARK  4 active torsions:
REMARK  status: ('A' for Active; 'I' for Inactive)
REMARK    1  A    between atoms: C_4  and  C_5
REMARK    2  A    between atoms: C_17  and  C_18
REMARK    3  A    between atoms: C_18  and  N_19
REMARK    4  A    between atoms: N_19  and  N_20
REMARK                            x       y       z     vdW  Elec       q    Type
REMARK                         _______ _______ _______ _____ _____    ______ ____
ROOT
ATOM      1  N   UNL     1       4.710   2.341  20.033  0.00  0.00    +0.000 N 
ATOM      2  C   UNL     1       4.522   3.492  19.301  0.00  0.00    +0.000 A 
ATOM      3  N   UNL     1       5.160   3.574  18.116  0.00  0.00    +0.000 NA
ATOM      4  C   UNL     1       4.979   4.679  17.342  0.00  0.00    +0.000 A 
ATOM      5  C   UNL     1       4.132   5.657  17.786  0.00  0.00    +0.000 A 
ATOM      6  C   UNL     1       3.561   5.504  19.040  0.00  0.00    +0.000 A 
ATOM      7  N   UNL     1       3.739   4.441  19.830  0.00  0.00    +0.000 NA
ATOM      8  C   UNL     1       2.743   6.655  19.366  0.00  0.00    +0.000 A 
ATOM      9  C   UNL     1       1.996   6.994  20.486  0.00  0.00    +0.000 A 
ATOM     10  C   UNL     1       1.300   8.226  20.500  0.00  0.00    +0.000 A 
ATOM     11  C   UNL     1       1.387   9.098  19.384  0.00  0.00    +0.000 A 
ATOM     12  C   UNL     1       2.134   8.755  18.257  0.00  0.00    +0.000 A 
ATOM     13  C   UNL     1       2.782   7.537  18.281  0.00  0.00    +0.000 A 
ATOM     14  C   UNL     1       3.621   6.935  17.236  0.00  0.00    +0.000 C 
ATOM     15  O   UNL     1       3.799   7.408  16.136  0.00  0.00    +0.000 OA
ATOM     16  H   UNL     1       5.566   1.879  19.764  0.00  0.00    +0.000 HD
ATOM     17  H   UNL     1       4.557   2.508  21.017  0.00  0.00    +0.000 HD
ENDROOT
BRANCH   4  18
ATOM     18  C   UNL     1       5.737   4.701  16.071  0.00  0.00    +0.000 A 
ATOM     19  C   UNL     1       5.268   4.011  14.934  0.00  0.00    +0.000 A 
ATOM     20  C   UNL     1       5.959   4.052  13.716  0.00  0.00    +0.000 A 
ATOM     21  C   UNL     1       7.130   4.789  13.616  0.00  0.00    +0.000 A 
ATOM     22  F   UNL     1       7.781   4.848  12.447  0.00  0.00    +0.000 F 
ATOM     23  C   UNL     1       7.640   5.455  14.716  0.00  0.00    +0.000 A 
ATOM     24  C   UNL     1       6.961   5.386  15.937  0.00  0.00    +0.000 A 
ENDBRANCH   4  18
BRANCH  10  25
ATOM     25  C   UNL     1       0.448   8.627  21.702  0.00  0.00    +0.000 C 
BRANCH  25  26
ATOM     26  N   UNL     1       1.036   9.781  22.386  0.00  0.00    +0.000 NA
ATOM     27  H   UNL     1       1.865  10.079  21.867  0.00  0.00    +0.000 HD
BRANCH  26  28
ATOM     28  N   UNL     1       0.171  10.899  22.607  0.00  0.00    +0.000 NA
ATOM     29  C   UNL     1       0.007  11.889  21.554  0.00  0.00    +0.000 C 
ATOM     30  C   UNL     1      -0.921  12.851  22.278  0.00  0.00    +0.000 C 
ATOM     31  C   UNL     1      -1.904  11.921  22.984  0.00  0.00    +0.000 C 
ATOM     32  C   UNL     1      -1.136  10.609  23.185  0.00  0.00    +0.000 C 
ENDBRANCH  26  28
ENDBRANCH  25  26
ENDBRANCH  10  25
TORSDOF 4
ENDMDL
MODEL 2
REMARK VINA RESULT:      -8.8      1.208      1.726
REMARK  Name = 
REMARK  4 active torsions:
REMARK  status: ('A' for Active; 'I' for Inactive)
REMARK    1  A    between atoms: C_4  and  C_5
REMARK    2  A    between atoms: C_17  and  C_18
REMARK    3  A    between atoms: C_18  and  N_19
REMARK    4  A    between atoms: N_19  and  N_20
REMARK                            x       y       z     vdW  Elec       q    Type
REMARK                         _______ _______ _______ _____ _____    ______ ____
ROOT
ATOM      1  N   UNL     1       2.818   2.810  21.287  0.00  0.00    +0.000 N 
ATOM      2  C   UNL     1       2.915   3.965  20.544  0.00  0.00    +0.000 A 
ATOM      3  N   UNL     1       3.748   3.943  19.484  0.00  0.00    +0.000 NA
ATOM      4  C   UNL     1       3.852   5.051  18.700  0.00  0.00    +0.000 A 
ATOM      5  C   UNL     1       3.084   6.142  19.005  0.00  0.00    +0.000 A 
ATOM      6  C   UNL     1       2.296   6.085  20.145  0.00  0.00    +0.000 A 
ATOM      7  N   UNL     1       2.192   5.019  20.943  0.00  0.00    +0.000 NA
ATOM      8  C   UNL     1       1.600   7.342  20.339  0.00  0.00    +0.000 A 
ATOM      9  C   UNL     1       0.730   7.795  21.321  0.00  0.00    +0.000 A 
ATOM     10  C   UNL     1       0.216   9.111  21.230  0.00  0.00    +0.000 A 
ATOM     11  C   UNL     1       0.607   9.947  20.152  0.00  0.00    +0.000 A 
ATOM     12  C   UNL     1       1.478   9.490  19.162  0.00  0.00    +0.000 A 
ATOM     13  C   UNL     1       1.940   8.195  19.284  0.00  0.00    +0.000 A 
ATOM     14  C   UNL     1       2.852   7.470  18.389  0.00  0.00    +0.000 C 
ATOM     15  O   UNL     1       3.275   7.899  17.339  0.00  0.00    +0.000 OA
ATOM     16  H   UNL     1       3.637   2.231  21.161  0.00  0.00    +0.000 HD
ATOM     17  H   UNL     1       2.528   3.010  22.233  0.00  0.00    +0.000 HD
ENDROOT
BRANCH   4  18
ATOM     18  C   UNL     1       4.807   4.952  17.575  0.00  0.00    +0.000 A 
ATOM     19  C   UNL     1       4.553   4.102  16.479  0.00  0.00    +0.000 A 
ATOM     20  C   UNL     1       5.433   4.025  15.393  0.00  0.00    +0.000 A 
ATOM     21  C   UNL     1       6.582   4.801  15.383  0.00  0.00    +0.000 A 
ATOM     22  F   UNL     1       7.415   4.746  14.335  0.00  0.00    +0.000 F 
ATOM     23  C   UNL     1       6.884   5.626  16.453  0.00  0.00    +0.000 A 
ATOM     24  C   UNL     1       6.016   5.676  17.548  0.00  0.00    +0.000 A 
ENDBRANCH   4  18
BRANCH  10  25
ATOM     25  C   UNL     1      -0.762   9.642  22.275  0.00  0.00    +0.000 C 
BRANCH  25  26
ATOM     26  N   UNL     1      -0.145  10.715  23.057  0.00  0.00    +0.000 NA
ATOM     27  H   UNL     1       0.784  10.903  22.675  0.00  0.00    +0.000 HD
BRANCH  26  28
ATOM     28  N   UNL     1      -0.887  11.935  23.159  0.00  0.00    +0.000 NA
ATOM     29  C   UNL     1      -0.573  13.034  22.261  0.00  0.00    +0.000 C 
ATOM     30  C   UNL     1      -1.557  14.063  22.795  0.00  0.00    +0.000 C 
ATOM     31  C   UNL     1      -2.825  13.244  23.024  0.00  0.00    +0.000 C 
ATOM     32  C   UNL     1      -2.336  11.810  23.261  0.00  0.00    +0.000 C 
ENDBRANCH  26  28
ENDBRANCH  25  26
ENDBRANCH  10  25
TORSDOF 4
ENDMDL
MODEL 3
REMARK VINA RESULT:      -8.6      0.621      1.101
REMARK  Name = 
REMARK  4 active torsions:
REMARK  status: ('A' for Active; 'I' for Inactive)
REMARK    1  A    between atoms: C_4  and  C_5
REMARK    2  A    between atoms: C_17  and  C_18
REMARK    3  A    between atoms: C_18  and  N_19
REMARK    4  A    between atoms: N_19  and  N_20
REMARK                            x       y       z     vdW  Elec       q    Type
REMARK                         _______ _______ _______ _____ _____    ______ ____
ROOT
ATOM      1  N   UNL     1       3.886   2.550  20.269  0.00  0.00    +0.000 N 
ATOM      2  C   UNL     1       3.839   3.708  19.527  0.00  0.00    +0.000 A 
ATOM      3  N   UNL     1       4.530   3.721  18.369  0.00  0.00    +0.000 NA
ATOM      4  C   UNL     1       4.488   4.833  17.584  0.00  0.00    +0.000 A 
ATOM      5  C   UNL     1       3.720   5.891  17.990  0.00  0.00    +0.000 A 
ATOM      6  C   UNL     1       3.087   5.801  19.221  0.00  0.00    +0.000 A 
ATOM      7  N   UNL     1       3.130   4.731  20.020  0.00  0.00    +0.000 NA
ATOM      8  C   UNL     1       2.371   7.028  19.509  0.00  0.00    +0.000 A 
ATOM      9  C   UNL     1       1.615   7.444  20.596  0.00  0.00    +0.000 A 
ATOM     10  C   UNL     1       1.040   8.738  20.579  0.00  0.00    +0.000 A 
ATOM     11  C   UNL     1       1.255   9.590  19.465  0.00  0.00    +0.000 A 
ATOM     12  C   UNL     1       2.011   9.169  18.369  0.00  0.00    +0.000 A 
ATOM     13  C   UNL     1       2.538   7.895  18.424  0.00  0.00    +0.000 A 
ATOM     14  C   UNL     1       3.357   7.208  17.417  0.00  0.00    +0.000 C 
ATOM     15  O   UNL     1       3.624   7.654  16.323  0.00  0.00    +0.000 OA
ATOM     16  H   UNL     1       4.705   2.006  20.037  0.00  0.00    +0.000 HD
ATOM     17  H   UNL     1       3.710   2.738  21.245  0.00  0.00    +0.000 HD
ENDROOT
BRANCH   4  18
ATOM     18  C   UNL     1       5.295   4.774  16.346  0.00  0.00    +0.000 A 
ATOM     19  C   UNL     1       6.610   5.280  16.312  0.00  0.00    +0.000 A 
ATOM     20  C   UNL     1       7.396   5.200  15.155  0.00  0.00    +0.000 A 
ATOM     21  C   UNL     1       6.879   4.607  14.013  0.00  0.00    +0.000 A 
ATOM     22  F   UNL     1       7.635   4.509  12.912  0.00  0.00    +0.000 F 
ATOM     23  C   UNL     1       5.581   4.126  13.995  0.00  0.00    +0.000 A 
ATOM     24  C   UNL     1       4.792   4.235  15.145  0.00  0.00    +0.000 A 
ENDBRANCH   4  18
BRANCH  10  25
ATOM     25  C   UNL     1       0.182   9.227  21.743  0.00  0.00    +0.000 C 
BRANCH  25  26
ATOM     26  N   UNL     1       0.670  10.518  22.233  0.00  0.00    +0.000 NA
ATOM     27  H   UNL     1       1.158  10.992  21.470  0.00  0.00    +0.000 HD
BRANCH  26  28
ATOM     28  N   UNL     1      -0.309  11.392  22.804  0.00  0.00    +0.000 NA
ATOM     29  C   UNL     1      -0.556  12.683  22.182  0.00  0.00    +0.000 C 
ATOM     30  C   UNL     1      -1.589  13.221  23.160  0.00  0.00    +0.000 C 
ATOM     31  C   UNL     1      -2.483  12.012  23.420  0.00  0.00    +0.000 C 
ATOM     32  C   UNL     1      -1.588  10.793  23.165  0.00  0.00    +0.000 C 
ENDBRANCH  26  28
ENDBRANCH  25  26
ENDBRANCH  10  25
TORSDOF 4
ENDMDL
MODEL 4
REMARK VINA RESULT:      -8.5      1.265      2.166
REMARK  Name = 
REMARK  4 active torsions:
REMARK  status: ('A' for Active; 'I' for Inactive)
REMARK    1  A    between atoms: C_4  and  C_5
REMARK    2  A    between atoms: C_17  and  C_18
REMARK    3  A    between atoms: C_18  and  N_19
REMARK    4  A    between atoms: N_19  and  N_20
REMARK                            x       y       z     vdW  Elec       q    Type
REMARK                         _______ _______ _______ _____ _____    ______ ____
ROOT
ATOM      1  N   UNL     1       2.789   2.729  21.191  0.00  0.00    +0.000 N 
ATOM      2  C   UNL     1       2.867   3.921  20.506  0.00  0.00    +0.000 A 
ATOM      3  N   UNL     1       3.656   3.946  19.412  0.00  0.00    +0.000 NA
ATOM      4  C   UNL     1       3.740   5.093  18.683  0.00  0.00    +0.000 A 
ATOM      5  C   UNL     1       2.996   6.173  19.075  0.00  0.00    +0.000 A 
ATOM      6  C   UNL     1       2.255   6.064  20.242  0.00  0.00    +0.000 A 
ATOM      7  N   UNL     1       2.173   4.959  20.988  0.00  0.00    +0.000 NA
ATOM      8  C   UNL     1       1.581   7.314  20.529  0.00  0.00    +0.000 A 
ATOM      9  C   UNL     1       0.756   7.723  21.568  0.00  0.00    +0.000 A 
ATOM     10  C   UNL     1       0.254   9.047  21.566  0.00  0.00    +0.000 A 
ATOM     11  C   UNL     1       0.609   9.934  20.517  0.00  0.00    +0.000 A 
ATOM     12  C   UNL     1       1.434   9.522  19.471  0.00  0.00    +0.000 A 
ATOM     13  C   UNL     1       1.887   8.219  19.507  0.00  0.00    +0.000 A 
ATOM     14  C   UNL     1       2.754   7.533  18.539  0.00  0.00    +0.000 C 
ATOM     15  O   UNL     1       3.138   8.012  17.495  0.00  0.00    +0.000 OA
ATOM     16  H   UNL     1       3.595   2.151  21.002  0.00  0.00    +0.000 HD
ATOM     17  H   UNL     1       2.539   2.882  22.157  0.00  0.00    +0.000 HD
ENDROOT
BRANCH   4  18
ATOM     18  C   UNL     1       4.648   5.044  17.516  0.00  0.00    +0.000 A 
ATOM     19  C   UNL     1       5.820   5.826  17.475  0.00  0.00    +0.000 A 
ATOM     20  C   UNL     1       6.704   5.764  16.390  0.00  0.00    +0.000 A 
ATOM     21  C   UNL     1       6.431   4.913  15.330  0.00  0.00    +0.000 A 
ATOM     22  F   UNL     1       7.286   4.835  14.301  0.00  0.00    +0.000 F 
ATOM     23  C   UNL     1       5.275   4.151  15.317  0.00  0.00    +0.000 A 
ATOM     24  C   UNL     1       4.382   4.240  16.389  0.00  0.00    +0.000 A 
ENDBRANCH   4  18
BRANCH  10  25
ATOM     25  C   UNL     1      -0.675   9.531  22.677  0.00  0.00    +0.000 C 
BRANCH  25  26
ATOM     26  N   UNL     1      -0.387  10.926  23.016  0.00  0.00    +0.000 NA
ATOM     27  H   UNL     1       0.542  11.161  22.660  0.00  0.00    +0.000 HD
BRANCH  26  28
ATOM     28  N   UNL     1      -1.340  11.898  22.574  0.00  0.00    +0.000 NA
ATOM     29  C   UNL     1      -2.598  12.035  23.290  0.00  0.00    +0.000 C 
ATOM     30  C   UNL     1      -3.244  13.107  22.426  0.00  0.00    +0.000 C 
ATOM     31  C   UNL     1      -2.096  14.076  22.158  0.00  0.00    +0.000 C 
ATOM     32  C   UNL     1      -0.824  13.228  22.272  0.00  0.00    +0.000 C 
ENDBRANCH  26  28
ENDBRANCH  25  26
ENDBRANCH  10  25
TORSDOF 4
ENDMDL
MODEL 5
REMARK VINA RESULT:      -8.4      0.761      1.047
REMARK  Name = 
REMARK  4 active torsions:
REMARK  status: ('A' for Active; 'I' for Inactive)
REMARK    1  A    between atoms: C_4  and  C_5
REMARK    2  A    between atoms: C_17  and  C_18
REMARK    3  A    between atoms: C_18  and  N_19
REMARK    4  A    between atoms: N_19  and  N_20
REMARK                            x       y       z     vdW  Elec       q    Type
REMARK                         _______ _______ _______ _____ _____    ______ ____
ROOT
ATOM      1  N   UNL     1       4.008   2.416  20.417  0.00  0.00    +0.000 N 
ATOM      2  C   UNL     1       3.922   3.585  19.694  0.00  0.00    +0.000 A 
ATOM      3  N   UNL     1       4.620   3.643  18.541  0.00  0.00    +0.000 NA
ATOM      4  C   UNL     1       4.540   4.766  17.776  0.00  0.00    +0.000 A 
ATOM      5  C   UNL     1       3.732   5.788  18.194  0.00  0.00    +0.000 A 
ATOM      6  C   UNL     1       3.095   5.654  19.419  0.00  0.00    +0.000 A 
ATOM      7  N   UNL     1       3.173   4.573  20.200  0.00  0.00    +0.000 NA
ATOM      8  C   UNL     1       2.332   6.848  19.723  0.00  0.00    +0.000 A 
ATOM      9  C   UNL     1       1.555   7.217  20.813  0.00  0.00    +0.000 A 
ATOM     10  C   UNL     1       0.932   8.488  20.813  0.00  0.00    +0.000 A 
ATOM     11  C   UNL     1       1.122   9.367  19.715  0.00  0.00    +0.000 A 
ATOM     12  C   UNL     1       1.900   8.993  18.618  0.00  0.00    +0.000 A 
ATOM     13  C   UNL     1       2.473   7.739  18.655  0.00  0.00    +0.000 A 
ATOM     14  C   UNL     1       3.324   7.101  17.641  0.00  0.00    +0.000 C 
ATOM     15  O   UNL     1       3.580   7.575  16.557  0.00  0.00    +0.000 OA
ATOM     16  H   UNL     1       4.848   1.908  20.181  0.00  0.00    +0.000 HD
ATOM     17  H   UNL     1       3.820   2.581  21.395  0.00  0.00    +0.000 HD
ENDROOT
BRANCH   4  18
ATOM     18  C   UNL     1       5.357   4.758  16.542  0.00  0.00    +0.000 A 
ATOM     19  C   UNL     1       4.900   4.116  15.373  0.00  0.00    +0.000 A 
ATOM     20  C   UNL     1       5.648   4.131  14.189  0.00  0.00    +0.000 A 
ATOM     21  C   UNL     1       6.866   4.793  14.155  0.00  0.00    +0.000 A 
ATOM     22  F   UNL     1       7.574   4.828  13.018  0.00  0.00    +0.000 F 
ATOM     23  C   UNL     1       7.365   5.410  15.289  0.00  0.00    +0.000 A 
ATOM     24  C   UNL     1       6.626   5.367  16.476  0.00  0.00    +0.000 A 
ENDBRANCH   4  18
BRANCH  10  25
ATOM     25  C   UNL     1       0.050   8.925  21.980  0.00  0.00    +0.000 C 
BRANCH  25  26
ATOM     26  N   UNL     1       0.178  10.366  22.209  0.00  0.00    +0.000 NA
ATOM     27  H   UNL     1       0.915  10.727  21.601  0.00  0.00    +0.000 HD
BRANCH  26  28
ATOM     28  N   UNL     1      -1.012  11.144  22.050  0.00  0.00    +0.000 NA
ATOM     29  C   UNL     1      -1.544  11.870  23.192  0.00  0.00    +0.000 C 
ATOM     30  C   UNL     1      -2.786  12.457  22.540  0.00  0.00    +0.000 C 
ATOM     31  C   UNL     1      -2.279  12.909  21.173  0.00  0.00    +0.000 C 
ATOM     32  C   UNL     1      -1.077  12.005  20.875  0.00  0.00    +0.000 C 
ENDBRANCH  26  28
ENDBRANCH  25  26
ENDBRANCH  10  25
TORSDOF 4
ENDMDL
MODEL 6
REMARK VINA RESULT:      -8.3      2.366      2.995
REMARK  Name = 
REMARK  4 active torsions:
REMARK  status: ('A' for Active; 'I' for Inactive)
REMARK    1  A    between atoms: C_4  and  C_5
REMARK    2  A    between atoms: C_17  and  C_18
REMARK    3  A    between atoms: C_18  and  N_19
REMARK    4  A    between atoms: N_19  and  N_20
REMARK                            x       y       z     vdW  Elec       q    Type
REMARK                         _______ _______ _______ _____ _____    ______ ____
ROOT
ATOM      1  N   UNL     1       2.195   3.995  21.539  0.00  0.00    +0.000 N 
ATOM      2  C   UNL     1       2.445   4.994  20.625  0.00  0.00    +0.000 A 
ATOM      3  N   UNL     1       3.353   4.730  19.663  0.00  0.00    +0.000 NA
ATOM      4  C   UNL     1       3.609   5.675  18.718  0.00  0.00    +0.000 A 
ATOM      5  C   UNL     1       2.914   6.853  18.764  0.00  0.00    +0.000 A 
ATOM      6  C   UNL     1       2.039   7.050  19.821  0.00  0.00    +0.000 A 
ATOM      7  N   UNL     1       1.785   6.149  20.774  0.00  0.00    +0.000 NA
ATOM      8  C   UNL     1       1.437   8.366  19.738  0.00  0.00    +0.000 A 
ATOM      9  C   UNL     1       0.535   9.043  20.547  0.00  0.00    +0.000 A 
ATOM     10  C   UNL     1       0.142  10.355  20.191  0.00  0.00    +0.000 A 
ATOM     11  C   UNL     1       0.683  10.962  19.028  0.00  0.00    +0.000 A 
ATOM     12  C   UNL     1       1.587  10.280  18.212  0.00  0.00    +0.000 A 
ATOM     13  C   UNL     1       1.928   8.997  18.590  0.00  0.00    +0.000 A 
ATOM     14  C   UNL     1       2.842   8.066  17.916  0.00  0.00    +0.000 C 
ATOM     15  O   UNL     1       3.379   8.274  16.851  0.00  0.00    +0.000 OA
ATOM     16  H   UNL     1       2.970   3.349  21.587  0.00  0.00    +0.000 HD
ATOM     17  H   UNL     1       1.851   4.377  22.408  0.00  0.00    +0.000 HD
ENDROOT
BRANCH   4  18
ATOM     18  C   UNL     1       4.637   5.315  17.716  0.00  0.00    +0.000 A 
ATOM     19  C   UNL     1       4.377   4.346  16.725  0.00  0.00    +0.000 A 
ATOM     20  C   UNL     1       5.330   4.021  15.751  0.00  0.00    +0.000 A 
ATOM     21  C   UNL     1       6.558   4.665  15.750  0.00  0.00    +0.000 A 
ATOM     22  F   UNL     1       7.463   4.373  14.807  0.00  0.00    +0.000 F 
ATOM     23  C   UNL     1       6.864   5.600  16.724  0.00  0.00    +0.000 A 
ATOM     24  C   UNL     1       5.920   5.899  17.711  0.00  0.00    +0.000 A 
ENDBRANCH   4  18
BRANCH  10  25
ATOM     25  C   UNL     1      -0.866  11.126  21.039  0.00  0.00    +0.000 C 
BRANCH  25  26
ATOM     26  N   UNL     1      -1.490  12.193  20.253  0.00  0.00    +0.000 NA
ATOM     27  H   UNL     1      -0.832  12.491  19.531  0.00  0.00    +0.000 HD
BRANCH  26  28
ATOM     28  N   UNL     1      -2.758  11.889  19.663  0.00  0.00    +0.000 NA
ATOM     29  C   UNL     1      -3.905  12.726  19.977  0.00  0.00    +0.000 C 
ATOM     30  C   UNL     1      -4.965  11.979  19.183  0.00  0.00    +0.000 C 
ATOM     31  C   UNL     1      -4.251  11.653  17.873  0.00  0.00    +0.000 C 
ATOM     32  C   UNL     1      -2.761  11.605  18.233  0.00  0.00    +0.000 C 
ENDBRANCH  26  28
ENDBRANCH  25  26
ENDBRANCH  10  25
TORSDOF 4
ENDMDL
MODEL 7
REMARK VINA RESULT:      -8.2      1.644      2.575
REMARK  Name = 
REMARK  4 active torsions:
REMARK  status: ('A' for Active; 'I' for Inactive)
REMARK    1  A    between atoms: C_4  and  C_5
REMARK    2  A    between atoms: C_17  and  C_18
REMARK    3  A    between atoms: C_18  and  N_19
REMARK    4  A    between atoms: N_19  and  N_20
REMARK                            x       y       z     vdW  Elec       q    Type
REMARK                         _______ _______ _______ _____ _____    ______ ____
ROOT
ATOM      1  N   UNL     1       2.311   3.602  21.455  0.00  0.00    +0.000 N 
ATOM      2  C   UNL     1       2.483   4.684  20.621  0.00  0.00    +0.000 A 
ATOM      3  N   UNL     1       3.306   4.518  19.565  0.00  0.00    +0.000 NA
ATOM      4  C   UNL     1       3.481   5.549  18.694  0.00  0.00    +0.000 A 
ATOM      5  C   UNL     1       2.793   6.712  18.909  0.00  0.00    +0.000 A 
ATOM      6  C   UNL     1       2.010   6.803  20.050  0.00  0.00    +0.000 A 
ATOM      7  N   UNL     1       1.838   5.815  20.933  0.00  0.00    +0.000 NA
ATOM      8  C   UNL     1       1.405   8.116  20.142  0.00  0.00    +0.000 A 
ATOM      9  C   UNL     1       0.574   8.707  21.085  0.00  0.00    +0.000 A 
ATOM     10  C   UNL     1       0.153  10.044  20.888  0.00  0.00    +0.000 A 
ATOM     11  C   UNL     1       0.594  10.761  19.745  0.00  0.00    +0.000 A 
ATOM     12  C   UNL     1       1.425  10.165  18.795  0.00  0.00    +0.000 A 
ATOM     13  C   UNL     1       1.797   8.856  19.022  0.00  0.00    +0.000 A 
ATOM     14  C   UNL     1       2.650   7.999  18.188  0.00  0.00    +0.000 C 
ATOM     15  O   UNL     1       3.094   8.310  17.106  0.00  0.00    +0.000 OA
ATOM     16  H   UNL     1       3.086   2.959  21.375  0.00  0.00    +0.000 HD
ATOM     17  H   UNL     1       2.041   3.898  22.381  0.00  0.00    +0.000 HD
ENDROOT
BRANCH   4  18
ATOM     18  C   UNL     1       4.420   5.292  17.579  0.00  0.00    +0.000 A 
ATOM     19  C   UNL     1       5.547   6.115  17.376  0.00  0.00    +0.000 A 
ATOM     20  C   UNL     1       6.461   5.863  16.345  0.00  0.00    +0.000 A 
ATOM     21  C   UNL     1       6.264   4.779  15.502  0.00  0.00    +0.000 A 
ATOM     22  F   UNL     1       7.148   4.522  14.529  0.00  0.00    +0.000 F 
ATOM     23  C   UNL     1       5.154   3.965  15.649  0.00  0.00    +0.000 A 
ATOM     24  C   UNL     1       4.230   4.239  16.662  0.00  0.00    +0.000 A 
ENDBRANCH   4  18
BRANCH  10  25
ATOM     25  C   UNL     1      -0.779  10.725  21.887  0.00  0.00    +0.000 C 
BRANCH  25  26
ATOM     26  N   UNL     1      -1.557  11.777  21.230  0.00  0.00    +0.000 NA
ATOM     27  H   UNL     1      -2.023  11.375  20.414  0.00  0.00    +0.000 HD
BRANCH  26  28
ATOM     28  N   UNL     1      -2.508  12.468  22.045  0.00  0.00    +0.000 NA
ATOM     29  C   UNL     1      -3.799  12.826  21.480  0.00  0.00    +0.000 C 
ATOM     30  C   UNL     1      -4.385  13.559  22.678  0.00  0.00    +0.000 C 
ATOM     31  C   UNL     1      -3.981  12.676  23.856  0.00  0.00    +0.000 C 
ATOM     32  C   UNL     1      -2.713  11.949  23.392  0.00  0.00    +0.000 C 
ENDBRANCH  26  28
ENDBRANCH  25  26
ENDBRANCH  10  25
TORSDOF 4
ENDMDL
MODEL 8
REMARK VINA RESULT:      -8.1      1.417      2.100
REMARK  Name = 
REMARK  4 active torsions:
REMARK  status: ('A' for Active; 'I' for Inactive)
REMARK    1  A    between atoms: C_4  and  C_5
REMARK    2  A    between atoms: C_17  and  C_18
REMARK    3  A    between atoms: C_18  and  N_19
REMARK    4  A    between atoms: N_19  and  N_20
REMARK                            x       y       z     vdW  Elec       q    Type
REMARK                         _______ _______ _______ _____ _____    ______ ____
ROOT
ATOM      1  N   UNL     1       2.566   3.303  21.318  0.00  0.00    +0.000 N 
ATOM      2  C   UNL     1       2.734   4.395  20.496  0.00  0.00    +0.000 A 
ATOM      3  N   UNL     1       3.598   4.260  19.468  0.00  0.00    +0.000 NA
ATOM      4  C   UNL     1       3.772   5.301  18.609  0.00  0.00    +0.000 A 
ATOM      5  C   UNL     1       3.042   6.442  18.807  0.00  0.00    +0.000 A 
ATOM      6  C   UNL     1       2.219   6.503  19.921  0.00  0.00    +0.000 A 
ATOM      7  N   UNL     1       2.046   5.504  20.791  0.00  0.00    +0.000 NA
ATOM      8  C   UNL     1       1.572   7.797  19.998  0.00  0.00    +0.000 A 
ATOM      9  C   UNL     1       0.692   8.357  20.915  0.00  0.00    +0.000 A 
ATOM     10  C   UNL     1       0.238   9.682  20.710  0.00  0.00    +0.000 A 
ATOM     11  C   UNL     1       0.697  10.419  19.587  0.00  0.00    +0.000 A 
ATOM     12  C   UNL     1       1.577   9.854  18.664  0.00  0.00    +0.000 A 
ATOM     13  C   UNL     1       1.980   8.555  18.896  0.00  0.00    +0.000 A 
ATOM     14  C   UNL     1       2.886   7.729  18.088  0.00  0.00    +0.000 C 
ATOM     15  O   UNL     1       3.358   8.060  17.023  0.00  0.00    +0.000 OA
ATOM     16  H   UNL     1       3.363   2.685  21.262  0.00  0.00    +0.000 HD
ATOM     17  H   UNL     1       2.256   3.585  22.236  0.00  0.00    +0.000 HD
ENDROOT
BRANCH   4  18
ATOM     18  C   UNL     1       4.756   5.080  17.527  0.00  0.00    +0.000 A 
ATOM     19  C   UNL     1       4.473   4.208  16.456  0.00  0.00    +0.000 A 
ATOM     20  C   UNL     1       5.382   4.015  15.408  0.00  0.00    +0.000 A 
ATOM     21  C   UNL     1       6.590   4.697  15.413  0.00  0.00    +0.000 A 
ATOM     22  F   UNL     1       7.453   4.533  14.401  0.00  0.00    +0.000 F 
ATOM     23  C   UNL     1       6.920   5.539  16.461  0.00  0.00    +0.000 A 
ATOM     24  C   UNL     1       6.020   5.704  17.519  0.00  0.00    +0.000 A 
ENDBRANCH   4  18
BRANCH  10  25
ATOM     25  C   UNL     1      -0.747  10.329  21.680  0.00  0.00    +0.000 C 
BRANCH  25  26
ATOM     26  N   UNL     1      -1.179  11.636  21.179  0.00  0.00    +0.000 NA
ATOM     27  H   UNL     1      -1.795  11.489  20.377  0.00  0.00    +0.000 HD
BRANCH  26  28
ATOM     28  N   UNL     1      -1.809  12.503  22.127  0.00  0.00    +0.000 NA
ATOM     29  C   UNL     1      -2.562  11.925  23.228  0.00  0.00    +0.000 C 
ATOM     30  C   UNL     1      -3.054  13.209  23.876  0.00  0.00    +0.000 C 
ATOM     31  C   UNL     1      -1.828  14.116  23.827  0.00  0.00    +0.000 C 
ATOM     32  C   UNL     1      -1.005  13.608  22.636  0.00  0.00    +0.000 C 
ENDBRANCH  26  28
ENDBRANCH  25  26
ENDBRANCH  10  25
TORSDOF 4
ENDMDL
MODEL 9
REMARK VINA RESULT:      -8.1      1.513      2.598
REMARK  Name = 
REMARK  4 active torsions:
REMARK  status: ('A' for Active; 'I' for Inactive)
REMARK    1  A    between atoms: C_4  and  C_5
REMARK    2  A    between atoms: C_17  and  C_18
REMARK    3  A    between atoms: C_18  and  N_19
REMARK    4  A    between atoms: N_19  and  N_20
REMARK                            x       y       z     vdW  Elec       q    Type
REMARK                         _______ _______ _______ _____ _____    ______ ____
ROOT
ATOM      1  N   UNL     1       2.277   3.618  21.518  0.00  0.00    +0.000 N 
ATOM      2  C   UNL     1       2.450   4.702  20.687  0.00  0.00    +0.000 A 
ATOM      3  N   UNL     1       3.303   4.551  19.653  0.00  0.00    +0.000 NA
ATOM      4  C   UNL     1       3.481   5.584  18.786  0.00  0.00    +0.000 A 
ATOM      5  C   UNL     1       2.764   6.734  18.980  0.00  0.00    +0.000 A 
ATOM      6  C   UNL     1       1.950   6.810  20.100  0.00  0.00    +0.000 A 
ATOM      7  N   UNL     1       1.774   5.820  20.980  0.00  0.00    +0.000 NA
ATOM      8  C   UNL     1       1.316   8.112  20.174  0.00  0.00    +0.000 A 
ATOM      9  C   UNL     1       0.450   8.687  21.093  0.00  0.00    +0.000 A 
ATOM     10  C   UNL     1       0.007  10.015  20.882  0.00  0.00    +0.000 A 
ATOM     11  C   UNL     1       0.463  10.739  19.751  0.00  0.00    +0.000 A 
ATOM     12  C   UNL     1       1.331  10.159  18.824  0.00  0.00    +0.000 A 
ATOM     13  C   UNL     1       1.723   8.858  19.063  0.00  0.00    +0.000 A 
ATOM     14  C   UNL     1       2.615   8.017  18.253  0.00  0.00    +0.000 C 
ATOM     15  O   UNL     1       3.082   8.336  17.183  0.00  0.00    +0.000 OA
ATOM     16  H   UNL     1       3.068   2.991  21.460  0.00  0.00    +0.000 HD
ATOM     17  H   UNL     1       1.977   3.909  22.436  0.00  0.00    +0.000 HD
ENDROOT
BRANCH   4  18
ATOM     18  C   UNL     1       4.454   5.346  17.697  0.00  0.00    +0.000 A 
ATOM     19  C   UNL     1       5.648   6.091  17.614  0.00  0.00    +0.000 A 
ATOM     20  C   UNL     1       6.593   5.851  16.608  0.00  0.00    +0.000 A 
ATOM     21  C   UNL     1       6.359   4.858  15.669  0.00  0.00    +0.000 A 
ATOM     22  F   UNL     1       7.270   4.611  14.719  0.00  0.00    +0.000 F 
ATOM     23  C   UNL     1       5.185   4.124  15.697  0.00  0.00    +0.000 A 
ATOM     24  C   UNL     1       4.233   4.388  16.686  0.00  0.00    +0.000 A 
ENDBRANCH   4  18
BRANCH  10  25
ATOM     25  C   UNL     1      -0.965  10.678  21.856  0.00  0.00    +0.000 C 
BRANCH  25  26
ATOM     26  N   UNL     1      -0.278  11.697  22.653  0.00  0.00    +0.000 NA
ATOM     27  H   UNL     1       0.725  11.631  22.469  0.00  0.00    +0.000 HD
BRANCH  26  28
ATOM     28  N   UNL     1      -0.720  13.046  22.477  0.00  0.00    +0.000 NA
ATOM     29  C   UNL     1      -1.476  13.690  23.540  0.00  0.00    +0.000 C 
ATOM     30  C   UNL     1      -1.742  15.025  22.863  0.00  0.00    +0.000 C 
ATOM     31  C   UNL     1      -0.406  15.352  22.202  0.00  0.00    +0.000 C 
ATOM     32  C   UNL     1       0.262  13.992  21.960  0.00  0.00    +0.000 C 
ENDBRANCH  26  28
ENDBRANCH  25  26
ENDBRANCH  10  25
TORSDOF 4
ENDMDL
