MODEL 1
REMARK VINA RESULT:      -7.5      0.000      0.000
REMARK  Name = 
REMARK  6 active torsions:
REMARK  status: ('A' for Active; 'I' for Inactive)
REMARK    1  A    between atoms: C_1  and  O_2
REMARK    2  A    between atoms: O_2  and  C_3
REMARK    3  A    between atoms: C_3  and  C_5
REMARK    4  A    between atoms: C_10  and  N_11
REMARK    5  A    between atoms: C_12  and  C_14
REMARK    6  A    between atoms: C_14  and  C_15
REMARK                            x       y       z     vdW  Elec       q    Type
REMARK                         _______ _______ _______ _____ _____    ______ ____
ROOT
ATOM      1  N   UNL     1       3.032   6.434  19.784  0.00  0.00    +0.000 N 
ATOM      2  C   UNL     1       2.613   6.910  18.564  0.00  0.00    +0.000 C 
ATOM      3  O   UNL     1       2.094   6.083  17.819  0.00  0.00    +0.000 OA
ATOM      4  H   UNL     1       3.067   7.072  20.571  0.00  0.00    +0.000 HD
ENDROOT
BRANCH   1  10
ATOM      5  C   UNL     1       3.684   3.938  19.711  0.00  0.00    +0.000 A 
ATOM      6  C   UNL     1       3.368   2.613  20.103  0.00  0.00    +0.000 A 
ATOM      7  C   UNL     1       2.187   2.348  20.810  0.00  0.00    +0.000 A 
ATOM      8  C   UNL     1       1.374   3.392  21.210  0.00  0.00    +0.000 A 
ATOM      9  C   UNL     1       1.659   4.710  20.826  0.00  0.00    +0.000 A 
ATOM     10  C   UNL     1       2.831   5.029  20.088  0.00  0.00    +0.000 A 
BRANCH   5  11
ATOM     11  C   UNL     1       4.882   3.983  18.803  0.00  0.00    +0.000 C 
ATOM     12  O   UNL     1       6.012   4.142  19.240  0.00  0.00    +0.000 OA
BRANCH  11  14
ATOM     13  C   UNL     1       5.591   4.187  16.580  0.00  0.00    +0.000 C 
ATOM     14  O   UNL     1       4.542   3.830  17.489  0.00  0.00    +0.000 OA
ENDBRANCH  11  14
ENDBRANCH   5  11
ENDBRANCH   1  10
BRANCH   2  15
ATOM     15  C   UNL     1       2.523   8.346  18.098  0.00  0.00    +0.000 C 
BRANCH  15  16
ATOM     16  C   UNL     1       1.326   9.206  18.731  0.00  0.00    +0.000 A 
ATOM     17  C   UNL     1       0.418   9.703  17.685  0.00  0.00    +0.000 A 
ATOM     18  C   UNL     1      -0.654  10.470  18.065  0.00  0.00    +0.000 A 
ATOM     19  C   UNL     1      -1.035  10.565  19.394  0.00  0.00    +0.000 A 
ATOM     20  C   UNL     1      -0.260   9.935  20.441  0.00  0.00    +0.000 A 
ATOM     21  C   UNL     1      -0.864   9.676  21.692  0.00  0.00    +0.000 A 
ATOM     22  C   UNL     1      -0.230   8.933  22.753  0.00  0.00    +0.000 A 
ATOM     23  C   UNL     1       1.088   9.333  23.022  0.00  0.00    +0.000 A 
ATOM     24  C   UNL     1       1.582   9.195  21.773  0.00  0.00    +0.000 A 
ATOM     25  C   UNL     1       0.989   9.433  20.264  0.00  0.00    +0.000 A 
ENDBRANCH  15  16
ENDBRANCH   2  15
TORSDOF 5
ENDMDL
MODEL 2
REMARK VINA RESULT:      -7.4      1.181      2.793
REMARK  Name = 
REMARK  6 active torsions:
REMARK  status: ('A' for Active; 'I' for Inactive)
REMARK    1  A    between atoms: C_1  and  O_2
REMARK    2  A    between atoms: O_2  and  C_3
REMARK    3  A    between atoms: C_3  and  C_5
REMARK    4  A    between atoms: C_10  and  N_11
REMARK    5  A    between atoms: C_12  and  C_14
REMARK    6  A    between atoms: C_14  and  C_15
REMARK                            x       y       z     vdW  Elec       q    Type
REMARK                         _______ _______ _______ _____ _____    ______ ____
ROOT
ATOM      1  N   UNL     1       2.722   6.943  19.823  0.00  0.00    +0.000 N 
ATOM      2  C   UNL     1       2.299   7.513  18.646  0.00  0.00    +0.000 C 
ATOM      3  O   UNL     1       1.883   6.733  17.795  0.00  0.00    +0.000 OA
ATOM      4  H   UNL     1       2.672   7.489  20.676  0.00  0.00    +0.000 HD
ENDROOT
BRANCH   1  10
ATOM      5  C   UNL     1       3.667   4.549  19.639  0.00  0.00    +0.000 A 
ATOM      6  C   UNL     1       3.452   3.164  19.854  0.00  0.00    +0.000 A 
ATOM      7  C   UNL     1       2.215   2.706  20.328  0.00  0.00    +0.000 A 
ATOM      8  C   UNL     1       1.232   3.613  20.678  0.00  0.00    +0.000 A 
ATOM      9  C   UNL     1       1.417   4.987  20.464  0.00  0.00    +0.000 A 
ATOM     10  C   UNL     1       2.643   5.500  19.964  0.00  0.00    +0.000 A 
BRANCH   5  11
ATOM     11  C   UNL     1       4.978   4.812  18.951  0.00  0.00    +0.000 C 
ATOM     12  O   UNL     1       6.041   4.462  19.443  0.00  0.00    +0.000 OA
BRANCH  11  14
ATOM     13  C   UNL     1       6.048   5.922  17.189  0.00  0.00    +0.000 C 
ATOM     14  O   UNL     1       4.817   5.464  17.762  0.00  0.00    +0.000 OA
ENDBRANCH  11  14
ENDBRANCH   5  11
ENDBRANCH   1  10
BRANCH   2  15
ATOM     15  C   UNL     1       2.091   8.979  18.336  0.00  0.00    +0.000 C 
BRANCH  15  16
ATOM     16  C   UNL     1       0.839   9.670  19.063  0.00  0.00    +0.000 A 
ATOM     17  C   UNL     1       1.197  10.129  20.415  0.00  0.00    +0.000 A 
ATOM     18  C   UNL     1       0.227  10.731  21.176  0.00  0.00    +0.000 A 
ATOM     19  C   UNL     1      -0.974  11.140  20.618  0.00  0.00    +0.000 A 
ATOM     20  C   UNL     1      -1.288  10.861  19.233  0.00  0.00    +0.000 A 
ATOM     21  C   UNL     1      -2.279  11.627  18.578  0.00  0.00    +0.000 A 
ATOM     22  C   UNL     1      -2.573  11.526  17.170  0.00  0.00    +0.000 A 
ATOM     23  C   UNL     1      -2.718  10.208  16.710  0.00  0.00    +0.000 A 
ATOM     24  C   UNL     1      -1.532   9.729  17.142  0.00  0.00    +0.000 A 
ATOM     25  C   UNL     1      -0.590   9.995  18.455  0.00  0.00    +0.000 A 
ENDBRANCH  15  16
ENDBRANCH   2  15
TORSDOF 5
ENDMDL
MODEL 3
REMARK VINA RESULT:      -7.3      2.215      7.318
REMARK  Name = 
REMARK  6 active torsions:
REMARK  status: ('A' for Active; 'I' for Inactive)
REMARK    1  A    between atoms: C_1  and  O_2
REMARK    2  A    between atoms: O_2  and  C_3
REMARK    3  A    between atoms: C_3  and  C_5
REMARK    4  A    between atoms: C_10  and  N_11
REMARK    5  A    between atoms: C_12  and  C_14
REMARK    6  A    between atoms: C_14  and  C_15
REMARK                            x       y       z     vdW  Elec       q    Type
REMARK                         _______ _______ _______ _____ _____    ______ ____
ROOT
ATOM      1  N   UNL     1       2.511   7.100  20.387  0.00  0.00    +0.000 N 
ATOM      2  C   UNL     1       1.779   6.004  20.777  0.00  0.00    +0.000 C 
ATOM      3  O   UNL     1       0.563   6.098  20.636  0.00  0.00    +0.000 OA
ATOM      4  H   UNL     1       3.467   6.964  20.079  0.00  0.00    +0.000 HD
ENDROOT
BRANCH   1  10
ATOM      5  C   UNL     1       1.128   9.268  20.601  0.00  0.00    +0.000 A 
ATOM      6  C   UNL     1       0.502  10.352  19.934  0.00  0.00    +0.000 A 
ATOM      7  C   UNL     1       0.488  10.407  18.534  0.00  0.00    +0.000 A 
ATOM      8  C   UNL     1       1.168   9.454  17.800  0.00  0.00    +0.000 A 
ATOM      9  C   UNL     1       1.786   8.366  18.435  0.00  0.00    +0.000 A 
ATOM     10  C   UNL     1       1.808   8.251  19.851  0.00  0.00    +0.000 A 
BRANCH   5  11
ATOM     11  C   UNL     1       0.865   9.294  22.082  0.00  0.00    +0.000 C 
ATOM     12  O   UNL     1       1.777   9.375  22.892  0.00  0.00    +0.000 OA
BRANCH  11  14
ATOM     13  C   UNL     1      -0.934  10.287  23.204  0.00  0.00    +0.000 C 
ATOM     14  O   UNL     1      -0.467   9.217  22.373  0.00  0.00    +0.000 OA
ENDBRANCH  11  14
ENDBRANCH   5  11
ENDBRANCH   1  10
BRANCH   2  15
ATOM     15  C   UNL     1       2.280   4.631  21.167  0.00  0.00    +0.000 C 
BRANCH  15  16
ATOM     16  C   UNL     1       2.783   3.708  19.955  0.00  0.00    +0.000 A 
ATOM     17  C   UNL     1       1.802   2.657  19.645  0.00  0.00    +0.000 A 
ATOM     18  C   UNL     1       2.093   1.773  18.636  0.00  0.00    +0.000 A 
ATOM     19  C   UNL     1       3.140   2.003  17.758  0.00  0.00    +0.000 A 
ATOM     20  C   UNL     1       4.024   3.135  17.929  0.00  0.00    +0.000 A 
ATOM     21  C   UNL     1       4.786   3.593  16.830  0.00  0.00    +0.000 A 
ATOM     22  C   UNL     1       5.590   4.790  16.853  0.00  0.00    +0.000 A 
ATOM     23  C   UNL     1       6.413   4.905  17.985  0.00  0.00    +0.000 A 
ATOM     24  C   UNL     1       5.453   4.772  18.925  0.00  0.00    +0.000 A 
ATOM     25  C   UNL     1       4.073   3.898  19.051  0.00  0.00    +0.000 A 
ENDBRANCH  15  16
ENDBRANCH   2  15
TORSDOF 5
ENDMDL
MODEL 4
REMARK VINA RESULT:      -7.3      1.683      3.168
REMARK  Name = 
REMARK  6 active torsions:
REMARK  status: ('A' for Active; 'I' for Inactive)
REMARK    1  A    between atoms: C_1  and  O_2
REMARK    2  A    between atoms: O_2  and  C_3
REMARK    3  A    between atoms: C_3  and  C_5
REMARK    4  A    between atoms: C_10  and  N_11
REMARK    5  A    between atoms: C_12  and  C_14
REMARK    6  A    between atoms: C_14  and  C_15
REMARK                            x       y       z     vdW  Elec       q    Type
REMARK                         _______ _______ _______ _____ _____    ______ ____
ROOT
ATOM      1  N   UNL     1       2.400   6.492  17.831  0.00  0.00    +0.000 N 
ATOM      2  C   UNL     1       2.182   7.596  18.620  0.00  0.00    +0.000 C 
ATOM      3  O   UNL     1       2.323   7.424  19.828  0.00  0.00    +0.000 OA
ATOM      4  H   UNL     1       2.713   6.628  16.877  0.00  0.00    +0.000 HD
ENDROOT
BRANCH   1  10
ATOM      5  C   UNL     1       4.100   4.782  18.751  0.00  0.00    +0.000 A 
ATOM      6  C   UNL     1       4.306   3.542  19.408  0.00  0.00    +0.000 A 
ATOM      7  C   UNL     1       3.214   2.726  19.733  0.00  0.00    +0.000 A 
ATOM      8  C   UNL     1       1.926   3.171  19.501  0.00  0.00    +0.000 A 
ATOM      9  C   UNL     1       1.697   4.389  18.844  0.00  0.00    +0.000 A 
ATOM     10  C   UNL     1       2.770   5.243  18.471  0.00  0.00    +0.000 A 
BRANCH   5  11
ATOM     11  C   UNL     1       5.397   5.410  18.320  0.00  0.00    +0.000 C 
ATOM     12  O   UNL     1       5.424   6.456  17.689  0.00  0.00    +0.000 OA
BRANCH  11  14
ATOM     13  C   UNL     1       7.546   4.672  17.753  0.00  0.00    +0.000 C 
ATOM     14  O   UNL     1       6.482   4.679  18.713  0.00  0.00    +0.000 OA
ENDBRANCH  11  14
ENDBRANCH   5  11
ENDBRANCH   1  10
BRANCH   2  15
ATOM     15  C   UNL     1       1.991   9.034  18.190  0.00  0.00    +0.000 C 
BRANCH  15  16
ATOM     16  C   UNL     1       0.723   9.783  18.826  0.00  0.00    +0.000 A 
ATOM     17  C   UNL     1       1.065  10.403  20.116  0.00  0.00    +0.000 A 
ATOM     18  C   UNL     1       0.080  11.074  20.797  0.00  0.00    +0.000 A 
ATOM     19  C   UNL     1      -1.124  11.394  20.190  0.00  0.00    +0.000 A 
ATOM     20  C   UNL     1      -1.424  10.951  18.845  0.00  0.00    +0.000 A 
ATOM     21  C   UNL     1      -2.423  11.618  18.101  0.00  0.00    +0.000 A 
ATOM     22  C   UNL     1      -2.705  11.349  16.713  0.00  0.00    +0.000 A 
ATOM     23  C   UNL     1      -2.826   9.983  16.409  0.00  0.00    +0.000 A 
ATOM     24  C   UNL     1      -1.636   9.579  16.900  0.00  0.00    +0.000 A 
ATOM     25  C   UNL     1      -0.706  10.012  18.177  0.00  0.00    +0.000 A 
ENDBRANCH  15  16
ENDBRANCH   2  15
TORSDOF 5
ENDMDL
MODEL 5
REMARK VINA RESULT:      -7.3      1.582      3.187
REMARK  Name = 
REMARK  6 active torsions:
REMARK  status: ('A' for Active; 'I' for Inactive)
REMARK    1  A    between atoms: C_1  and  O_2
REMARK    2  A    between atoms: O_2  and  C_3
REMARK    3  A    between atoms: C_3  and  C_5
REMARK    4  A    between atoms: C_10  and  N_11
REMARK    5  A    between atoms: C_12  and  C_14
REMARK    6  A    between atoms: C_14  and  C_15
REMARK                            x       y       z     vdW  Elec       q    Type
REMARK                         _______ _______ _______ _____ _____    ______ ____
ROOT
ATOM      1  N   UNL     1       4.121   6.252  18.463  0.00  0.00    +0.000 N 
ATOM      2  C   UNL     1       2.767   6.222  18.698  0.00  0.00    +0.000 C 
ATOM      3  O   UNL     1       2.106   5.538  17.922  0.00  0.00    +0.000 OA
ATOM      4  H   UNL     1       4.748   6.416  19.242  0.00  0.00    +0.000 HD
ENDROOT
BRANCH   1  10
ATOM      5  C   UNL     1       4.777   4.064  17.262  0.00  0.00    +0.000 A 
ATOM      6  C   UNL     1       5.292   3.458  16.088  0.00  0.00    +0.000 A 
ATOM      7  C   UNL     1       5.740   4.251  15.022  0.00  0.00    +0.000 A 
ATOM      8  C   UNL     1       5.591   5.624  15.074  0.00  0.00    +0.000 A 
ATOM      9  C   UNL     1       5.094   6.247  16.228  0.00  0.00    +0.000 A 
ATOM     10  C   UNL     1       4.649   5.491  17.346  0.00  0.00    +0.000 A 
BRANCH   5  11
ATOM     11  C   UNL     1       4.535   3.057  18.352  0.00  0.00    +0.000 C 
ATOM     12  O   UNL     1       4.997   3.204  19.475  0.00  0.00    +0.000 OA
BRANCH  11  14
ATOM     13  C   UNL     1       2.411   2.071  18.388  0.00  0.00    +0.000 C 
ATOM     14  O   UNL     1       3.768   2.009  17.929  0.00  0.00    +0.000 OA
ENDBRANCH  11  14
ENDBRANCH   5  11
ENDBRANCH   1  10
BRANCH   2  15
ATOM     15  C   UNL     1       2.011   6.753  19.896  0.00  0.00    +0.000 C 
BRANCH  15  16
ATOM     16  C   UNL     1       1.627   8.310  19.838  0.00  0.00    +0.000 A 
ATOM     17  C   UNL     1       1.841   8.859  18.490  0.00  0.00    +0.000 A 
ATOM     18  C   UNL     1       1.571  10.188  18.279  0.00  0.00    +0.000 A 
ATOM     19  C   UNL     1       0.874  10.938  19.213  0.00  0.00    +0.000 A 
ATOM     20  C   UNL     1       0.487  10.371  20.487  0.00  0.00    +0.000 A 
ATOM     21  C   UNL     1      -0.557  10.972  21.226  0.00  0.00    +0.000 A 
ATOM     22  C   UNL     1      -1.112  10.414  22.434  0.00  0.00    +0.000 A 
ATOM     23  C   UNL     1      -0.148  10.003  23.368  0.00  0.00    +0.000 A 
ATOM     24  C   UNL     1       0.555   9.182  22.560  0.00  0.00    +0.000 A 
ATOM     25  C   UNL     1       0.966   9.198  20.974  0.00  0.00    +0.000 A 
ENDBRANCH  15  16
ENDBRANCH   2  15
TORSDOF 5
ENDMDL
MODEL 6
REMARK VINA RESULT:      -7.3      1.105      2.650
REMARK  Name = 
REMARK  6 active torsions:
REMARK  status: ('A' for Active; 'I' for Inactive)
REMARK    1  A    between atoms: C_1  and  O_2
REMARK    2  A    between atoms: O_2  and  C_3
REMARK    3  A    between atoms: C_3  and  C_5
REMARK    4  A    between atoms: C_10  and  N_11
REMARK    5  A    between atoms: C_12  and  C_14
REMARK    6  A    between atoms: C_14  and  C_15
REMARK                            x       y       z     vdW  Elec       q    Type
REMARK                         _______ _______ _______ _____ _____    ______ ____
ROOT
ATOM      1  N   UNL     1       2.648   6.357  20.125  0.00  0.00    +0.000 N 
ATOM      2  C   UNL     1       2.333   7.148  19.045  0.00  0.00    +0.000 C 
ATOM      3  O   UNL     1       1.996   6.549  18.028  0.00  0.00    +0.000 OA
ATOM      4  H   UNL     1       2.522   6.733  21.058  0.00  0.00    +0.000 HD
ENDROOT
BRANCH   1  10
ATOM      5  C   UNL     1       3.577   4.035  19.489  0.00  0.00    +0.000 A 
ATOM      6  C   UNL     1       3.349   2.637  19.428  0.00  0.00    +0.000 A 
ATOM      7  C   UNL     1       2.103   2.108  19.791  0.00  0.00    +0.000 A 
ATOM      8  C   UNL     1       1.123   2.939  20.300  0.00  0.00    +0.000 A 
ATOM      9  C   UNL     1       1.320   4.327  20.360  0.00  0.00    +0.000 A 
ATOM     10  C   UNL     1       2.557   4.916  19.981  0.00  0.00    +0.000 A 
BRANCH   5  11
ATOM     11  C   UNL     1       4.899   4.414  18.879  0.00  0.00    +0.000 C 
ATOM     12  O   UNL     1       5.248   3.985  17.789  0.00  0.00    +0.000 OA
BRANCH  11  14
ATOM     13  C   UNL     1       6.905   5.590  19.152  0.00  0.00    +0.000 C 
ATOM     14  O   UNL     1       5.614   5.261  19.678  0.00  0.00    +0.000 OA
ENDBRANCH  11  14
ENDBRANCH   5  11
ENDBRANCH   1  10
BRANCH   2  15
ATOM     15  C   UNL     1       2.154   8.649  19.001  0.00  0.00    +0.000 C 
BRANCH  15  16
ATOM     16  C   UNL     1       1.054   9.244  20.005  0.00  0.00    +0.000 A 
ATOM     17  C   UNL     1       1.402   8.956  21.406  0.00  0.00    +0.000 A 
ATOM     18  C   UNL     1       0.549   9.389  22.390  0.00  0.00    +0.000 A 
ATOM     19  C   UNL     1      -0.466  10.292  22.117  0.00  0.00    +0.000 A 
ATOM     20  C   UNL     1      -0.724  10.739  20.765  0.00  0.00    +0.000 A 
ATOM     21  C   UNL     1      -1.440  11.939  20.556  0.00  0.00    +0.000 A 
ATOM     22  C   UNL     1      -1.633  12.545  19.262  0.00  0.00    +0.000 A 
ATOM     23  C   UNL     1      -2.059  11.648  18.269  0.00  0.00    +0.000 A 
ATOM     24  C   UNL     1      -1.065  10.744  18.399  0.00  0.00    +0.000 A 
ATOM     25  C   UNL     1      -0.197  10.156  19.658  0.00  0.00    +0.000 A 
ENDBRANCH  15  16
ENDBRANCH   2  15
TORSDOF 5
ENDMDL
MODEL 7
REMARK VINA RESULT:      -7.3      1.782      3.325
REMARK  Name = 
REMARK  6 active torsions:
REMARK  status: ('A' for Active; 'I' for Inactive)
REMARK    1  A    between atoms: C_1  and  O_2
REMARK    2  A    between atoms: O_2  and  C_3
REMARK    3  A    between atoms: C_3  and  C_5
REMARK    4  A    between atoms: C_10  and  N_11
REMARK    5  A    between atoms: C_12  and  C_14
REMARK    6  A    between atoms: C_14  and  C_15
REMARK                            x       y       z     vdW  Elec       q    Type
REMARK                         _______ _______ _______ _____ _____    ______ ____
ROOT
ATOM      1  N   UNL     1       2.586   5.915  18.074  0.00  0.00    +0.000 N 
ATOM      2  C   UNL     1       2.681   6.047  19.439  0.00  0.00    +0.000 C 
ATOM      3  O   UNL     1       3.728   5.650  19.942  0.00  0.00    +0.000 OA
ATOM      4  H   UNL     1       1.996   6.561  17.561  0.00  0.00    +0.000 HD
ENDROOT
BRANCH   1  10
ATOM      5  C   UNL     1       3.926   3.941  17.090  0.00  0.00    +0.000 A 
ATOM      6  C   UNL     1       5.059   3.524  16.346  0.00  0.00    +0.000 A 
ATOM      7  C   UNL     1       6.005   4.464  15.915  0.00  0.00    +0.000 A 
ATOM      8  C   UNL     1       5.788   5.811  16.130  0.00  0.00    +0.000 A 
ATOM      9  C   UNL     1       4.680   6.248  16.872  0.00  0.00    +0.000 A 
ATOM     10  C   UNL     1       3.704   5.334  17.353  0.00  0.00    +0.000 A 
BRANCH   5  11
ATOM     11  C   UNL     1       3.142   2.772  17.620  0.00  0.00    +0.000 C 
ATOM     12  O   UNL     1       3.697   1.765  18.036  0.00  0.00    +0.000 OA
BRANCH  11  14
ATOM     13  C   UNL     1       1.118   2.660  18.791  0.00  0.00    +0.000 C 
ATOM     14  O   UNL     1       1.795   2.987  17.571  0.00  0.00    +0.000 OA
ENDBRANCH  11  14
ENDBRANCH   5  11
ENDBRANCH   1  10
BRANCH   2  15
ATOM     15  C   UNL     1       1.757   6.793  20.376  0.00  0.00    +0.000 C 
BRANCH  15  16
ATOM     16  C   UNL     1       1.514   8.339  20.023  0.00  0.00    +0.000 A 
ATOM     17  C   UNL     1       1.939   8.642  18.647  0.00  0.00    +0.000 A 
ATOM     18  C   UNL     1       1.809   9.931  18.195  0.00  0.00    +0.000 A 
ATOM     19  C   UNL     1       1.064  10.867  18.895  0.00  0.00    +0.000 A 
ATOM     20  C   UNL     1       0.476  10.546  20.178  0.00  0.00    +0.000 A 
ATOM     21  C   UNL     1      -0.600  11.324  20.663  0.00  0.00    +0.000 A 
ATOM     22  C   UNL     1      -1.346  11.010  21.856  0.00  0.00    +0.000 A 
ATOM     23  C   UNL     1      -0.543  10.702  22.967  0.00  0.00    +0.000 A 
ATOM     24  C   UNL     1       0.185   9.716  22.401  0.00  0.00    +0.000 A 
ATOM     25  C   UNL     1       0.791   9.442  20.904  0.00  0.00    +0.000 A 
ENDBRANCH  15  16
ENDBRANCH   2  15
TORSDOF 5
ENDMDL
MODEL 8
REMARK VINA RESULT:      -7.2      1.926      6.491
REMARK  Name = 
REMARK  6 active torsions:
REMARK  status: ('A' for Active; 'I' for Inactive)
REMARK    1  A    between atoms: C_1  and  O_2
REMARK    2  A    between atoms: O_2  and  C_3
REMARK    3  A    between atoms: C_3  and  C_5
REMARK    4  A    between atoms: C_10  and  N_11
REMARK    5  A    between atoms: C_12  and  C_14
REMARK    6  A    between atoms: C_14  and  C_15
REMARK                            x       y       z     vdW  Elec       q    Type
REMARK                         _______ _______ _______ _____ _____    ______ ____
ROOT
ATOM      1  N   UNL     1       2.554   7.035  20.564  0.00  0.00    +0.000 N 
ATOM      2  C   UNL     1       2.123   5.729  20.574  0.00  0.00    +0.000 C 
ATOM      3  O   UNL     1       0.906   5.569  20.539  0.00  0.00    +0.000 OA
ATOM      4  H   UNL     1       3.467   7.244  20.178  0.00  0.00    +0.000 HD
ENDROOT
BRANCH   1  10
ATOM      5  C   UNL     1       1.223   8.898  19.373  0.00  0.00    +0.000 A 
ATOM      6  C   UNL     1       0.210   9.885  19.469  0.00  0.00    +0.000 A 
ATOM      7  C   UNL     1      -0.429  10.125  20.693  0.00  0.00    +0.000 A 
ATOM      8  C   UNL     1      -0.138   9.335  21.789  0.00  0.00    +0.000 A 
ATOM      9  C   UNL     1       0.868   8.360  21.723  0.00  0.00    +0.000 A 
ATOM     10  C   UNL     1       1.562   8.093  20.512  0.00  0.00    +0.000 A 
BRANCH   5  11
ATOM     11  C   UNL     1       1.911   8.930  18.036  0.00  0.00    +0.000 C 
ATOM     12  O   UNL     1       2.025   9.966  17.398  0.00  0.00    +0.000 OA
BRANCH  11  14
ATOM     13  C   UNL     1       3.729   7.698  17.223  0.00  0.00    +0.000 C 
ATOM     14  O   UNL     1       2.364   7.698  17.657  0.00  0.00    +0.000 OA
ENDBRANCH  11  14
ENDBRANCH   5  11
ENDBRANCH   1  10
BRANCH   2  15
ATOM     15  C   UNL     1       2.945   4.469  20.421  0.00  0.00    +0.000 C 
BRANCH  15  16
ATOM     16  C   UNL     1       3.776   4.346  19.055  0.00  0.00    +0.000 A 
ATOM     17  C   UNL     1       2.925   3.861  17.957  0.00  0.00    +0.000 A 
ATOM     18  C   UNL     1       3.493   3.689  16.720  0.00  0.00    +0.000 A 
ATOM     19  C   UNL     1       4.750   4.196  16.429  0.00  0.00    +0.000 A 
ATOM     20  C   UNL     1       5.548   4.844  17.447  0.00  0.00    +0.000 A 
ATOM     21  C   UNL     1       6.597   5.709  17.061  0.00  0.00    +0.000 A 
ATOM     22  C   UNL     1       7.362   6.508  17.986  0.00  0.00    +0.000 A 
ATOM     23  C   UNL     1       7.822   5.800  19.108  0.00  0.00    +0.000 A 
ATOM     24  C   UNL     1       6.631   5.320  19.524  0.00  0.00    +0.000 A 
ATOM     25  C   UNL     1       5.272   4.794  18.776  0.00  0.00    +0.000 A 
ENDBRANCH  15  16
ENDBRANCH   2  15
TORSDOF 5
ENDMDL
MODEL 9
REMARK VINA RESULT:      -7.2      1.632      2.941
REMARK  Name = 
REMARK  6 active torsions:
REMARK  status: ('A' for Active; 'I' for Inactive)
REMARK    1  A    between atoms: C_1  and  O_2
REMARK    2  A    between atoms: O_2  and  C_3
REMARK    3  A    between atoms: C_3  and  C_5
REMARK    4  A    between atoms: C_10  and  N_11
REMARK    5  A    between atoms: C_12  and  C_14
REMARK    6  A    between atoms: C_14  and  C_15
REMARK                            x       y       z     vdW  Elec       q    Type
REMARK                         _______ _______ _______ _____ _____    ______ ____
ROOT
ATOM      1  N   UNL     1       2.002   5.996  17.795  0.00  0.00    +0.000 N 
ATOM      2  C   UNL     1       2.348   6.871  18.797  0.00  0.00    +0.000 C 
ATOM      3  O   UNL     1       2.973   6.386  19.736  0.00  0.00    +0.000 OA
ATOM      4  H   UNL     1       1.883   6.353  16.855  0.00  0.00    +0.000 HD
ENDROOT
BRANCH   1  10
ATOM      5  C   UNL     1       3.701   4.056  17.694  0.00  0.00    +0.000 A 
ATOM      6  C   UNL     1       3.939   2.671  17.883  0.00  0.00    +0.000 A 
ATOM      7  C   UNL     1       2.887   1.814  18.233  0.00  0.00    +0.000 A 
ATOM      8  C   UNL     1       1.632   2.333  18.490  0.00  0.00    +0.000 A 
ATOM      9  C   UNL     1       1.368   3.697  18.300  0.00  0.00    +0.000 A 
ATOM     10  C   UNL     1       2.395   4.604  17.922  0.00  0.00    +0.000 A 
BRANCH   5  11
ATOM     11  C   UNL     1       4.907   4.761  17.137  0.00  0.00    +0.000 C 
ATOM     12  O   UNL     1       4.800   5.671  16.328  0.00  0.00    +0.000 OA
BRANCH  11  14
ATOM     13  C   UNL     1       7.227   4.615  16.862  0.00  0.00    +0.000 C 
ATOM     14  O   UNL     1       6.075   4.263  17.639  0.00  0.00    +0.000 OA
ENDBRANCH  11  14
ENDBRANCH   5  11
ENDBRANCH   1  10
BRANCH   2  15
ATOM     15  C   UNL     1       2.238   8.380  18.805  0.00  0.00    +0.000 C 
BRANCH  15  16
ATOM     16  C   UNL     1       1.134   8.988  19.798  0.00  0.00    +0.000 A 
ATOM     17  C   UNL     1       1.450   8.672  21.200  0.00  0.00    +0.000 A 
ATOM     18  C   UNL     1       0.590   9.112  22.175  0.00  0.00    +0.000 A 
ATOM     19  C   UNL     1      -0.397  10.044  21.896  0.00  0.00    +0.000 A 
ATOM     20  C   UNL     1      -0.620  10.516  20.546  0.00  0.00    +0.000 A 
ATOM     21  C   UNL     1      -1.303  11.736  20.341  0.00  0.00    +0.000 A 
ATOM     22  C   UNL     1      -1.457  12.365  19.053  0.00  0.00    +0.000 A 
ATOM     23  C   UNL     1      -1.886  11.492  18.040  0.00  0.00    +0.000 A 
ATOM     24  C   UNL     1      -0.918  10.561  18.175  0.00  0.00    +0.000 A 
ATOM     25  C   UNL     1      -0.087   9.936  19.441  0.00  0.00    +0.000 A 
ENDBRANCH  15  16
ENDBRANCH   2  15
TORSDOF 5
ENDMDL
