MODEL 1
REMARK VINA RESULT:      -8.7      0.000      0.000
REMARK  Name = 
REMARK  9 active torsions:
REMARK  status: ('A' for Active; 'I' for Inactive)
REMARK    1  A    between atoms: C_1  and  O_2
REMARK    2  A    between atoms: O_2  and  C_3
REMARK    3  A    between atoms: C_6  and  C_7
REMARK    4  A    between atoms: C_8  and  C_9
REMARK    5  A    between atoms: C_10  and  C_11
REMARK    6  A    between atoms: C_14  and  C_15
REMARK    7  A    between atoms: C_28  and  C_29
REMARK    8  A    between atoms: C_28  and  C_30
REMARK    9  A    between atoms: C_30  and  O_31
REMARK                            x       y       z     vdW  Elec       q    Type
REMARK                         _______ _______ _______ _____ _____    ______ ____
ROOT
ATOM      1  C   UNL     1       5.624   5.436  15.580  0.00  0.00    +0.000 C 
ATOM      2  C   UNL     1       5.113   6.743  16.225  0.00  0.00    +0.000 C 
ATOM      3  C   UNL     1       3.850   6.680  17.077  0.00  0.00    +0.000 C 
ATOM      4  C   UNL     1       3.661   5.445  17.993  0.00  0.00    +0.000 C 
ATOM      5  C   UNL     1       4.430   5.611  19.333  0.00  0.00    +0.000 C 
ATOM      6  C   UNL     1       2.105   5.325  18.355  0.00  0.00    +0.000 C 
ATOM      7  C   UNL     1       1.922   4.041  19.157  0.00  0.00    +0.000 C 
ATOM      8  C   UNL     1       2.315   2.789  18.441  0.00  0.00    +0.000 C 
ATOM      9  C   UNL     1       3.763   2.852  17.945  0.00  0.00    +0.000 C 
ATOM     10  C   UNL     1       4.126   4.166  17.201  0.00  0.00    +0.000 C 
ATOM     11  C   UNL     1       5.618   4.248  16.605  0.00  0.00    +0.000 C 
ATOM     12  C   UNL     1       5.935   2.900  15.898  0.00  0.00    +0.000 C 
ATOM     13  C   UNL     1       1.882   4.045  20.677  0.00  0.00    +0.000 C 
ATOM     14  O   UNL     1       0.693   3.921  19.887  0.00  0.00    +0.000 OA
ENDROOT
BRANCH   1  16
ATOM     15  C   UNL     1       7.353   5.277  13.849  0.00  0.00    +0.000 C 
ATOM     16  O   UNL     1       6.916   5.822  15.077  0.00  0.00    +0.000 OA
ENDBRANCH   1  16
BRANCH   6  17
ATOM     17  C   UNL     1       1.583   6.578  19.033  0.00  0.00    +0.000 C 
ATOM     18  C   UNL     1       2.080   7.285  20.057  0.00  0.00    +0.000 C 
BRANCH  18  19
ATOM     19  C   UNL     1       1.375   8.482  20.552  0.00  0.00    +0.000 A 
ATOM     20  C   UNL     1       1.032   9.541  19.727  0.00  0.00    +0.000 A 
ATOM     21  C   UNL     1       0.355  10.640  20.279  0.00  0.00    +0.000 A 
ATOM     22  C   UNL     1       0.021  10.676  21.642  0.00  0.00    +0.000 A 
ATOM     23  C   UNL     1       0.420   9.564  22.379  0.00  0.00    +0.000 A 
ATOM     24  N   UNL     1       1.082   8.496  21.876  0.00  0.00    +0.000 NA
BRANCH  22  25
ATOM     25  C   UNL     1      -0.714  11.795  22.270  0.00  0.00    +0.000 A 
ATOM     26  C   UNL     1      -0.280  13.131  22.135  0.00  0.00    +0.000 A 
ATOM     27  C   UNL     1      -0.955  14.191  22.752  0.00  0.00    +0.000 A 
ATOM     28  C   UNL     1      -2.091  13.939  23.512  0.00  0.00    +0.000 A 
ATOM     29  C   UNL     1      -2.533  12.632  23.653  0.00  0.00    +0.000 A 
ATOM     30  F   UNL     1      -3.625  12.384  24.388  0.00  0.00    +0.000 F 
ATOM     31  C   UNL     1      -1.863  11.571  23.050  0.00  0.00    +0.000 A 
ENDBRANCH  22  25
ENDBRANCH  18  19
ENDBRANCH   6  17
BRANCH  11  32
ATOM     32  C   UNL     1       6.787   4.491  17.596  0.00  0.00    +0.000 C 
BRANCH  32  33
ATOM     33  O   UNL     1       8.049   4.114  17.072  0.00  0.00    +0.000 OA
ATOM     34  H   UNL     1       8.484   3.547  17.728  0.00  0.00    +0.000 HD
ENDBRANCH  32  33
ENDBRANCH  11  32
TORSDOF 6
ENDMDL
MODEL 2
REMARK VINA RESULT:      -8.6      5.640      8.011
REMARK  Name = 
REMARK  9 active torsions:
REMARK  status: ('A' for Active; 'I' for Inactive)
REMARK    1  A    between atoms: C_1  and  O_2
REMARK    2  A    between atoms: O_2  and  C_3
REMARK    3  A    between atoms: C_6  and  C_7
REMARK    4  A    between atoms: C_8  and  C_9
REMARK    5  A    between atoms: C_10  and  C_11
REMARK    6  A    between atoms: C_14  and  C_15
REMARK    7  A    between atoms: C_28  and  C_29
REMARK    8  A    between atoms: C_28  and  C_30
REMARK    9  A    between atoms: C_30  and  O_31
REMARK                            x       y       z     vdW  Elec       q    Type
REMARK                         _______ _______ _______ _____ _____    ______ ____
ROOT
ATOM      1  C   UNL     1       3.237   3.790  19.759  0.00  0.00    +0.000 C 
ATOM      2  C   UNL     1       3.771   5.210  20.047  0.00  0.00    +0.000 C 
ATOM      3  C   UNL     1       4.965   5.709  19.241  0.00  0.00    +0.000 C 
ATOM      4  C   UNL     1       5.023   5.338  17.737  0.00  0.00    +0.000 C 
ATOM      5  C   UNL     1       4.172   6.315  16.880  0.00  0.00    +0.000 C 
ATOM      6  C   UNL     1       6.541   5.482  17.246  0.00  0.00    +0.000 C 
ATOM      7  C   UNL     1       6.598   5.002  15.800  0.00  0.00    +0.000 C 
ATOM      8  C   UNL     1       6.191   3.579  15.591  0.00  0.00    +0.000 C 
ATOM      9  C   UNL     1       4.787   3.306  16.140  0.00  0.00    +0.000 C 
ATOM     10  C   UNL     1       4.548   3.846  17.577  0.00  0.00    +0.000 C 
ATOM     11  C   UNL     1       3.108   3.524  18.218  0.00  0.00    +0.000 C 
ATOM     12  C   UNL     1       2.771   2.034  17.936  0.00  0.00    +0.000 C 
ATOM     13  C   UNL     1       6.531   5.972  14.630  0.00  0.00    +0.000 C 
ATOM     14  O   UNL     1       7.765   5.378  15.054  0.00  0.00    +0.000 OA
ENDROOT
BRANCH   1  16
ATOM     15  C   UNL     1       1.772   2.680  21.381  0.00  0.00    +0.000 C 
ATOM     16  O   UNL     1       2.007   3.763  20.505  0.00  0.00    +0.000 OA
ENDBRANCH   1  16
BRANCH   6  17
ATOM     17  C   UNL     1       7.079   6.882  17.473  0.00  0.00    +0.000 C 
ATOM     18  C   UNL     1       8.013   7.329  18.324  0.00  0.00    +0.000 C 
BRANCH  18  19
ATOM     19  C   UNL     1       8.364   8.760  18.367  0.00  0.00    +0.000 A 
ATOM     20  C   UNL     1       7.918   9.667  17.419  0.00  0.00    +0.000 A 
ATOM     21  C   UNL     1       8.294  11.015  17.539  0.00  0.00    +0.000 A 
ATOM     22  C   UNL     1       9.104  11.450  18.600  0.00  0.00    +0.000 A 
ATOM     23  C   UNL     1       9.500  10.455  19.488  0.00  0.00    +0.000 A 
ATOM     24  N   UNL     1       9.162   9.148  19.392  0.00  0.00    +0.000 NA
BRANCH  22  25
ATOM     25  C   UNL     1       9.507  12.860  18.789  0.00  0.00    +0.000 A 
ATOM     26  C   UNL     1      10.710  13.202  19.442  0.00  0.00    +0.000 A 
ATOM     27  C   UNL     1      11.082  14.536  19.651  0.00  0.00    +0.000 A 
ATOM     28  C   UNL     1      10.261  15.562  19.198  0.00  0.00    +0.000 A 
ATOM     29  C   UNL     1       9.077  15.243  18.550  0.00  0.00    +0.000 A 
ATOM     30  F   UNL     1       8.281  16.228  18.115  0.00  0.00    +0.000 F 
ATOM     31  C   UNL     1       8.696  13.920  18.346  0.00  0.00    +0.000 A 
ENDBRANCH  22  25
ENDBRANCH  18  19
ENDBRANCH   6  17
BRANCH  11  32
ATOM     32  C   UNL     1       1.886   4.338  17.714  0.00  0.00    +0.000 C 
BRANCH  32  33
ATOM     33  O   UNL     1       0.667   3.621  17.800  0.00  0.00    +0.000 OA
ATOM     34  H   UNL     1       0.293   3.566  16.907  0.00  0.00    +0.000 HD
ENDBRANCH  32  33
ENDBRANCH  11  32
TORSDOF 6
ENDMDL
MODEL 3
REMARK VINA RESULT:      -8.6      5.934      8.269
REMARK  Name = 
REMARK  9 active torsions:
REMARK  status: ('A' for Active; 'I' for Inactive)
REMARK    1  A    between atoms: C_1  and  O_2
REMARK    2  A    between atoms: O_2  and  C_3
REMARK    3  A    between atoms: C_6  and  C_7
REMARK    4  A    between atoms: C_8  and  C_9
REMARK    5  A    between atoms: C_10  and  C_11
REMARK    6  A    between atoms: C_14  and  C_15
REMARK    7  A    between atoms: C_28  and  C_29
REMARK    8  A    between atoms: C_28  and  C_30
REMARK    9  A    between atoms: C_30  and  O_31
REMARK                            x       y       z     vdW  Elec       q    Type
REMARK                         _______ _______ _______ _____ _____    ______ ____
ROOT
ATOM      1  C   UNL     1       3.441   3.794  19.767  0.00  0.00    +0.000 C 
ATOM      2  C   UNL     1       3.960   5.220  20.052  0.00  0.00    +0.000 C 
ATOM      3  C   UNL     1       5.120   5.746  19.213  0.00  0.00    +0.000 C 
ATOM      4  C   UNL     1       5.135   5.392  17.705  0.00  0.00    +0.000 C 
ATOM      5  C   UNL     1       4.240   6.364  16.886  0.00  0.00    +0.000 C 
ATOM      6  C   UNL     1       6.633   5.566  17.166  0.00  0.00    +0.000 C 
ATOM      7  C   UNL     1       6.651   5.102  15.714  0.00  0.00    +0.000 C 
ATOM      8  C   UNL     1       6.260   3.674  15.503  0.00  0.00    +0.000 C 
ATOM      9  C   UNL     1       4.880   3.372  16.094  0.00  0.00    +0.000 C 
ATOM     10  C   UNL     1       4.678   3.893  17.544  0.00  0.00    +0.000 C 
ATOM     11  C   UNL     1       3.266   3.542  18.228  0.00  0.00    +0.000 C 
ATOM     12  C   UNL     1       2.944   2.049  17.941  0.00  0.00    +0.000 C 
ATOM     13  C   UNL     1       6.530   6.082  14.558  0.00  0.00    +0.000 C 
ATOM     14  O   UNL     1       7.786   5.505  14.934  0.00  0.00    +0.000 OA
ENDROOT
BRANCH   1  16
ATOM     15  C   UNL     1       2.084   2.689  21.484  0.00  0.00    +0.000 C 
ATOM     16  O   UNL     1       2.236   3.739  20.552  0.00  0.00    +0.000 OA
ENDBRANCH   1  16
BRANCH   6  17
ATOM     17  C   UNL     1       7.156   6.973  17.390  0.00  0.00    +0.000 C 
ATOM     18  C   UNL     1       8.035   7.443  18.285  0.00  0.00    +0.000 C 
BRANCH  18  19
ATOM     19  C   UNL     1       8.382   8.875  18.314  0.00  0.00    +0.000 A 
ATOM     20  C   UNL     1       9.276   9.409  19.227  0.00  0.00    +0.000 A 
ATOM     21  C   UNL     1       9.556  10.784  19.180  0.00  0.00    +0.000 A 
ATOM     22  C   UNL     1       8.951  11.614  18.225  0.00  0.00    +0.000 A 
ATOM     23  C   UNL     1       8.065  10.976  17.361  0.00  0.00    +0.000 A 
ATOM     24  N   UNL     1       7.768   9.656  17.390  0.00  0.00    +0.000 NA
BRANCH  22  25
ATOM     25  C   UNL     1       9.229  13.062  18.113  0.00  0.00    +0.000 A 
ATOM     26  C   UNL     1       8.266  14.030  18.471  0.00  0.00    +0.000 A 
ATOM     27  C   UNL     1       8.514  15.401  18.339  0.00  0.00    +0.000 A 
ATOM     28  C   UNL     1       9.741  15.839  17.854  0.00  0.00    +0.000 A 
ATOM     29  C   UNL     1      10.701  14.902  17.500  0.00  0.00    +0.000 A 
ATOM     30  F   UNL     1      11.883  15.319  17.029  0.00  0.00    +0.000 F 
ATOM     31  C   UNL     1      10.459  13.536  17.621  0.00  0.00    +0.000 A 
ENDBRANCH  22  25
ENDBRANCH  18  19
ENDBRANCH   6  17
BRANCH  11  32
ATOM     32  C   UNL     1       2.015   4.340  17.772  0.00  0.00    +0.000 C 
BRANCH  32  33
ATOM     33  O   UNL     1       0.881   3.520  17.555  0.00  0.00    +0.000 OA
ATOM     34  H   UNL     1       0.606   3.634  16.632  0.00  0.00    +0.000 HD
ENDBRANCH  32  33
ENDBRANCH  11  32
TORSDOF 6
ENDMDL
MODEL 4
REMARK VINA RESULT:      -8.5      1.439      1.841
REMARK  Name = 
REMARK  9 active torsions:
REMARK  status: ('A' for Active; 'I' for Inactive)
REMARK    1  A    between atoms: C_1  and  O_2
REMARK    2  A    between atoms: O_2  and  C_3
REMARK    3  A    between atoms: C_6  and  C_7
REMARK    4  A    between atoms: C_8  and  C_9
REMARK    5  A    between atoms: C_10  and  C_11
REMARK    6  A    between atoms: C_14  and  C_15
REMARK    7  A    between atoms: C_28  and  C_29
REMARK    8  A    between atoms: C_28  and  C_30
REMARK    9  A    between atoms: C_30  and  O_31
REMARK                            x       y       z     vdW  Elec       q    Type
REMARK                         _______ _______ _______ _____ _____    ______ ____
ROOT
ATOM      1  C   UNL     1       5.811   5.446  15.588  0.00  0.00    +0.000 C 
ATOM      2  C   UNL     1       5.386   6.784  16.231  0.00  0.00    +0.000 C 
ATOM      3  C   UNL     1       4.116   6.808  17.074  0.00  0.00    +0.000 C 
ATOM      4  C   UNL     1       3.835   5.587  17.986  0.00  0.00    +0.000 C 
ATOM      5  C   UNL     1       4.604   5.699  19.332  0.00  0.00    +0.000 C 
ATOM      6  C   UNL     1       2.272   5.574  18.337  0.00  0.00    +0.000 C 
ATOM      7  C   UNL     1       1.996   4.305  19.136  0.00  0.00    +0.000 C 
ATOM      8  C   UNL     1       2.308   3.030  18.422  0.00  0.00    +0.000 C 
ATOM      9  C   UNL     1       3.760   2.993  17.936  0.00  0.00    +0.000 C 
ATOM     10  C   UNL     1       4.218   4.280  17.196  0.00  0.00    +0.000 C 
ATOM     11  C   UNL     1       5.716   4.260  16.612  0.00  0.00    +0.000 C 
ATOM     12  C   UNL     1       5.945   2.895  15.905  0.00  0.00    +0.000 C 
ATOM     13  C   UNL     1       1.946   4.311  20.656  0.00  0.00    +0.000 C 
ATOM     14  O   UNL     1       0.756   4.269  19.857  0.00  0.00    +0.000 OA
ENDROOT
BRANCH   1  16
ATOM     15  C   UNL     1       7.490   5.283  13.809  0.00  0.00    +0.000 C 
ATOM     16  O   UNL     1       7.130   5.743  15.095  0.00  0.00    +0.000 OA
ENDBRANCH   1  16
BRANCH   6  17
ATOM     17  C   UNL     1       1.833   6.859  19.013  0.00  0.00    +0.000 C 
ATOM     18  C   UNL     1       1.781   8.114  18.547  0.00  0.00    +0.000 C 
BRANCH  18  19
ATOM     19  C   UNL     1       1.319   9.216  19.411  0.00  0.00    +0.000 A 
ATOM     20  C   UNL     1       0.922   9.019  20.723  0.00  0.00    +0.000 A 
ATOM     21  C   UNL     1       0.502  10.125  21.480  0.00  0.00    +0.000 A 
ATOM     22  C   UNL     1       0.486  11.416  20.928  0.00  0.00    +0.000 A 
ATOM     23  C   UNL     1       0.898  11.498  19.602  0.00  0.00    +0.000 A 
ATOM     24  N   UNL     1       1.298  10.448  18.846  0.00  0.00    +0.000 NA
BRANCH  22  25
ATOM     25  C   UNL     1       0.080  12.618  21.687  0.00  0.00    +0.000 A 
ATOM     26  C   UNL     1      -0.935  12.566  22.666  0.00  0.00    +0.000 A 
ATOM     27  C   UNL     1      -1.345  13.707  23.365  0.00  0.00    +0.000 A 
ATOM     28  C   UNL     1      -0.738  14.931  23.108  0.00  0.00    +0.000 A 
ATOM     29  C   UNL     1       0.264  15.000  22.151  0.00  0.00    +0.000 A 
ATOM     30  F   UNL     1       0.850  16.178  21.898  0.00  0.00    +0.000 F 
ATOM     31  C   UNL     1       0.672  13.871  21.446  0.00  0.00    +0.000 A 
ENDBRANCH  22  25
ENDBRANCH  18  19
ENDBRANCH   6  17
BRANCH  11  32
ATOM     32  C   UNL     1       6.892   4.422  17.612  0.00  0.00    +0.000 C 
BRANCH  32  33
ATOM     33  O   UNL     1       8.141   4.029  17.070  0.00  0.00    +0.000 OA
ATOM     34  H   UNL     1       8.798   4.071  17.782  0.00  0.00    +0.000 HD
ENDBRANCH  32  33
ENDBRANCH  11  32
TORSDOF 6
ENDMDL
MODEL 5
REMARK VINA RESULT:      -8.4      1.002      1.219
REMARK  Name = 
REMARK  9 active torsions:
REMARK  status: ('A' for Active; 'I' for Inactive)
REMARK    1  A    between atoms: C_1  and  O_2
REMARK    2  A    between atoms: O_2  and  C_3
REMARK    3  A    between atoms: C_6  and  C_7
REMARK    4  A    between atoms: C_8  and  C_9
REMARK    5  A    between atoms: C_10  and  C_11
REMARK    6  A    between atoms: C_14  and  C_15
REMARK    7  A    between atoms: C_28  and  C_29
REMARK    8  A    between atoms: C_28  and  C_30
REMARK    9  A    between atoms: C_30  and  O_31
REMARK                            x       y       z     vdW  Elec       q    Type
REMARK                         _______ _______ _______ _____ _____    ______ ____
ROOT
ATOM      1  C   UNL     1       5.837   5.406  15.497  0.00  0.00    +0.000 C 
ATOM      2  C   UNL     1       5.457   6.808  16.022  0.00  0.00    +0.000 C 
ATOM      3  C   UNL     1       4.209   6.940  16.887  0.00  0.00    +0.000 C 
ATOM      4  C   UNL     1       3.925   5.816  17.916  0.00  0.00    +0.000 C 
ATOM      5  C   UNL     1       4.729   6.033  19.228  0.00  0.00    +0.000 C 
ATOM      6  C   UNL     1       2.371   5.873  18.302  0.00  0.00    +0.000 C 
ATOM      7  C   UNL     1       2.087   4.691  19.221  0.00  0.00    +0.000 C 
ATOM      8  C   UNL     1       2.353   3.348  18.622  0.00  0.00    +0.000 C 
ATOM      9  C   UNL     1       3.791   3.231  18.109  0.00  0.00    +0.000 C 
ATOM     10  C   UNL     1       4.259   4.432  17.242  0.00  0.00    +0.000 C 
ATOM     11  C   UNL     1       5.741   4.322  16.628  0.00  0.00    +0.000 C 
ATOM     12  C   UNL     1       5.922   2.892  16.047  0.00  0.00    +0.000 C 
ATOM     13  C   UNL     1       2.074   4.838  20.735  0.00  0.00    +0.000 C 
ATOM     14  O   UNL     1       0.865   4.751  19.971  0.00  0.00    +0.000 OA
ENDROOT
BRANCH   1  16
ATOM     15  C   UNL     1       7.444   5.096  13.672  0.00  0.00    +0.000 C 
ATOM     16  O   UNL     1       7.149   5.624  14.948  0.00  0.00    +0.000 OA
ENDBRANCH   1  16
BRANCH   6  17
ATOM     17  C   UNL     1       1.977   7.226  18.865  0.00  0.00    +0.000 C 
ATOM     18  C   UNL     1       1.671   8.372  18.243  0.00  0.00    +0.000 C 
BRANCH  18  19
ATOM     19  C   UNL     1       1.323   9.576  19.019  0.00  0.00    +0.000 A 
ATOM     20  C   UNL     1       1.423  10.856  18.498  0.00  0.00    +0.000 A 
ATOM     21  C   UNL     1       1.064  11.948  19.304  0.00  0.00    +0.000 A 
ATOM     22  C   UNL     1       0.606  11.760  20.617  0.00  0.00    +0.000 A 
ATOM     23  C   UNL     1       0.551  10.436  21.041  0.00  0.00    +0.000 A 
ATOM     24  N   UNL     1       0.900   9.365  20.290  0.00  0.00    +0.000 NA
BRANCH  22  25
ATOM     25  C   UNL     1       0.190  12.871  21.499  0.00  0.00    +0.000 A 
ATOM     26  C   UNL     1       0.864  14.111  21.494  0.00  0.00    +0.000 A 
ATOM     27  C   UNL     1       0.494  15.156  22.348  0.00  0.00    +0.000 A 
ATOM     28  C   UNL     1      -0.572  14.988  23.225  0.00  0.00    +0.000 A 
ATOM     29  C   UNL     1      -1.249  13.777  23.241  0.00  0.00    +0.000 A 
ATOM     30  F   UNL     1      -2.274  13.609  24.086  0.00  0.00    +0.000 F 
ATOM     31  C   UNL     1      -0.881  12.730  22.400  0.00  0.00    +0.000 A 
ENDBRANCH  22  25
ENDBRANCH  18  19
ENDBRANCH   6  17
BRANCH  11  32
ATOM     32  C   UNL     1       6.945   4.548  17.582  0.00  0.00    +0.000 C 
BRANCH  32  33
ATOM     33  O   UNL     1       8.164   4.043  17.067  0.00  0.00    +0.000 OA
ATOM     34  H   UNL     1       8.639   3.615  17.797  0.00  0.00    +0.000 HD
ENDBRANCH  32  33
ENDBRANCH  11  32
TORSDOF 6
ENDMDL
MODEL 6
REMARK VINA RESULT:      -8.3      5.584      8.082
REMARK  Name = 
REMARK  9 active torsions:
REMARK  status: ('A' for Active; 'I' for Inactive)
REMARK    1  A    between atoms: C_1  and  O_2
REMARK    2  A    between atoms: O_2  and  C_3
REMARK    3  A    between atoms: C_6  and  C_7
REMARK    4  A    between atoms: C_8  and  C_9
REMARK    5  A    between atoms: C_10  and  C_11
REMARK    6  A    between atoms: C_14  and  C_15
REMARK    7  A    between atoms: C_28  and  C_29
REMARK    8  A    between atoms: C_28  and  C_30
REMARK    9  A    between atoms: C_30  and  O_31
REMARK                            x       y       z     vdW  Elec       q    Type
REMARK                         _______ _______ _______ _____ _____    ______ ____
ROOT
ATOM      1  C   UNL     1       3.381   3.720  19.670  0.00  0.00    +0.000 C 
ATOM      2  C   UNL     1       3.922   5.130  19.993  0.00  0.00    +0.000 C 
ATOM      3  C   UNL     1       5.097   5.656  19.176  0.00  0.00    +0.000 C 
ATOM      4  C   UNL     1       5.119   5.337  17.660  0.00  0.00    +0.000 C 
ATOM      5  C   UNL     1       4.248   6.343  16.857  0.00  0.00    +0.000 C 
ATOM      6  C   UNL     1       6.625   5.498  17.137  0.00  0.00    +0.000 C 
ATOM      7  C   UNL     1       6.647   5.067  15.675  0.00  0.00    +0.000 C 
ATOM      8  C   UNL     1       6.234   3.652  15.428  0.00  0.00    +0.000 C 
ATOM      9  C   UNL     1       4.844   3.360  16.000  0.00  0.00    +0.000 C 
ATOM     10  C   UNL     1       4.639   3.851  17.460  0.00  0.00    +0.000 C 
ATOM     11  C   UNL     1       3.215   3.508  18.124  0.00  0.00    +0.000 C 
ATOM     12  C   UNL     1       2.870   2.028  17.799  0.00  0.00    +0.000 C 
ATOM     13  C   UNL     1       6.553   6.076  14.541  0.00  0.00    +0.000 C 
ATOM     14  O   UNL     1       7.796   5.469  14.914  0.00  0.00    +0.000 OA
ENDROOT
BRANCH   1  16
ATOM     15  C   UNL     1       1.634   4.876  20.943  0.00  0.00    +0.000 C 
ATOM     16  O   UNL     1       2.169   3.668  20.443  0.00  0.00    +0.000 OA
ENDBRANCH   1  16
BRANCH   6  17
ATOM     17  C   UNL     1       7.170   6.890  17.399  0.00  0.00    +0.000 C 
ATOM     18  C   UNL     1       8.016   7.331  18.339  0.00  0.00    +0.000 C 
BRANCH  18  19
ATOM     19  C   UNL     1       8.395   8.755  18.397  0.00  0.00    +0.000 A 
ATOM     20  C   UNL     1       7.946   9.685  17.473  0.00  0.00    +0.000 A 
ATOM     21  C   UNL     1       8.350  11.023  17.606  0.00  0.00    +0.000 A 
ATOM     22  C   UNL     1       9.191  11.426  18.655  0.00  0.00    +0.000 A 
ATOM     23  C   UNL     1       9.587  10.410  19.520  0.00  0.00    +0.000 A 
ATOM     24  N   UNL     1       9.222   9.111  19.411  0.00  0.00    +0.000 NA
BRANCH  22  25
ATOM     25  C   UNL     1       9.625  12.825  18.858  0.00  0.00    +0.000 A 
ATOM     26  C   UNL     1       9.766  13.718  17.774  0.00  0.00    +0.000 A 
ATOM     27  C   UNL     1      10.205  15.035  17.957  0.00  0.00    +0.000 A 
ATOM     28  C   UNL     1      10.505  15.493  19.234  0.00  0.00    +0.000 A 
ATOM     29  C   UNL     1      10.369  14.629  20.311  0.00  0.00    +0.000 A 
ATOM     30  F   UNL     1      10.660  15.066  21.543  0.00  0.00    +0.000 F 
ATOM     31  C   UNL     1       9.941  13.316  20.137  0.00  0.00    +0.000 A 
ENDBRANCH  22  25
ENDBRANCH  18  19
ENDBRANCH   6  17
BRANCH  11  32
ATOM     32  C   UNL     1       1.982   4.338  17.677  0.00  0.00    +0.000 C 
BRANCH  32  33
ATOM     33  O   UNL     1       0.772   3.601  17.714  0.00  0.00    +0.000 OA
ATOM     34  H   UNL     1       0.662   3.170  16.852  0.00  0.00    +0.000 HD
ENDBRANCH  32  33
ENDBRANCH  11  32
TORSDOF 6
ENDMDL
MODEL 7
REMARK VINA RESULT:      -8.2      5.392      7.935
REMARK  Name = 
REMARK  9 active torsions:
REMARK  status: ('A' for Active; 'I' for Inactive)
REMARK    1  A    between atoms: C_1  and  O_2
REMARK    2  A    between atoms: O_2  and  C_3
REMARK    3  A    between atoms: C_6  and  C_7
REMARK    4  A    between atoms: C_8  and  C_9
REMARK    5  A    between atoms: C_10  and  C_11
REMARK    6  A    between atoms: C_14  and  C_15
REMARK    7  A    between atoms: C_28  and  C_29
REMARK    8  A    between atoms: C_28  and  C_30
REMARK    9  A    between atoms: C_30  and  O_31
REMARK                            x       y       z     vdW  Elec       q    Type
REMARK                         _______ _______ _______ _____ _____    ______ ____
ROOT
ATOM      1  C   UNL     1       3.709   3.518  19.709  0.00  0.00    +0.000 C 
ATOM      2  C   UNL     1       4.187   4.952  20.025  0.00  0.00    +0.000 C 
ATOM      3  C   UNL     1       5.299   5.547  19.168  0.00  0.00    +0.000 C 
ATOM      4  C   UNL     1       5.278   5.243  17.649  0.00  0.00    +0.000 C 
ATOM      5  C   UNL     1       4.323   6.207  16.892  0.00  0.00    +0.000 C 
ATOM      6  C   UNL     1       6.750   5.488  17.069  0.00  0.00    +0.000 C 
ATOM      7  C   UNL     1       6.737   5.072  15.603  0.00  0.00    +0.000 C 
ATOM      8  C   UNL     1       6.390   3.639  15.357  0.00  0.00    +0.000 C 
ATOM      9  C   UNL     1       5.041   3.269  15.980  0.00  0.00    +0.000 C 
ATOM     10  C   UNL     1       4.869   3.735  17.452  0.00  0.00    +0.000 C 
ATOM     11  C   UNL     1       3.493   3.310  18.169  0.00  0.00    +0.000 C 
ATOM     12  C   UNL     1       3.214   1.817  17.841  0.00  0.00    +0.000 C 
ATOM     13  C   UNL     1       6.544   6.085  14.484  0.00  0.00    +0.000 C 
ATOM     14  O   UNL     1       7.832   5.541  14.802  0.00  0.00    +0.000 OA
ENDROOT
BRANCH   1  16
ATOM     15  C   UNL     1       1.989   4.561  21.110  0.00  0.00    +0.000 C 
ATOM     16  O   UNL     1       2.533   3.394  20.529  0.00  0.00    +0.000 OA
ENDBRANCH   1  16
BRANCH   6  17
ATOM     17  C   UNL     1       7.231   6.905  17.324  0.00  0.00    +0.000 C 
ATOM     18  C   UNL     1       8.028   7.395  18.283  0.00  0.00    +0.000 C 
BRANCH  18  19
ATOM     19  C   UNL     1       8.348   8.833  18.328  0.00  0.00    +0.000 A 
ATOM     20  C   UNL     1       9.244   9.370  19.238  0.00  0.00    +0.000 A 
ATOM     21  C   UNL     1       9.498  10.751  19.208  0.00  0.00    +0.000 A 
ATOM     22  C   UNL     1       8.863  11.584  18.273  0.00  0.00    +0.000 A 
ATOM     23  C   UNL     1       7.978  10.942  17.413  0.00  0.00    +0.000 A 
ATOM     24  N   UNL     1       7.707   9.616  17.425  0.00  0.00    +0.000 NA
BRANCH  22  25
ATOM     25  C   UNL     1       9.113  13.038  18.180  0.00  0.00    +0.000 A 
ATOM     26  C   UNL     1      10.414  13.573  18.292  0.00  0.00    +0.000 A 
ATOM     27  C   UNL     1      10.652  14.951  18.235  0.00  0.00    +0.000 A 
ATOM     28  C   UNL     1       9.591  15.830  18.052  0.00  0.00    +0.000 A 
ATOM     29  C   UNL     1       8.306  15.321  17.936  0.00  0.00    +0.000 A 
ATOM     30  F   UNL     1       7.279  16.164  17.763  0.00  0.00    +0.000 F 
ATOM     31  C   UNL     1       8.059  13.953  18.001  0.00  0.00    +0.000 A 
ENDBRANCH  22  25
ENDBRANCH  18  19
ENDBRANCH   6  17
BRANCH  11  32
ATOM     32  C   UNL     1       2.201   4.077  17.779  0.00  0.00    +0.000 C 
BRANCH  32  33
ATOM     33  O   UNL     1       1.039   3.267  17.822  0.00  0.00    +0.000 OA
ATOM     34  H   UNL     1       0.562   3.478  18.639  0.00  0.00    +0.000 HD
ENDBRANCH  32  33
ENDBRANCH  11  32
TORSDOF 6
ENDMDL
MODEL 8
REMARK VINA RESULT:      -8.1      1.493      1.911
REMARK  Name = 
REMARK  9 active torsions:
REMARK  status: ('A' for Active; 'I' for Inactive)
REMARK    1  A    between atoms: C_1  and  O_2
REMARK    2  A    between atoms: O_2  and  C_3
REMARK    3  A    between atoms: C_6  and  C_7
REMARK    4  A    between atoms: C_8  and  C_9
REMARK    5  A    between atoms: C_10  and  C_11
REMARK    6  A    between atoms: C_14  and  C_15
REMARK    7  A    between atoms: C_28  and  C_29
REMARK    8  A    between atoms: C_28  and  C_30
REMARK    9  A    between atoms: C_30  and  O_31
REMARK                            x       y       z     vdW  Elec       q    Type
REMARK                         _______ _______ _______ _____ _____    ______ ____
ROOT
ATOM      1  C   UNL     1       5.846   5.445  15.408  0.00  0.00    +0.000 C 
ATOM      2  C   UNL     1       5.507   6.852  15.947  0.00  0.00    +0.000 C 
ATOM      3  C   UNL     1       4.263   7.012  16.814  0.00  0.00    +0.000 C 
ATOM      4  C   UNL     1       3.945   5.886  17.830  0.00  0.00    +0.000 C 
ATOM      5  C   UNL     1       4.753   6.065  19.144  0.00  0.00    +0.000 C 
ATOM      6  C   UNL     1       2.393   5.985  18.215  0.00  0.00    +0.000 C 
ATOM      7  C   UNL     1       2.073   4.802  19.122  0.00  0.00    +0.000 C 
ATOM      8  C   UNL     1       2.299   3.458  18.508  0.00  0.00    +0.000 C 
ATOM      9  C   UNL     1       3.734   3.304  17.995  0.00  0.00    +0.000 C 
ATOM     10  C   UNL     1       4.238   4.500  17.141  0.00  0.00    +0.000 C 
ATOM     11  C   UNL     1       5.717   4.353  16.527  0.00  0.00    +0.000 C 
ATOM     12  C   UNL     1       5.856   2.925  15.931  0.00  0.00    +0.000 C 
ATOM     13  C   UNL     1       2.063   4.933  20.637  0.00  0.00    +0.000 C 
ATOM     14  O   UNL     1       0.852   4.890  19.871  0.00  0.00    +0.000 OA
ENDROOT
BRANCH   1  16
ATOM     15  C   UNL     1       7.435   5.137  13.567  0.00  0.00    +0.000 C 
ATOM     16  O   UNL     1       7.165   5.631  14.862  0.00  0.00    +0.000 OA
ENDBRANCH   1  16
BRANCH   6  17
ATOM     17  C   UNL     1       2.038   7.343  18.793  0.00  0.00    +0.000 C 
ATOM     18  C   UNL     1       1.527   8.433  18.205  0.00  0.00    +0.000 C 
BRANCH  18  19
ATOM     19  C   UNL     1       1.275   9.657  18.986  0.00  0.00    +0.000 A 
ATOM     20  C   UNL     1       0.629   9.640  20.211  0.00  0.00    +0.000 A 
ATOM     21  C   UNL     1       0.435  10.852  20.894  0.00  0.00    +0.000 A 
ATOM     22  C   UNL     1       0.888  12.067  20.356  0.00  0.00    +0.000 A 
ATOM     23  C   UNL     1       1.516  11.969  19.118  0.00  0.00    +0.000 A 
ATOM     24  N   UNL     1       1.707  10.817  18.433  0.00  0.00    +0.000 NA
BRANCH  22  25
ATOM     25  C   UNL     1       0.734  13.367  21.043  0.00  0.00    +0.000 A 
ATOM     26  C   UNL     1       1.530  14.481  20.702  0.00  0.00    +0.000 A 
ATOM     27  C   UNL     1       1.410  15.706  21.370  0.00  0.00    +0.000 A 
ATOM     28  C   UNL     1       0.478  15.848  22.392  0.00  0.00    +0.000 A 
ATOM     29  C   UNL     1      -0.315  14.764  22.738  0.00  0.00    +0.000 A 
ATOM     30  F   UNL     1      -1.212  14.895  23.724  0.00  0.00    +0.000 F 
ATOM     31  C   UNL     1      -0.196  13.540  22.084  0.00  0.00    +0.000 A 
ENDBRANCH  22  25
ENDBRANCH  18  19
ENDBRANCH   6  17
BRANCH  11  32
ATOM     32  C   UNL     1       6.926   4.532  17.484  0.00  0.00    +0.000 C 
BRANCH  32  33
ATOM     33  O   UNL     1       8.147   4.073  16.929  0.00  0.00    +0.000 OA
ATOM     34  H   UNL     1       8.451   3.324  17.464  0.00  0.00    +0.000 HD
ENDBRANCH  32  33
ENDBRANCH  11  32
TORSDOF 6
ENDMDL
MODEL 9
REMARK VINA RESULT:      -8.0      5.264     10.453
REMARK  Name = 
REMARK  9 active torsions:
REMARK  status: ('A' for Active; 'I' for Inactive)
REMARK    1  A    between atoms: C_1  and  O_2
REMARK    2  A    between atoms: O_2  and  C_3
REMARK    3  A    between atoms: C_6  and  C_7
REMARK    4  A    between atoms: C_8  and  C_9
REMARK    5  A    between atoms: C_10  and  C_11
REMARK    6  A    between atoms: C_14  and  C_15
REMARK    7  A    between atoms: C_28  and  C_29
REMARK    8  A    between atoms: C_28  and  C_30
REMARK    9  A    between atoms: C_30  and  O_31
REMARK                            x       y       z     vdW  Elec       q    Type
REMARK                         _______ _______ _______ _____ _____    ______ ____
ROOT
ATOM      1  C   UNL     1       3.057  16.473  20.021  0.00  0.00    +0.000 C 
ATOM      2  C   UNL     1       3.547  15.102  19.507  0.00  0.00    +0.000 C 
ATOM      3  C   UNL     1       2.685  13.876  19.787  0.00  0.00    +0.000 C 
ATOM      4  C   UNL     1       1.147  14.041  19.686  0.00  0.00    +0.000 C 
ATOM      5  C   UNL     1       0.660  13.916  18.216  0.00  0.00    +0.000 C 
ATOM      6  C   UNL     1       0.462  12.851  20.511  0.00  0.00    +0.000 C 
ATOM      7  C   UNL     1      -1.042  13.095  20.498  0.00  0.00    +0.000 C 
ATOM      8  C   UNL     1      -1.477  14.382  21.122  0.00  0.00    +0.000 C 
ATOM      9  C   UNL     1      -0.783  15.585  20.478  0.00  0.00    +0.000 C 
ATOM     10  C   UNL     1       0.755  15.427  20.322  0.00  0.00    +0.000 C 
ATOM     11  C   UNL     1       1.534  16.693  19.710  0.00  0.00    +0.000 C 
ATOM     12  C   UNL     1       1.003  17.976  20.408  0.00  0.00    +0.000 C 
ATOM     13  C   UNL     1      -1.957  12.411  19.494  0.00  0.00    +0.000 C 
ATOM     14  O   UNL     1      -1.868  11.978  20.857  0.00  0.00    +0.000 OA
ENDROOT
BRANCH   1  16
ATOM     15  C   UNL     1       5.335  17.327  19.722  0.00  0.00    +0.000 C 
ATOM     16  O   UNL     1       3.965  17.388  19.382  0.00  0.00    +0.000 OA
ENDBRANCH   1  16
BRANCH   6  17
ATOM     17  C   UNL     1       0.890  11.488  19.998  0.00  0.00    +0.000 C 
ATOM     18  C   UNL     1       0.929  10.298  20.614  0.00  0.00    +0.000 C 
BRANCH  18  19
ATOM     19  C   UNL     1       1.399   9.099  19.898  0.00  0.00    +0.000 A 
ATOM     20  C   UNL     1       1.674   9.100  18.540  0.00  0.00    +0.000 A 
ATOM     21  C   UNL     1       2.124   7.914  17.937  0.00  0.00    +0.000 A 
ATOM     22  C   UNL     1       2.302   6.742  18.688  0.00  0.00    +0.000 A 
ATOM     23  C   UNL     1       1.990   6.851  20.040  0.00  0.00    +0.000 A 
ATOM     24  N   UNL     1       1.544   7.977  20.645  0.00  0.00    +0.000 NA
BRANCH  22  25
ATOM     25  C   UNL     1       2.799   5.475  18.110  0.00  0.00    +0.000 A 
ATOM     26  C   UNL     1       1.999   4.312  18.081  0.00  0.00    +0.000 A 
ATOM     27  C   UNL     1       2.475   3.102  17.563  0.00  0.00    +0.000 A 
ATOM     28  C   UNL     1       3.765   3.029  17.049  0.00  0.00    +0.000 A 
ATOM     29  C   UNL     1       4.564   4.163  17.067  0.00  0.00    +0.000 A 
ATOM     30  F   UNL     1       5.808   4.097  16.575  0.00  0.00    +0.000 F 
ATOM     31  C   UNL     1       4.101   5.368  17.588  0.00  0.00    +0.000 A 
ENDBRANCH  22  25
ENDBRANCH  18  19
ENDBRANCH   6  17
BRANCH  11  32
ATOM     32  C   UNL     1       1.412  16.959  18.186  0.00  0.00    +0.000 C 
BRANCH  32  33
ATOM     33  O   UNL     1       1.807  18.269  17.816  0.00  0.00    +0.000 OA
ATOM     34  H   UNL     1       2.763  18.254  17.652  0.00  0.00    +0.000 HD
ENDBRANCH  32  33
ENDBRANCH  11  32
TORSDOF 6
ENDMDL
