MODEL 1
REMARK VINA RESULT:      -6.2      0.000      0.000
REMARK  Name = 
REMARK  7 active torsions:
REMARK  status: ('A' for Active; 'I' for Inactive)
REMARK    1  A    between atoms: C_1  and  C_2
REMARK    2  A    between atoms: C_2  and  C_3
REMARK    3  A    between atoms: C_2  and  N_11
REMARK    4  A    between atoms: C_3  and  O_4
REMARK    5  A    between atoms: C_3  and  C_5
REMARK    6  A    between atoms: N_11  and  C_12
REMARK    7  A    between atoms: N_11  and  N_13
REMARK                            x       y       z     vdW  Elec       q    Type
REMARK                         _______ _______ _______ _____ _____    ______ ____
ROOT
ATOM      1  C   UNL     1       4.511   3.270  18.570  0.00  0.00    +0.000 C 
ENDROOT
BRANCH   1   2
ATOM      2  C   UNL     1       3.178   3.586  19.224  0.00  0.00    +0.000 A 
ATOM      3  C   UNL     1       3.018   4.780  19.942  0.00  0.00    +0.000 A 
ATOM      4  C   UNL     1       1.804   5.077  20.561  0.00  0.00    +0.000 A 
ATOM      5  C   UNL     1       0.734   4.192  20.462  0.00  0.00    +0.000 A 
ATOM      6  C   UNL     1       0.874   3.011  19.740  0.00  0.00    +0.000 A 
ATOM      7  C   UNL     1       2.087   2.709  19.114  0.00  0.00    +0.000 A 
ENDBRANCH   1   2
BRANCH   1   9
ATOM      8  C   UNL     1       5.230   4.600  16.486  0.00  0.00    +0.000 C 
ATOM      9  C   UNL     1       5.269   4.530  18.024  0.00  0.00    +0.000 C 
BRANCH   9  10
ATOM     10  N   UNL     1       6.642   4.612  18.582  0.00  0.00    +0.000 N 
ATOM     11  C   UNL     1       7.715   4.676  17.584  0.00  0.00    +0.000 C 
BRANCH  10  12
ATOM     12  N   UNL     1       6.750   5.449  19.595  0.00  0.00    +0.000 NA
ATOM     13  O   UNL     1       7.746   5.219  20.288  0.00  0.00    +0.000 OA
ENDBRANCH  10  12
ENDBRANCH   9  10
ENDBRANCH   1   9
BRANCH   1  14
ATOM     14  O   UNL     1       5.287   2.552  19.532  0.00  0.00    +0.000 OA
ATOM     15  H   UNL     1       6.117   3.037  19.666  0.00  0.00    +0.000 HD
ENDBRANCH   1  14
TORSDOF 5
ENDMDL
MODEL 2
REMARK VINA RESULT:      -6.1      0.534      1.395
REMARK  Name = 
REMARK  7 active torsions:
REMARK  status: ('A' for Active; 'I' for Inactive)
REMARK    1  A    between atoms: C_1  and  C_2
REMARK    2  A    between atoms: C_2  and  C_3
REMARK    3  A    between atoms: C_2  and  N_11
REMARK    4  A    between atoms: C_3  and  O_4
REMARK    5  A    between atoms: C_3  and  C_5
REMARK    6  A    between atoms: N_11  and  C_12
REMARK    7  A    between atoms: N_11  and  N_13
REMARK                            x       y       z     vdW  Elec       q    Type
REMARK                         _______ _______ _______ _____ _____    ______ ____
ROOT
ATOM      1  C   UNL     1       4.585   3.580  18.554  0.00  0.00    +0.000 C 
ENDROOT
BRANCH   1   2
ATOM      2  C   UNL     1       3.253   3.835  19.236  0.00  0.00    +0.000 A 
ATOM      3  C   UNL     1       2.212   2.904  19.106  0.00  0.00    +0.000 A 
ATOM      4  C   UNL     1       0.978   3.131  19.715  0.00  0.00    +0.000 A 
ATOM      5  C   UNL     1       0.772   4.283  20.468  0.00  0.00    +0.000 A 
ATOM      6  C   UNL     1       1.801   5.208  20.619  0.00  0.00    +0.000 A 
ATOM      7  C   UNL     1       3.042   4.983  20.015  0.00  0.00    +0.000 A 
ENDBRANCH   1   2
BRANCH   1   9
ATOM      8  C   UNL     1       4.746   5.410  16.751  0.00  0.00    +0.000 C 
ATOM      9  C   UNL     1       5.319   4.883  18.079  0.00  0.00    +0.000 C 
BRANCH   9  10
ATOM     10  N   UNL     1       6.790   4.686  18.049  0.00  0.00    +0.000 N 
ATOM     11  C   UNL     1       7.376   4.586  16.707  0.00  0.00    +0.000 C 
BRANCH  10  12
ATOM     12  N   UNL     1       7.441   5.452  18.903  0.00  0.00    +0.000 NA
ATOM     13  O   UNL     1       7.215   5.139  20.076  0.00  0.00    +0.000 OA
ENDBRANCH  10  12
ENDBRANCH   9  10
ENDBRANCH   1   9
BRANCH   1  14
ATOM     14  O   UNL     1       5.381   2.817  19.464  0.00  0.00    +0.000 OA
ATOM     15  H   UNL     1       6.257   3.233  19.514  0.00  0.00    +0.000 HD
ENDBRANCH   1  14
TORSDOF 5
ENDMDL
MODEL 3
REMARK VINA RESULT:      -6.1      1.291      1.842
REMARK  Name = 
REMARK  7 active torsions:
REMARK  status: ('A' for Active; 'I' for Inactive)
REMARK    1  A    between atoms: C_1  and  C_2
REMARK    2  A    between atoms: C_2  and  C_3
REMARK    3  A    between atoms: C_2  and  N_11
REMARK    4  A    between atoms: C_3  and  O_4
REMARK    5  A    between atoms: C_3  and  C_5
REMARK    6  A    between atoms: N_11  and  C_12
REMARK    7  A    between atoms: N_11  and  N_13
REMARK                            x       y       z     vdW  Elec       q    Type
REMARK                         _______ _______ _______ _____ _____    ______ ____
ROOT
ATOM      1  C   UNL     1       4.046   4.338  17.278  0.00  0.00    +0.000 C 
ENDROOT
BRANCH   1   2
ATOM      2  C   UNL     1       2.906   3.993  18.219  0.00  0.00    +0.000 A 
ATOM      3  C   UNL     1       2.130   2.847  17.987  0.00  0.00    +0.000 A 
ATOM      4  C   UNL     1       1.070   2.525  18.834  0.00  0.00    +0.000 A 
ATOM      5  C   UNL     1       0.778   3.336  19.927  0.00  0.00    +0.000 A 
ATOM      6  C   UNL     1       1.549   4.467  20.179  0.00  0.00    +0.000 A 
ATOM      7  C   UNL     1       2.616   4.792  19.336  0.00  0.00    +0.000 A 
ENDBRANCH   1   2
BRANCH   1   9
ATOM      8  C   UNL     1       4.813   6.697  16.591  0.00  0.00    +0.000 C 
ATOM      9  C   UNL     1       4.849   5.621  17.691  0.00  0.00    +0.000 C 
BRANCH   9  10
ATOM     10  N   UNL     1       6.224   5.273  18.129  0.00  0.00    +0.000 N 
ATOM     11  C   UNL     1       7.269   6.205  17.694  0.00  0.00    +0.000 C 
BRANCH  10  12
ATOM     12  N   UNL     1       6.293   4.880  19.386  0.00  0.00    +0.000 NA
ATOM     13  O   UNL     1       7.262   5.369  19.976  0.00  0.00    +0.000 OA
ENDBRANCH  10  12
ENDBRANCH   9  10
ENDBRANCH   1   9
BRANCH   1  14
ATOM     14  O   UNL     1       4.884   3.183  17.198  0.00  0.00    +0.000 OA
ATOM     15  H   UNL     1       4.670   2.716  16.374  0.00  0.00    +0.000 HD
ENDBRANCH   1  14
TORSDOF 5
ENDMDL
MODEL 4
REMARK VINA RESULT:      -6.1      1.316      1.803
REMARK  Name = 
REMARK  7 active torsions:
REMARK  status: ('A' for Active; 'I' for Inactive)
REMARK    1  A    between atoms: C_1  and  C_2
REMARK    2  A    between atoms: C_2  and  C_3
REMARK    3  A    between atoms: C_2  and  N_11
REMARK    4  A    between atoms: C_3  and  O_4
REMARK    5  A    between atoms: C_3  and  C_5
REMARK    6  A    between atoms: N_11  and  C_12
REMARK    7  A    between atoms: N_11  and  N_13
REMARK                            x       y       z     vdW  Elec       q    Type
REMARK                         _______ _______ _______ _____ _____    ______ ____
ROOT
ATOM      1  C   UNL     1       4.591   3.949  18.494  0.00  0.00    +0.000 C 
ENDROOT
BRANCH   1   2
ATOM      2  C   UNL     1       3.199   3.680  19.037  0.00  0.00    +0.000 A 
ATOM      3  C   UNL     1       2.266   2.982  18.255  0.00  0.00    +0.000 A 
ATOM      4  C   UNL     1       0.979   2.739  18.734  0.00  0.00    +0.000 A 
ATOM      5  C   UNL     1       0.611   3.181  20.002  0.00  0.00    +0.000 A 
ATOM      6  C   UNL     1       1.530   3.861  20.795  0.00  0.00    +0.000 A 
ATOM      7  C   UNL     1       2.823   4.103  20.322  0.00  0.00    +0.000 A 
ENDBRANCH   1   2
BRANCH   1   9
ATOM      8  C   UNL     1       3.951   6.337  17.773  0.00  0.00    +0.000 C 
ATOM      9  C   UNL     1       4.994   5.465  18.497  0.00  0.00    +0.000 C 
BRANCH   9  10
ATOM     10  N   UNL     1       6.375   5.652  17.983  0.00  0.00    +0.000 N 
ATOM     11  C   UNL     1       6.622   6.937  17.320  0.00  0.00    +0.000 C 
BRANCH  10  12
ATOM     12  N   UNL     1       7.308   5.251  18.824  0.00  0.00    +0.000 NA
ATOM     13  O   UNL     1       8.052   4.401  18.325  0.00  0.00    +0.000 OA
ENDBRANCH  10  12
ENDBRANCH   9  10
ENDBRANCH   1   9
BRANCH   1  14
ATOM     14  O   UNL     1       5.497   3.151  19.258  0.00  0.00    +0.000 OA
ATOM     15  H   UNL     1       5.091   2.985  20.124  0.00  0.00    +0.000 HD
ENDBRANCH   1  14
TORSDOF 5
ENDMDL
MODEL 5
REMARK VINA RESULT:      -6.1      1.319      1.367
REMARK  Name = 
REMARK  7 active torsions:
REMARK  status: ('A' for Active; 'I' for Inactive)
REMARK    1  A    between atoms: C_1  and  C_2
REMARK    2  A    between atoms: C_2  and  C_3
REMARK    3  A    between atoms: C_2  and  N_11
REMARK    4  A    between atoms: C_3  and  O_4
REMARK    5  A    between atoms: C_3  and  C_5
REMARK    6  A    between atoms: N_11  and  C_12
REMARK    7  A    between atoms: N_11  and  N_13
REMARK                            x       y       z     vdW  Elec       q    Type
REMARK                         _______ _______ _______ _____ _____    ______ ____
ROOT
ATOM      1  C   UNL     1       3.973   4.385  17.412  0.00  0.00    +0.000 C 
ENDROOT
BRANCH   1   2
ATOM      2  C   UNL     1       2.823   3.990  18.320  0.00  0.00    +0.000 A 
ATOM      3  C   UNL     1       2.560   4.735  19.479  0.00  0.00    +0.000 A 
ATOM      4  C   UNL     1       1.516   4.376  20.331  0.00  0.00    +0.000 A 
ATOM      5  C   UNL     1       0.718   3.275  20.032  0.00  0.00    +0.000 A 
ATOM      6  C   UNL     1       0.958   2.536  18.878  0.00  0.00    +0.000 A 
ATOM      7  C   UNL     1       1.999   2.894  18.018  0.00  0.00    +0.000 A 
ENDBRANCH   1   2
BRANCH   1   9
ATOM      8  C   UNL     1       4.591   6.855  17.034  0.00  0.00    +0.000 C 
ATOM      9  C   UNL     1       4.798   5.617  17.925  0.00  0.00    +0.000 C 
BRANCH   9  10
ATOM     10  N   UNL     1       6.227   5.261  18.115  0.00  0.00    +0.000 N 
ATOM     11  C   UNL     1       7.185   6.274  17.659  0.00  0.00    +0.000 C 
BRANCH  10  12
ATOM     12  N   UNL     1       6.483   4.717  19.288  0.00  0.00    +0.000 NA
ATOM     13  O   UNL     1       7.231   5.419  19.976  0.00  0.00    +0.000 OA
ENDBRANCH  10  12
ENDBRANCH   9  10
ENDBRANCH   1   9
BRANCH   1  14
ATOM     14  O   UNL     1       4.790   3.224  17.245  0.00  0.00    +0.000 OA
ATOM     15  H   UNL     1       4.215   2.493  16.965  0.00  0.00    +0.000 HD
ENDBRANCH   1  14
TORSDOF 5
ENDMDL
MODEL 6
REMARK VINA RESULT:      -6.0      2.387      2.741
REMARK  Name = 
REMARK  7 active torsions:
REMARK  status: ('A' for Active; 'I' for Inactive)
REMARK    1  A    between atoms: C_1  and  C_2
REMARK    2  A    between atoms: C_2  and  C_3
REMARK    3  A    between atoms: C_2  and  N_11
REMARK    4  A    between atoms: C_3  and  O_4
REMARK    5  A    between atoms: C_3  and  C_5
REMARK    6  A    between atoms: N_11  and  C_12
REMARK    7  A    between atoms: N_11  and  N_13
REMARK                            x       y       z     vdW  Elec       q    Type
REMARK                         _______ _______ _______ _____ _____    ______ ____
ROOT
ATOM      1  C   UNL     1       4.610   4.685  17.002  0.00  0.00    +0.000 C 
ENDROOT
BRANCH   1   2
ATOM      2  C   UNL     1       3.467   3.863  17.571  0.00  0.00    +0.000 A 
ATOM      3  C   UNL     1       2.216   4.460  17.788  0.00  0.00    +0.000 A 
ATOM      4  C   UNL     1       1.161   3.722  18.323  0.00  0.00    +0.000 A 
ATOM      5  C   UNL     1       1.339   2.378  18.639  0.00  0.00    +0.000 A 
ATOM      6  C   UNL     1       2.570   1.768  18.415  0.00  0.00    +0.000 A 
ATOM      7  C   UNL     1       3.629   2.502  17.874  0.00  0.00    +0.000 A 
ENDBRANCH   1   2
BRANCH   1   9
ATOM      8  C   UNL     1       5.563   5.253  19.325  0.00  0.00    +0.000 C 
ATOM      9  C   UNL     1       5.885   4.723  17.916  0.00  0.00    +0.000 C 
BRANCH   9  10
ATOM     10  N   UNL     1       6.996   5.451  17.252  0.00  0.00    +0.000 N 
ATOM     11  C   UNL     1       7.662   6.459  18.084  0.00  0.00    +0.000 C 
BRANCH  10  12
ATOM     12  N   UNL     1       7.792   4.670  16.550  0.00  0.00    +0.000 NA
ATOM     13  O   UNL     1       7.694   4.873  15.336  0.00  0.00    +0.000 OA
ENDBRANCH  10  12
ENDBRANCH   9  10
ENDBRANCH   1   9
BRANCH   1  14
ATOM     14  O   UNL     1       4.895   4.160  15.704  0.00  0.00    +0.000 OA
ATOM     15  H   UNL     1       4.184   4.442  15.106  0.00  0.00    +0.000 HD
ENDBRANCH   1  14
TORSDOF 5
ENDMDL
MODEL 7
REMARK VINA RESULT:      -6.0      1.545      1.657
REMARK  Name = 
REMARK  7 active torsions:
REMARK  status: ('A' for Active; 'I' for Inactive)
REMARK    1  A    between atoms: C_1  and  C_2
REMARK    2  A    between atoms: C_2  and  C_3
REMARK    3  A    between atoms: C_2  and  N_11
REMARK    4  A    between atoms: C_3  and  O_4
REMARK    5  A    between atoms: C_3  and  C_5
REMARK    6  A    between atoms: N_11  and  C_12
REMARK    7  A    between atoms: N_11  and  N_13
REMARK                            x       y       z     vdW  Elec       q    Type
REMARK                         _______ _______ _______ _____ _____    ______ ____
ROOT
ATOM      1  C   UNL     1       4.754   4.042  18.379  0.00  0.00    +0.000 C 
ENDROOT
BRANCH   1   2
ATOM      2  C   UNL     1       3.356   3.962  18.964  0.00  0.00    +0.000 A 
ATOM      3  C   UNL     1       3.065   4.614  20.172  0.00  0.00    +0.000 A 
ATOM      4  C   UNL     1       1.789   4.537  20.729  0.00  0.00    +0.000 A 
ATOM      5  C   UNL     1       0.787   3.818  20.084  0.00  0.00    +0.000 A 
ATOM      6  C   UNL     1       1.057   3.179  18.877  0.00  0.00    +0.000 A 
ATOM      7  C   UNL     1       2.333   3.257  18.312  0.00  0.00    +0.000 A 
ENDBRANCH   1   2
BRANCH   1   9
ATOM      8  C   UNL     1       4.368   6.326  17.255  0.00  0.00    +0.000 C 
ATOM      9  C   UNL     1       5.282   5.507  18.185  0.00  0.00    +0.000 C 
BRANCH   9  10
ATOM     10  N   UNL     1       6.705   5.511  17.763  0.00  0.00    +0.000 N 
ATOM     11  C   UNL     1       7.649   6.016  18.765  0.00  0.00    +0.000 C 
BRANCH  10  12
ATOM     12  N   UNL     1       7.070   4.411  17.134  0.00  0.00    +0.000 NA
ATOM     13  O   UNL     1       7.844   4.642  16.199  0.00  0.00    +0.000 OA
ENDBRANCH  10  12
ENDBRANCH   9  10
ENDBRANCH   1   9
BRANCH   1  14
ATOM     14  O   UNL     1       5.606   3.273  19.231  0.00  0.00    +0.000 OA
ATOM     15  H   UNL     1       6.521   3.557  19.071  0.00  0.00    +0.000 HD
ENDBRANCH   1  14
TORSDOF 5
ENDMDL
MODEL 8
REMARK VINA RESULT:      -5.9      2.330      2.480
REMARK  Name = 
REMARK  7 active torsions:
REMARK  status: ('A' for Active; 'I' for Inactive)
REMARK    1  A    between atoms: C_1  and  C_2
REMARK    2  A    between atoms: C_2  and  C_3
REMARK    3  A    between atoms: C_2  and  N_11
REMARK    4  A    between atoms: C_3  and  O_4
REMARK    5  A    between atoms: C_3  and  C_5
REMARK    6  A    between atoms: N_11  and  C_12
REMARK    7  A    between atoms: N_11  and  N_13
REMARK                            x       y       z     vdW  Elec       q    Type
REMARK                         _______ _______ _______ _____ _____    ______ ____
ROOT
ATOM      1  C   UNL     1       4.510   4.826  17.352  0.00  0.00    +0.000 C 
ENDROOT
BRANCH   1   2
ATOM      2  C   UNL     1       3.364   4.324  18.211  0.00  0.00    +0.000 A 
ATOM      3  C   UNL     1       3.462   4.378  19.610  0.00  0.00    +0.000 A 
ATOM      4  C   UNL     1       2.423   3.907  20.412  0.00  0.00    +0.000 A 
ATOM      5  C   UNL     1       1.271   3.387  19.829  0.00  0.00    +0.000 A 
ATOM      6  C   UNL     1       1.153   3.341  18.443  0.00  0.00    +0.000 A 
ATOM      7  C   UNL     1       2.189   3.816  17.634  0.00  0.00    +0.000 A 
ENDBRANCH   1   2
BRANCH   1   9
ATOM      8  C   UNL     1       3.717   7.269  17.527  0.00  0.00    +0.000 C 
ATOM      9  C   UNL     1       4.919   6.313  17.639  0.00  0.00    +0.000 C 
BRANCH   9  10
ATOM     10  N   UNL     1       6.075   6.721  16.800  0.00  0.00    +0.000 N 
ATOM     11  C   UNL     1       7.304   7.025  17.541  0.00  0.00    +0.000 C 
BRANCH  10  12
ATOM     12  N   UNL     1       6.225   5.983  15.718  0.00  0.00    +0.000 NA
ATOM     13  O   UNL     1       7.394   5.615  15.562  0.00  0.00    +0.000 OA
ENDBRANCH  10  12
ENDBRANCH   9  10
ENDBRANCH   1   9
BRANCH   1  14
ATOM     14  O   UNL     1       5.601   3.922  17.545  0.00  0.00    +0.000 OA
ATOM     15  H   UNL     1       6.199   4.011  16.784  0.00  0.00    +0.000 HD
ENDBRANCH   1  14
TORSDOF 5
ENDMDL
MODEL 9
REMARK VINA RESULT:      -5.8      2.574      5.225
REMARK  Name = 
REMARK  7 active torsions:
REMARK  status: ('A' for Active; 'I' for Inactive)
REMARK    1  A    between atoms: C_1  and  C_2
REMARK    2  A    between atoms: C_2  and  C_3
REMARK    3  A    between atoms: C_2  and  N_11
REMARK    4  A    between atoms: C_3  and  O_4
REMARK    5  A    between atoms: C_3  and  C_5
REMARK    6  A    between atoms: N_11  and  C_12
REMARK    7  A    between atoms: N_11  and  N_13
REMARK                            x       y       z     vdW  Elec       q    Type
REMARK                         _______ _______ _______ _____ _____    ______ ____
ROOT
ATOM      1  C   UNL     1       4.695   4.167  19.461  0.00  0.00    +0.000 C 
ENDROOT
BRANCH   1   2
ATOM      2  C   UNL     1       5.585   5.188  18.774  0.00  0.00    +0.000 A 
ATOM      3  C   UNL     1       5.093   5.922  17.684  0.00  0.00    +0.000 A 
ATOM      4  C   UNL     1       5.903   6.853  17.034  0.00  0.00    +0.000 A 
ATOM      5  C   UNL     1       7.208   7.068  17.469  0.00  0.00    +0.000 A 
ATOM      6  C   UNL     1       7.704   6.357  18.558  0.00  0.00    +0.000 A 
ATOM      7  C   UNL     1       6.895   5.427  19.217  0.00  0.00    +0.000 A 
ENDBRANCH   1   2
BRANCH   1   9
ATOM      8  C   UNL     1       2.468   4.889  20.531  0.00  0.00    +0.000 C 
ATOM      9  C   UNL     1       3.161   4.408  19.243  0.00  0.00    +0.000 C 
BRANCH   9  10
ATOM     10  N   UNL     1       2.513   3.218  18.636  0.00  0.00    +0.000 N 
ATOM     11  C   UNL     1       1.509   2.560  19.479  0.00  0.00    +0.000 C 
BRANCH  10  12
ATOM     12  N   UNL     1       2.179   3.387  17.372  0.00  0.00    +0.000 NA
ATOM     13  O   UNL     1       1.162   4.077  17.246  0.00  0.00    +0.000 OA
ENDBRANCH  10  12
ENDBRANCH   9  10
ENDBRANCH   1   9
BRANCH   1  14
ATOM     14  O   UNL     1       5.107   2.878  18.999  0.00  0.00    +0.000 OA
ATOM     15  H   UNL     1       4.972   2.850  18.038  0.00  0.00    +0.000 HD
ENDBRANCH   1  14
TORSDOF 5
ENDMDL
