MODEL 1
REMARK VINA RESULT:      -7.7      0.000      0.000
REMARK  Name = 
REMARK  10 active torsions:
REMARK  status: ('A' for Active; 'I' for Inactive)
REMARK    1  A    between atoms: C_1  and  N_2
REMARK    2  A    between atoms: N_5  and  C_6
REMARK    3  A    between atoms: C_6  and  C_7
REMARK    4  A    between atoms: C_7  and  O_8
REMARK    5  A    between atoms: O_8  and  C_9
REMARK    6  A    between atoms: C_9  and  C_10
REMARK    7  A    between atoms: C_10  and  N_11
REMARK    8  A    between atoms: C_15  and  C_16
REMARK    9  A    between atoms: C_22  and  O_23
REMARK   10  A    between atoms: C_27  and  C_28
REMARK                            x       y       z     vdW  Elec       q    Type
REMARK                         _______ _______ _______ _____ _____    ______ ____
ROOT
ATOM      1  N   UNL     1       1.771   8.138  19.687  0.00  0.00    +0.000 N 
ATOM      2  C   UNL     1       1.814   8.784  18.510  0.00  0.00    +0.000 A 
ATOM      3  C   UNL     1       1.109   9.968  18.335  0.00  0.00    +0.000 A 
ATOM      4  C   UNL     1       0.309  10.507  19.363  0.00  0.00    +0.000 A 
ATOM      5  C   UNL     1      -0.424  11.717  19.211  0.00  0.00    +0.000 A 
ATOM      6  C   UNL     1      -0.399  12.568  17.965  0.00  0.00    +0.000 C 
ATOM      7  C   UNL     1      -1.222  12.125  20.303  0.00  0.00    +0.000 A 
ATOM      8  N   UNL     1      -2.033  13.237  20.401  0.00  0.00    +0.000 N 
ATOM      9  C   UNL     1      -2.673  13.292  21.610  0.00  0.00    +0.000 A 
ATOM     10  C   UNL     1      -3.581  14.245  22.097  0.00  0.00    +0.000 A 
ATOM     11  C   UNL     1      -4.092  14.062  23.384  0.00  0.00    +0.000 A 
ATOM     12  C   UNL     1      -3.702  12.966  24.134  0.00  0.00    +0.000 A 
ATOM     13  C   UNL     1      -2.798  12.026  23.636  0.00  0.00    +0.000 A 
ATOM     14  C   UNL     1      -2.259  12.179  22.339  0.00  0.00    +0.000 A 
ATOM     15  C   UNL     1      -1.331  11.433  21.510  0.00  0.00    +0.000 A 
ATOM     16  C   UNL     1      -0.576  10.238  21.668  0.00  0.00    +0.000 A 
ATOM     17  C   UNL     1      -0.630   9.406  22.933  0.00  0.00    +0.000 C 
ATOM     18  C   UNL     1       0.248   9.792  20.583  0.00  0.00    +0.000 A 
ATOM     19  C   UNL     1       1.023   8.627  20.698  0.00  0.00    +0.000 A 
ATOM     20  H   UNL     1      -2.153  13.924  19.670  0.00  0.00    +0.000 HD
ENDROOT
BRANCH  12  21
ATOM     21  O   UNL     1      -4.182  12.756  25.395  0.00  0.00    +0.000 OA
ATOM     22  H   UNL     1      -5.008  12.248  25.336  0.00  0.00    +0.000 HD
ENDBRANCH  12  21
BRANCH   1  23
ATOM     23  C   UNL     1       2.584   6.903  19.884  0.00  0.00    +0.000 C 
BRANCH  23  24
ATOM     24  C   UNL     1       1.742   5.767  20.463  0.00  0.00    +0.000 C 
BRANCH  24  25
ATOM     25  O   UNL     1       1.942   4.578  19.697  0.00  0.00    +0.000 OA
BRANCH  25  26
ATOM     26  C   UNL     1       2.855   3.686  20.358  0.00  0.00    +0.000 C 
BRANCH  26  27
ATOM     27  C   UNL     1       3.604   2.850  19.319  0.00  0.00    +0.000 C 
BRANCH  27  32
ATOM     28  C   UNL     1       7.453   5.293  17.641  0.00  0.00    +0.000 C 
ATOM     29  N   UNL     1       6.826   4.271  18.443  0.00  0.00    +0.000 N 
ATOM     30  C   UNL     1       5.463   4.153  18.419  0.00  0.00    +0.000 C 
ATOM     31  O   UNL     1       4.720   4.833  17.716  0.00  0.00    +0.000 OA
ATOM     32  N   UNL     1       5.019   3.166  19.255  0.00  0.00    +0.000 N 
ATOM     33  H   UNL     1       7.255   4.068  19.335  0.00  0.00    +0.000 HD
ATOM     34  H   UNL     1       5.686   2.442  19.479  0.00  0.00    +0.000 HD
ENDBRANCH  27  32
ENDBRANCH  26  27
ENDBRANCH  25  26
ENDBRANCH  24  25
ENDBRANCH  23  24
ENDBRANCH   1  23
TORSDOF 7
ENDMDL
MODEL 2
REMARK VINA RESULT:      -7.7      3.254      6.407
REMARK  Name = 
REMARK  10 active torsions:
REMARK  status: ('A' for Active; 'I' for Inactive)
REMARK    1  A    between atoms: C_1  and  N_2
REMARK    2  A    between atoms: N_5  and  C_6
REMARK    3  A    between atoms: C_6  and  C_7
REMARK    4  A    between atoms: C_7  and  O_8
REMARK    5  A    between atoms: O_8  and  C_9
REMARK    6  A    between atoms: C_9  and  C_10
REMARK    7  A    between atoms: C_10  and  N_11
REMARK    8  A    between atoms: C_15  and  C_16
REMARK    9  A    between atoms: C_22  and  O_23
REMARK   10  A    between atoms: C_27  and  C_28
REMARK                            x       y       z     vdW  Elec       q    Type
REMARK                         _______ _______ _______ _____ _____    ______ ____
ROOT
ATOM      1  N   UNL     1       4.843   4.695  17.043  0.00  0.00    +0.000 N 
ATOM      2  C   UNL     1       4.697   3.697  17.931  0.00  0.00    +0.000 A 
ATOM      3  C   UNL     1       3.875   3.861  19.038  0.00  0.00    +0.000 A 
ATOM      4  C   UNL     1       3.201   5.074  19.282  0.00  0.00    +0.000 A 
ATOM      5  C   UNL     1       2.354   5.269  20.409  0.00  0.00    +0.000 A 
ATOM      6  C   UNL     1       2.055   4.203  21.434  0.00  0.00    +0.000 C 
ATOM      7  C   UNL     1       1.772   6.547  20.560  0.00  0.00    +0.000 A 
ATOM      8  N   UNL     1       0.937   6.993  21.565  0.00  0.00    +0.000 N 
ATOM      9  C   UNL     1       0.589   8.305  21.388  0.00  0.00    +0.000 A 
ATOM     10  C   UNL     1      -0.226   9.127  22.181  0.00  0.00    +0.000 A 
ATOM     11  C   UNL     1      -0.422  10.447  21.769  0.00  0.00    +0.000 A 
ATOM     12  C   UNL     1       0.181  10.907  20.610  0.00  0.00    +0.000 A 
ATOM     13  C   UNL     1       0.990  10.077  19.831  0.00  0.00    +0.000 A 
ATOM     14  C   UNL     1       1.210   8.736  20.217  0.00  0.00    +0.000 A 
ATOM     15  C   UNL     1       1.963   7.616  19.684  0.00  0.00    +0.000 A 
ATOM     16  C   UNL     1       2.790   7.410  18.545  0.00  0.00    +0.000 A 
ATOM     17  C   UNL     1       3.071   8.506  17.538  0.00  0.00    +0.000 C 
ATOM     18  C   UNL     1       3.396   6.125  18.354  0.00  0.00    +0.000 A 
ATOM     19  C   UNL     1       4.207   5.868  17.237  0.00  0.00    +0.000 A 
ATOM     20  H   UNL     1       0.627   6.429  22.343  0.00  0.00    +0.000 HD
ENDROOT
BRANCH  12  21
ATOM     21  O   UNL     1       0.011  12.191  20.177  0.00  0.00    +0.000 OA
ATOM     22  H   UNL     1      -0.807  12.240  19.656  0.00  0.00    +0.000 HD
ENDBRANCH  12  21
BRANCH   1  23
ATOM     23  C   UNL     1       5.675   4.485  15.823  0.00  0.00    +0.000 C 
BRANCH  23  24
ATOM     24  C   UNL     1       7.093   5.021  16.016  0.00  0.00    +0.000 C 
BRANCH  24  25
ATOM     25  O   UNL     1       7.053   6.434  16.216  0.00  0.00    +0.000 OA
BRANCH  25  26
ATOM     26  C   UNL     1       7.612   6.791  17.491  0.00  0.00    +0.000 C 
BRANCH  26  27
ATOM     27  C   UNL     1       7.963   8.280  17.503  0.00  0.00    +0.000 C 
BRANCH  27  32
ATOM     28  C   UNL     1      10.042  11.537  20.446  0.00  0.00    +0.000 C 
ATOM     29  N   UNL     1       9.605  10.206  20.102  0.00  0.00    +0.000 N 
ATOM     30  C   UNL     1       8.976  10.004  18.905  0.00  0.00    +0.000 C 
ATOM     31  O   UNL     1       8.792  10.877  18.061  0.00  0.00    +0.000 OA
ATOM     32  N   UNL     1       8.593   8.701  18.740  0.00  0.00    +0.000 N 
ATOM     33  H   UNL     1       9.271   9.628  20.861  0.00  0.00    +0.000 HD
ATOM     34  H   UNL     1       9.104   8.017  19.279  0.00  0.00    +0.000 HD
ENDBRANCH  27  32
ENDBRANCH  26  27
ENDBRANCH  25  26
ENDBRANCH  24  25
ENDBRANCH  23  24
ENDBRANCH   1  23
TORSDOF 7
ENDMDL
MODEL 3
REMARK VINA RESULT:      -7.7      1.016      1.145
REMARK  Name = 
REMARK  10 active torsions:
REMARK  status: ('A' for Active; 'I' for Inactive)
REMARK    1  A    between atoms: C_1  and  N_2
REMARK    2  A    between atoms: N_5  and  C_6
REMARK    3  A    between atoms: C_6  and  C_7
REMARK    4  A    between atoms: C_7  and  O_8
REMARK    5  A    between atoms: O_8  and  C_9
REMARK    6  A    between atoms: C_9  and  C_10
REMARK    7  A    between atoms: C_10  and  N_11
REMARK    8  A    between atoms: C_15  and  C_16
REMARK    9  A    between atoms: C_22  and  O_23
REMARK   10  A    between atoms: C_27  and  C_28
REMARK                            x       y       z     vdW  Elec       q    Type
REMARK                         _______ _______ _______ _____ _____    ______ ____
ROOT
ATOM      1  N   UNL     1       1.657   8.416  19.622  0.00  0.00    +0.000 N 
ATOM      2  C   UNL     1       1.661   9.105  18.468  0.00  0.00    +0.000 A 
ATOM      3  C   UNL     1       0.925  10.277  18.351  0.00  0.00    +0.000 A 
ATOM      4  C   UNL     1       0.134  10.760  19.412  0.00  0.00    +0.000 A 
ATOM      5  C   UNL     1      -0.630  11.956  19.318  0.00  0.00    +0.000 A 
ATOM      6  C   UNL     1      -0.650  12.852  18.103  0.00  0.00    +0.000 C 
ATOM      7  C   UNL     1      -1.415  12.306  20.439  0.00  0.00    +0.000 A 
ATOM      8  N   UNL     1      -2.250  13.394  20.593  0.00  0.00    +0.000 N 
ATOM      9  C   UNL     1      -2.866  13.391  21.815  0.00  0.00    +0.000 A 
ATOM     10  C   UNL     1      -3.786  14.303  22.354  0.00  0.00    +0.000 A 
ATOM     11  C   UNL     1      -4.267  14.063  23.643  0.00  0.00    +0.000 A 
ATOM     12  C   UNL     1      -3.836  12.951  24.346  0.00  0.00    +0.000 A 
ATOM     13  C   UNL     1      -2.921  12.051  23.796  0.00  0.00    +0.000 A 
ATOM     14  C   UNL     1      -2.412  12.262  22.495  0.00  0.00    +0.000 A 
ATOM     15  C   UNL     1      -1.483  11.569  21.622  0.00  0.00    +0.000 A 
ATOM     16  C   UNL     1      -0.698  10.388  21.723  0.00  0.00    +0.000 A 
ATOM     17  C   UNL     1      -0.707   9.510  22.958  0.00  0.00    +0.000 C 
ATOM     18  C   UNL     1       0.114  10.000  20.607  0.00  0.00    +0.000 A 
ATOM     19  C   UNL     1       0.919   8.851  20.664  0.00  0.00    +0.000 A 
ATOM     20  H   UNL     1      -2.400  14.103  19.890  0.00  0.00    +0.000 HD
ENDROOT
BRANCH  12  21
ATOM     21  O   UNL     1      -4.286  12.685  25.608  0.00  0.00    +0.000 OA
ATOM     22  H   UNL     1      -3.654  12.091  26.047  0.00  0.00    +0.000 HD
ENDBRANCH  12  21
BRANCH   1  23
ATOM     23  C   UNL     1       2.502   7.195  19.759  0.00  0.00    +0.000 C 
BRANCH  23  24
ATOM     24  C   UNL     1       2.877   6.620  18.394  0.00  0.00    +0.000 C 
BRANCH  24  25
ATOM     25  O   UNL     1       3.057   5.207  18.499  0.00  0.00    +0.000 OA
BRANCH  25  26
ATOM     26  C   UNL     1       4.044   4.886  19.492  0.00  0.00    +0.000 C 
BRANCH  26  27
ATOM     27  C   UNL     1       4.928   3.742  18.991  0.00  0.00    +0.000 C 
BRANCH  27  32
ATOM     28  C   UNL     1       7.220   4.842  14.852  0.00  0.00    +0.000 C 
ATOM     29  N   UNL     1       7.156   4.677  16.283  0.00  0.00    +0.000 N 
ATOM     30  C   UNL     1       5.976   4.282  16.851  0.00  0.00    +0.000 C 
ATOM     31  O   UNL     1       4.960   4.005  16.220  0.00  0.00    +0.000 OA
ATOM     32  N   UNL     1       6.063   4.204  18.214  0.00  0.00    +0.000 N 
ATOM     33  H   UNL     1       7.701   5.322  16.839  0.00  0.00    +0.000 HD
ATOM     34  H   UNL     1       6.992   4.076  18.592  0.00  0.00    +0.000 HD
ENDBRANCH  27  32
ENDBRANCH  26  27
ENDBRANCH  25  26
ENDBRANCH  24  25
ENDBRANCH  23  24
ENDBRANCH   1  23
TORSDOF 7
ENDMDL
MODEL 4
REMARK VINA RESULT:      -7.7      1.410      1.864
REMARK  Name = 
REMARK  10 active torsions:
REMARK  status: ('A' for Active; 'I' for Inactive)
REMARK    1  A    between atoms: C_1  and  N_2
REMARK    2  A    between atoms: N_5  and  C_6
REMARK    3  A    between atoms: C_6  and  C_7
REMARK    4  A    between atoms: C_7  and  O_8
REMARK    5  A    between atoms: O_8  and  C_9
REMARK    6  A    between atoms: C_9  and  C_10
REMARK    7  A    between atoms: C_10  and  N_11
REMARK    8  A    between atoms: C_15  and  C_16
REMARK    9  A    between atoms: C_22  and  O_23
REMARK   10  A    between atoms: C_27  and  C_28
REMARK                            x       y       z     vdW  Elec       q    Type
REMARK                         _______ _______ _______ _____ _____    ______ ____
ROOT
ATOM      1  N   UNL     1       1.994   6.430  20.149  0.00  0.00    +0.000 N 
ATOM      2  C   UNL     1       2.500   6.866  18.983  0.00  0.00    +0.000 A 
ATOM      3  C   UNL     1       2.322   8.187  18.594  0.00  0.00    +0.000 A 
ATOM      4  C   UNL     1       1.589   9.095  19.384  0.00  0.00    +0.000 A 
ATOM      5  C   UNL     1       1.391  10.453  19.009  0.00  0.00    +0.000 A 
ATOM      6  C   UNL     1       1.969  11.077  17.762  0.00  0.00    +0.000 C 
ATOM      7  C   UNL     1       0.600  11.247  19.868  0.00  0.00    +0.000 A 
ATOM      8  N   UNL     1       0.246  12.573  19.723  0.00  0.00    +0.000 N 
ATOM      9  C   UNL     1      -0.554  12.999  20.750  0.00  0.00    +0.000 A 
ATOM     10  C   UNL     1      -1.129  14.259  20.969  0.00  0.00    +0.000 A 
ATOM     11  C   UNL     1      -1.914  14.431  22.112  0.00  0.00    +0.000 A 
ATOM     12  C   UNL     1      -2.105  13.372  22.984  0.00  0.00    +0.000 A 
ATOM     13  C   UNL     1      -1.526  12.123  22.753  0.00  0.00    +0.000 A 
ATOM     14  C   UNL     1      -0.725  11.914  21.607  0.00  0.00    +0.000 A 
ATOM     15  C   UNL     1       0.012  10.795  21.050  0.00  0.00    +0.000 A 
ATOM     16  C   UNL     1       0.232   9.444  21.436  0.00  0.00    +0.000 A 
ATOM     17  C   UNL     1      -0.368   8.850  22.693  0.00  0.00    +0.000 C 
ATOM     18  C   UNL     1       1.034   8.607  20.591  0.00  0.00    +0.000 A 
ATOM     19  C   UNL     1       1.293   7.270  20.937  0.00  0.00    +0.000 A 
ATOM     20  H   UNL     1       0.530  13.160  18.952  0.00  0.00    +0.000 HD
ENDROOT
BRANCH  12  21
ATOM     21  O   UNL     1      -2.866  13.503  24.111  0.00  0.00    +0.000 OA
ATOM     22  H   UNL     1      -3.050  14.446  24.257  0.00  0.00    +0.000 HD
ENDBRANCH  12  21
BRANCH   1  23
ATOM     23  C   UNL     1       2.247   5.026  20.587  0.00  0.00    +0.000 C 
BRANCH  23  24
ATOM     24  C   UNL     1       1.060   4.119  20.266  0.00  0.00    +0.000 C 
BRANCH  24  25
ATOM     25  O   UNL     1       1.191   3.603  18.941  0.00  0.00    +0.000 OA
BRANCH  25  26
ATOM     26  C   UNL     1       1.612   2.229  18.962  0.00  0.00    +0.000 C 
BRANCH  26  27
ATOM     27  C   UNL     1       2.773   2.030  17.986  0.00  0.00    +0.000 C 
BRANCH  27  32
ATOM     28  C   UNL     1       6.568   5.047  18.280  0.00  0.00    +0.000 C 
ATOM     29  N   UNL     1       5.843   3.852  18.635  0.00  0.00    +0.000 N 
ATOM     30  C   UNL     1       4.622   3.624  18.062  0.00  0.00    +0.000 C 
ATOM     31  O   UNL     1       4.106   4.349  17.216  0.00  0.00    +0.000 OA
ATOM     32  N   UNL     1       4.046   2.472  18.523  0.00  0.00    +0.000 N 
ATOM     33  H   UNL     1       5.930   3.535  19.591  0.00  0.00    +0.000 HD
ATOM     34  H   UNL     1       4.678   1.779  18.899  0.00  0.00    +0.000 HD
ENDBRANCH  27  32
ENDBRANCH  26  27
ENDBRANCH  25  26
ENDBRANCH  24  25
ENDBRANCH  23  24
ENDBRANCH   1  23
TORSDOF 7
ENDMDL
MODEL 5
REMARK VINA RESULT:      -7.6      1.619      2.085
REMARK  Name = 
REMARK  10 active torsions:
REMARK  status: ('A' for Active; 'I' for Inactive)
REMARK    1  A    between atoms: C_1  and  N_2
REMARK    2  A    between atoms: N_5  and  C_6
REMARK    3  A    between atoms: C_6  and  C_7
REMARK    4  A    between atoms: C_7  and  O_8
REMARK    5  A    between atoms: O_8  and  C_9
REMARK    6  A    between atoms: C_9  and  C_10
REMARK    7  A    between atoms: C_10  and  N_11
REMARK    8  A    between atoms: C_15  and  C_16
REMARK    9  A    between atoms: C_22  and  O_23
REMARK   10  A    between atoms: C_27  and  C_28
REMARK                            x       y       z     vdW  Elec       q    Type
REMARK                         _______ _______ _______ _____ _____    ______ ____
ROOT
ATOM      1  N   UNL     1       1.966   8.228  19.340  0.00  0.00    +0.000 N 
ATOM      2  C   UNL     1       2.174   9.047  18.295  0.00  0.00    +0.000 A 
ATOM      3  C   UNL     1       1.584  10.303  18.263  0.00  0.00    +0.000 A 
ATOM      4  C   UNL     1       0.732  10.744  19.296  0.00  0.00    +0.000 A 
ATOM      5  C   UNL     1       0.115  12.026  19.287  0.00  0.00    +0.000 A 
ATOM      6  C   UNL     1       0.328  13.059  18.208  0.00  0.00    +0.000 C 
ATOM      7  C   UNL     1      -0.751  12.328  20.362  0.00  0.00    +0.000 A 
ATOM      8  N   UNL     1      -1.478  13.481  20.577  0.00  0.00    +0.000 N 
ATOM      9  C   UNL     1      -2.227  13.402  21.720  0.00  0.00    +0.000 A 
ATOM     10  C   UNL     1      -3.100  14.345  22.283  0.00  0.00    +0.000 A 
ATOM     11  C   UNL     1      -3.748  14.009  23.474  0.00  0.00    +0.000 A 
ATOM     12  C   UNL     1      -3.519  12.775  24.060  0.00  0.00    +0.000 A 
ATOM     13  C   UNL     1      -2.648  11.847  23.489  0.00  0.00    +0.000 A 
ATOM     14  C   UNL     1      -1.974  12.153  22.285  0.00  0.00    +0.000 A 
ATOM     15  C   UNL     1      -1.031  11.466  21.423  0.00  0.00    +0.000 A 
ATOM     16  C   UNL     1      -0.392  10.195  21.442  0.00  0.00    +0.000 A 
ATOM     17  C   UNL     1      -0.634   9.181  22.541  0.00  0.00    +0.000 C 
ATOM     18  C   UNL     1       0.497   9.853  20.370  0.00  0.00    +0.000 A 
ATOM     19  C   UNL     1       1.164   8.617  20.353  0.00  0.00    +0.000 A 
ATOM     20  H   UNL     1      -1.472  14.283  19.964  0.00  0.00    +0.000 HD
ENDROOT
BRANCH  12  21
ATOM     21  O   UNL     1      -4.135  12.413  25.224  0.00  0.00    +0.000 OA
ATOM     22  H   UNL     1      -4.577  13.192  25.601  0.00  0.00    +0.000 HD
ENDBRANCH  12  21
BRANCH   1  23
ATOM     23  C   UNL     1       2.656   6.907  19.395  0.00  0.00    +0.000 C 
BRANCH  23  24
ATOM     24  C   UNL     1       3.392   6.607  18.090  0.00  0.00    +0.000 C 
BRANCH  24  25
ATOM     25  O   UNL     1       4.348   5.568  18.302  0.00  0.00    +0.000 OA
BRANCH  25  26
ATOM     26  C   UNL     1       5.685   6.043  18.071  0.00  0.00    +0.000 C 
BRANCH  26  27
ATOM     27  C   UNL     1       6.619   4.856  17.826  0.00  0.00    +0.000 C 
BRANCH  27  32
ATOM     28  C   UNL     1       6.526   3.805  13.084  0.00  0.00    +0.000 C 
ATOM     29  N   UNL     1       6.146   3.589  14.459  0.00  0.00    +0.000 N 
ATOM     30  C   UNL     1       6.656   4.413  15.424  0.00  0.00    +0.000 C 
ATOM     31  O   UNL     1       7.389   5.373  15.201  0.00  0.00    +0.000 OA
ATOM     32  N   UNL     1       6.232   4.060  16.676  0.00  0.00    +0.000 N 
ATOM     33  H   UNL     1       6.011   2.630  14.747  0.00  0.00    +0.000 HD
ATOM     34  H   UNL     1       5.370   3.534  16.721  0.00  0.00    +0.000 HD
ENDBRANCH  27  32
ENDBRANCH  26  27
ENDBRANCH  25  26
ENDBRANCH  24  25
ENDBRANCH  23  24
ENDBRANCH   1  23
TORSDOF 7
ENDMDL
MODEL 6
REMARK VINA RESULT:      -7.5      3.000      9.064
REMARK  Name = 
REMARK  10 active torsions:
REMARK  status: ('A' for Active; 'I' for Inactive)
REMARK    1  A    between atoms: C_1  and  N_2
REMARK    2  A    between atoms: N_5  and  C_6
REMARK    3  A    between atoms: C_6  and  C_7
REMARK    4  A    between atoms: C_7  and  O_8
REMARK    5  A    between atoms: O_8  and  C_9
REMARK    6  A    between atoms: C_9  and  C_10
REMARK    7  A    between atoms: C_10  and  N_11
REMARK    8  A    between atoms: C_15  and  C_16
REMARK    9  A    between atoms: C_22  and  O_23
REMARK   10  A    between atoms: C_27  and  C_28
REMARK                            x       y       z     vdW  Elec       q    Type
REMARK                         _______ _______ _______ _____ _____    ______ ____
ROOT
ATOM      1  N   UNL     1      -2.623  13.258  22.969  0.00  0.00    +0.000 N 
ATOM      2  C   UNL     1      -2.594  14.164  21.976  0.00  0.00    +0.000 A 
ATOM      3  C   UNL     1      -1.918  13.886  20.796  0.00  0.00    +0.000 A 
ATOM      4  C   UNL     1      -1.223  12.674  20.613  0.00  0.00    +0.000 A 
ATOM      5  C   UNL     1      -0.522  12.364  19.414  0.00  0.00    +0.000 A 
ATOM      6  C   UNL     1      -0.476  13.267  18.205  0.00  0.00    +0.000 C 
ATOM      7  C   UNL     1       0.171  11.134  19.376  0.00  0.00    +0.000 A 
ATOM      8  N   UNL     1       0.933  10.613  18.350  0.00  0.00    +0.000 N 
ATOM      9  C   UNL     1       1.472   9.399  18.685  0.00  0.00    +0.000 A 
ATOM     10  C   UNL     1       2.304   8.554  17.936  0.00  0.00    +0.000 A 
ATOM     11  C   UNL     1       2.716   7.355  18.521  0.00  0.00    +0.000 A 
ATOM     12  C   UNL     1       2.305   7.035  19.804  0.00  0.00    +0.000 A 
ATOM     13  C   UNL     1       1.477   7.886  20.538  0.00  0.00    +0.000 A 
ATOM     14  C   UNL     1       1.039   9.107  19.977  0.00  0.00    +0.000 A 
ATOM     15  C   UNL     1       0.206  10.209  20.420  0.00  0.00    +0.000 A 
ATOM     16  C   UNL     1      -0.517  10.510  21.608  0.00  0.00    +0.000 A 
ATOM     17  C   UNL     1      -0.536   9.581  22.804  0.00  0.00    +0.000 C 
ATOM     18  C   UNL     1      -1.235  11.749  21.684  0.00  0.00    +0.000 A 
ATOM     19  C   UNL     1      -1.977  12.083  22.829  0.00  0.00    +0.000 A 
ATOM     20  H   UNL     1       1.087  11.070  17.463  0.00  0.00    +0.000 HD
ENDROOT
BRANCH  12  21
ATOM     21  O   UNL     1       2.690   5.871  20.407  0.00  0.00    +0.000 OA
ATOM     22  H   UNL     1       1.896   5.391  20.697  0.00  0.00    +0.000 HD
ENDBRANCH  12  21
BRANCH   1  23
ATOM     23  C   UNL     1      -3.406  13.541  24.206  0.00  0.00    +0.000 C 
BRANCH  23  24
ATOM     24  C   UNL     1      -4.083  12.279  24.739  0.00  0.00    +0.000 C 
BRANCH  24  25
ATOM     25  O   UNL     1      -5.470  12.293  24.397  0.00  0.00    +0.000 OA
BRANCH  25  26
ATOM     26  C   UNL     1      -5.798  13.460  23.625  0.00  0.00    +0.000 C 
BRANCH  26  27
ATOM     27  C   UNL     1      -6.558  13.047  22.363  0.00  0.00    +0.000 C 
BRANCH  27  32
ATOM     28  C   UNL     1      -4.870  11.872  17.963  0.00  0.00    +0.000 C 
ATOM     29  N   UNL     1      -4.981  12.739  19.110  0.00  0.00    +0.000 N 
ATOM     30  C   UNL     1      -5.781  12.359  20.152  0.00  0.00    +0.000 C 
ATOM     31  O   UNL     1      -6.387  11.293  20.209  0.00  0.00    +0.000 OA
ATOM     32  N   UNL     1      -5.811  13.299  21.146  0.00  0.00    +0.000 N 
ATOM     33  H   UNL     1      -4.960  13.734  18.931  0.00  0.00    +0.000 HD
ATOM     34  H   UNL     1      -5.020  13.927  21.186  0.00  0.00    +0.000 HD
ENDBRANCH  27  32
ENDBRANCH  26  27
ENDBRANCH  25  26
ENDBRANCH  24  25
ENDBRANCH  23  24
ENDBRANCH   1  23
TORSDOF 7
ENDMDL
MODEL 7
REMARK VINA RESULT:      -7.5      1.641      2.211
REMARK  Name = 
REMARK  10 active torsions:
REMARK  status: ('A' for Active; 'I' for Inactive)
REMARK    1  A    between atoms: C_1  and  N_2
REMARK    2  A    between atoms: N_5  and  C_6
REMARK    3  A    between atoms: C_6  and  C_7
REMARK    4  A    between atoms: C_7  and  O_8
REMARK    5  A    between atoms: O_8  and  C_9
REMARK    6  A    between atoms: C_9  and  C_10
REMARK    7  A    between atoms: C_10  and  N_11
REMARK    8  A    between atoms: C_15  and  C_16
REMARK    9  A    between atoms: C_22  and  O_23
REMARK   10  A    between atoms: C_27  and  C_28
REMARK                            x       y       z     vdW  Elec       q    Type
REMARK                         _______ _______ _______ _____ _____    ______ ____
ROOT
ATOM      1  N   UNL     1       1.876   8.111  19.530  0.00  0.00    +0.000 N 
ATOM      2  C   UNL     1       2.058   8.858  18.427  0.00  0.00    +0.000 A 
ATOM      3  C   UNL     1       1.460  10.107  18.323  0.00  0.00    +0.000 A 
ATOM      4  C   UNL     1       0.628  10.614  19.341  0.00  0.00    +0.000 A 
ATOM      5  C   UNL     1       0.003  11.889  19.258  0.00  0.00    +0.000 A 
ATOM      6  C   UNL     1       0.187  12.847  18.107  0.00  0.00    +0.000 C 
ATOM      7  C   UNL     1      -0.841  12.260  20.329  0.00  0.00    +0.000 A 
ATOM      8  N   UNL     1      -1.571  13.422  20.480  0.00  0.00    +0.000 N 
ATOM      9  C   UNL     1      -2.294  13.418  21.642  0.00  0.00    +0.000 A 
ATOM     10  C   UNL     1      -3.161  14.393  22.158  0.00  0.00    +0.000 A 
ATOM     11  C   UNL     1      -3.781  14.136  23.383  0.00  0.00    +0.000 A 
ATOM     12  C   UNL     1      -3.533  12.947  24.047  0.00  0.00    +0.000 A 
ATOM     13  C   UNL     1      -2.668  11.985  23.521  0.00  0.00    +0.000 A 
ATOM     14  C   UNL     1      -2.023  12.211  22.285  0.00  0.00    +0.000 A 
ATOM     15  C   UNL     1      -1.094  11.471  21.452  0.00  0.00    +0.000 A 
ATOM     16  C   UNL     1      -0.447  10.207  21.543  0.00  0.00    +0.000 A 
ATOM     17  C   UNL     1      -0.660   9.270  22.714  0.00  0.00    +0.000 C 
ATOM     18  C   UNL     1       0.421   9.796  20.478  0.00  0.00    +0.000 A 
ATOM     19  C   UNL     1       1.094   8.565  20.531  0.00  0.00    +0.000 A 
ATOM     20  H   UNL     1      -1.582  14.180  19.814  0.00  0.00    +0.000 HD
ENDROOT
BRANCH  12  21
ATOM     21  O   UNL     1      -4.122  12.662  25.246  0.00  0.00    +0.000 OA
ATOM     22  H   UNL     1      -3.847  13.329  25.896  0.00  0.00    +0.000 HD
ENDBRANCH  12  21
BRANCH   1  23
ATOM     23  C   UNL     1       2.576   6.801  19.660  0.00  0.00    +0.000 C 
BRANCH  23  24
ATOM     24  C   UNL     1       2.907   6.206  18.292  0.00  0.00    +0.000 C 
BRANCH  24  25
ATOM     25  O   UNL     1       4.323   6.094  18.145  0.00  0.00    +0.000 OA
BRANCH  25  26
ATOM     26  C   UNL     1       4.660   5.324  16.979  0.00  0.00    +0.000 C 
BRANCH  26  27
ATOM     27  C   UNL     1       6.158   5.444  16.695  0.00  0.00    +0.000 C 
BRANCH  27  32
ATOM     28  C   UNL     1       8.585   9.320  18.333  0.00  0.00    +0.000 C 
ATOM     29  N   UNL     1       7.705   8.648  17.409  0.00  0.00    +0.000 N 
ATOM     30  C   UNL     1       7.430   7.322  17.602  0.00  0.00    +0.000 C 
ATOM     31  O   UNL     1       7.844   6.658  18.547  0.00  0.00    +0.000 OA
ATOM     32  N   UNL     1       6.611   6.821  16.627  0.00  0.00    +0.000 N 
ATOM     33  H   UNL     1       7.758   8.935  16.441  0.00  0.00    +0.000 HD
ATOM     34  H   UNL     1       6.037   7.495  16.141  0.00  0.00    +0.000 HD
ENDBRANCH  27  32
ENDBRANCH  26  27
ENDBRANCH  25  26
ENDBRANCH  24  25
ENDBRANCH  23  24
ENDBRANCH   1  23
TORSDOF 7
ENDMDL
MODEL 8
REMARK VINA RESULT:      -7.5      3.403      6.379
REMARK  Name = 
REMARK  10 active torsions:
REMARK  status: ('A' for Active; 'I' for Inactive)
REMARK    1  A    between atoms: C_1  and  N_2
REMARK    2  A    between atoms: N_5  and  C_6
REMARK    3  A    between atoms: C_6  and  C_7
REMARK    4  A    between atoms: C_7  and  O_8
REMARK    5  A    between atoms: O_8  and  C_9
REMARK    6  A    between atoms: C_9  and  C_10
REMARK    7  A    between atoms: C_10  and  N_11
REMARK    8  A    between atoms: C_15  and  C_16
REMARK    9  A    between atoms: C_22  and  O_23
REMARK   10  A    between atoms: C_27  and  C_28
REMARK                            x       y       z     vdW  Elec       q    Type
REMARK                         _______ _______ _______ _____ _____    ______ ____
ROOT
ATOM      1  N   UNL     1       4.790   4.123  16.858  0.00  0.00    +0.000 N 
ATOM      2  C   UNL     1       4.616   3.174  17.794  0.00  0.00    +0.000 A 
ATOM      3  C   UNL     1       3.856   3.440  18.926  0.00  0.00    +0.000 A 
ATOM      4  C   UNL     1       3.277   4.706  19.144  0.00  0.00    +0.000 A 
ATOM      5  C   UNL     1       2.496   5.004  20.296  0.00  0.00    +0.000 A 
ATOM      6  C   UNL     1       2.170   4.004  21.377  0.00  0.00    +0.000 C 
ATOM      7  C   UNL     1       2.010   6.325  20.415  0.00  0.00    +0.000 A 
ATOM      8  N   UNL     1       1.252   6.869  21.433  0.00  0.00    +0.000 N 
ATOM      9  C   UNL     1       0.987   8.194  21.214  0.00  0.00    +0.000 A 
ATOM     10  C   UNL     1       0.266   9.102  22.004  0.00  0.00    +0.000 A 
ATOM     11  C   UNL     1       0.141  10.415  21.543  0.00  0.00    +0.000 A 
ATOM     12  C   UNL     1       0.723  10.784  20.342  0.00  0.00    +0.000 A 
ATOM     13  C   UNL     1       1.439   9.869  19.567  0.00  0.00    +0.000 A 
ATOM     14  C   UNL     1       1.584   8.532  20.002  0.00  0.00    +0.000 A 
ATOM     15  C   UNL     1       2.235   7.342  19.487  0.00  0.00    +0.000 A 
ATOM     16  C   UNL     1       2.995   7.034  18.324  0.00  0.00    +0.000 A 
ATOM     17  C   UNL     1       3.306   8.066  17.261  0.00  0.00    +0.000 C 
ATOM     18  C   UNL     1       3.503   5.703  18.165  0.00  0.00    +0.000 A 
ATOM     19  C   UNL     1       4.245   5.345  17.027  0.00  0.00    +0.000 A 
ATOM     20  H   UNL     1       0.939   6.360  22.247  0.00  0.00    +0.000 HD
ENDROOT
BRANCH  12  21
ATOM     21  O   UNL     1       0.623  12.059  19.862  0.00  0.00    +0.000 OA
ATOM     22  H   UNL     1       1.323  12.600  20.261  0.00  0.00    +0.000 HD
ENDBRANCH  12  21
BRANCH   1  23
ATOM     23  C   UNL     1       5.552   3.807  15.616  0.00  0.00    +0.000 C 
BRANCH  23  24
ATOM     24  C   UNL     1       6.603   4.876  15.318  0.00  0.00    +0.000 C 
BRANCH  24  25
ATOM     25  O   UNL     1       7.523   4.966  16.406  0.00  0.00    +0.000 OA
BRANCH  25  26
ATOM     26  C   UNL     1       7.513   6.282  16.982  0.00  0.00    +0.000 C 
BRANCH  26  27
ATOM     27  C   UNL     1       7.699   6.185  18.497  0.00  0.00    +0.000 C 
BRANCH  27  32
ATOM     28  C   UNL     1       9.198  10.805  18.576  0.00  0.00    +0.000 C 
ATOM     29  N   UNL     1       9.180   9.448  19.066  0.00  0.00    +0.000 N 
ATOM     30  C   UNL     1       8.373   8.532  18.449  0.00  0.00    +0.000 C 
ATOM     31  O   UNL     1       7.684   8.768  17.461  0.00  0.00    +0.000 OA
ATOM     32  N   UNL     1       8.440   7.304  19.048  0.00  0.00    +0.000 N 
ATOM     33  H   UNL     1       9.278   9.325  20.064  0.00  0.00    +0.000 HD
ATOM     34  H   UNL     1       9.280   7.114  19.577  0.00  0.00    +0.000 HD
ENDBRANCH  27  32
ENDBRANCH  26  27
ENDBRANCH  25  26
ENDBRANCH  24  25
ENDBRANCH  23  24
ENDBRANCH   1  23
TORSDOF 7
ENDMDL
MODEL 9
REMARK VINA RESULT:      -7.4      3.155      9.771
REMARK  Name = 
REMARK  10 active torsions:
REMARK  status: ('A' for Active; 'I' for Inactive)
REMARK    1  A    between atoms: C_1  and  N_2
REMARK    2  A    between atoms: N_5  and  C_6
REMARK    3  A    between atoms: C_6  and  C_7
REMARK    4  A    between atoms: C_7  and  O_8
REMARK    5  A    between atoms: O_8  and  C_9
REMARK    6  A    between atoms: C_9  and  C_10
REMARK    7  A    between atoms: C_10  and  N_11
REMARK    8  A    between atoms: C_15  and  C_16
REMARK    9  A    between atoms: C_22  and  O_23
REMARK   10  A    between atoms: C_27  and  C_28
REMARK                            x       y       z     vdW  Elec       q    Type
REMARK                         _______ _______ _______ _____ _____    ______ ____
ROOT
ATOM      1  N   UNL     1       0.380   9.452  20.657  0.00  0.00    +0.000 N 
ATOM      2  C   UNL     1       0.070   8.488  21.541  0.00  0.00    +0.000 A 
ATOM      3  C   UNL     1       0.671   7.239  21.453  0.00  0.00    +0.000 A 
ATOM      4  C   UNL     1       1.591   6.935  20.429  0.00  0.00    +0.000 A 
ATOM      5  C   UNL     1       2.220   5.664  20.316  0.00  0.00    +0.000 A 
ATOM      6  C   UNL     1       2.009   4.527  21.285  0.00  0.00    +0.000 C 
ATOM      7  C   UNL     1       3.088   5.474  19.218  0.00  0.00    +0.000 A 
ATOM      8  N   UNL     1       3.799   4.342  18.875  0.00  0.00    +0.000 N 
ATOM      9  C   UNL     1       4.521   4.526  17.726  0.00  0.00    +0.000 A 
ATOM     10  C   UNL     1       5.357   3.630  17.044  0.00  0.00    +0.000 A 
ATOM     11  C   UNL     1       5.985   4.077  15.879  0.00  0.00    +0.000 A 
ATOM     12  C   UNL     1       5.769   5.369  15.431  0.00  0.00    +0.000 A 
ATOM     13  C   UNL     1       4.934   6.250  16.120  0.00  0.00    +0.000 A 
ATOM     14  C   UNL     1       4.283   5.832  17.303  0.00  0.00    +0.000 A 
ATOM     15  C   UNL     1       3.372   6.442  18.253  0.00  0.00    +0.000 A 
ATOM     16  C   UNL     1       2.761   7.720  18.384  0.00  0.00    +0.000 A 
ATOM     17  C   UNL     1       2.994   8.836  17.387  0.00  0.00    +0.000 C 
ATOM     18  C   UNL     1       1.876   7.952  19.487  0.00  0.00    +0.000 A 
ATOM     19  C   UNL     1       1.261   9.202  19.668  0.00  0.00    +0.000 A 
ATOM     20  H   UNL     1       3.785   3.478  19.397  0.00  0.00    +0.000 HD
ENDROOT
BRANCH  12  21
ATOM     21  O   UNL     1       6.366   5.840  14.296  0.00  0.00    +0.000 OA
ATOM     22  H   UNL     1       6.954   5.153  13.942  0.00  0.00    +0.000 HD
ENDBRANCH  12  21
BRANCH   1  23
ATOM     23  C   UNL     1      -0.223  10.809  20.801  0.00  0.00    +0.000 C 
BRANCH  23  24
ATOM     24  C   UNL     1       0.832  11.852  21.167  0.00  0.00    +0.000 C 
BRANCH  24  25
ATOM     25  O   UNL     1       0.469  13.119  20.616  0.00  0.00    +0.000 OA
BRANCH  25  26
ATOM     26  C   UNL     1       0.641  13.129  19.189  0.00  0.00    +0.000 C 
BRANCH  26  27
ATOM     27  C   UNL     1      -0.656  13.581  18.516  0.00  0.00    +0.000 C 
BRANCH  27  32
ATOM     28  C   UNL     1      -3.190  10.102  16.263  0.00  0.00    +0.000 C 
ATOM     29  N   UNL     1      -2.160  11.110  16.325  0.00  0.00    +0.000 N 
ATOM     30  C   UNL     1      -2.002  11.826  17.480  0.00  0.00    +0.000 C 
ATOM     31  O   UNL     1      -2.651  11.640  18.505  0.00  0.00    +0.000 OA
ATOM     32  N   UNL     1      -1.012  12.763  17.371  0.00  0.00    +0.000 N 
ATOM     33  H   UNL     1      -1.980  11.628  15.476  0.00  0.00    +0.000 HD
ATOM     34  H   UNL     1      -0.310  12.587  16.666  0.00  0.00    +0.000 HD
ENDBRANCH  27  32
ENDBRANCH  26  27
ENDBRANCH  25  26
ENDBRANCH  24  25
ENDBRANCH  23  24
ENDBRANCH   1  23
TORSDOF 7
ENDMDL
