MODEL 1
REMARK VINA RESULT:      -7.4      0.000      0.000
REMARK  Name = 
REMARK  17 active torsions:
REMARK  status: ('A' for Active; 'I' for Inactive)
REMARK    1  A    between atoms: C_1  and  C_2
REMARK    2  A    between atoms: C_2  and  C_3
REMARK    3  A    between atoms: C_3  and  C_4
REMARK    4  A    between atoms: C_4  and  C_5
REMARK    5  A    between atoms: C_5  and  S_6
REMARK    6  A    between atoms: S_6  and  N_9
REMARK    7  A    between atoms: C_10  and  C_12
REMARK    8  A    between atoms: C_13  and  C_14
REMARK    9  A    between atoms: C_17  and  O_18
REMARK   10  A    between atoms: O_18  and  C_19
REMARK   11  A    between atoms: C_19  and  C_20
REMARK   12  A    between atoms: C_20  and  O_21
REMARK   13  A    between atoms: O_21  and  C_22
REMARK   14  A    between atoms: C_24  and  O_25
REMARK   15  A    between atoms: O_25  and  C_26
REMARK   16  A    between atoms: C_29  and  N_30
REMARK   17  A    between atoms: C_32  and  C_33
REMARK                            x       y       z     vdW  Elec       q    Type
REMARK                         _______ _______ _______ _____ _____    ______ ____
ROOT
ATOM      1  C   UNL     1       3.655   7.019  17.710  0.00  0.00    +0.000 A 
ATOM      2  C   UNL     1       4.896   7.587  17.342  0.00  0.00    +0.000 A 
ATOM      3  C   UNL     1       5.948   6.813  16.833  0.00  0.00    +0.000 A 
ATOM      4  C   UNL     1       5.821   5.436  16.732  0.00  0.00    +0.000 A 
ATOM      5  C   UNL     1       4.629   4.850  17.144  0.00  0.00    +0.000 A 
ATOM      6  C   UNL     1       3.516   5.630  17.545  0.00  0.00    +0.000 A 
ENDROOT
BRANCH   1   8
ATOM      7  C   UNL     1       2.222   9.134  17.584  0.00  0.00    +0.000 C 
ATOM      8  C   UNL     1       2.632   7.993  18.160  0.00  0.00    +0.000 C 
BRANCH   7  10
ATOM      9  N   UNL     1      -0.020  10.006  17.729  0.00  0.00    +0.000 N 
ATOM     10  C   UNL     1       1.247   9.976  18.337  0.00  0.00    +0.000 C 
ATOM     11  O   UNL     1       1.556  10.581  19.349  0.00  0.00    +0.000 OA
ATOM     12  H   UNL     1      -0.264   9.279  17.068  0.00  0.00    +0.000 HD
BRANCH   9  13
ATOM     13  S   UNL     1      -1.319  10.865  18.338  0.00  0.00    +0.000 S 
ATOM     14  O   UNL     1      -1.122  12.283  18.117  0.00  0.00    +0.000 OA
ATOM     15  O   UNL     1      -1.592  10.321  19.647  0.00  0.00    +0.000 OA
BRANCH  13  16
ATOM     16  C   UNL     1      -2.652  10.341  17.248  0.00  0.00    +0.000 C 
BRANCH  16  17
ATOM     17  C   UNL     1      -3.994  10.873  17.755  0.00  0.00    +0.000 C 
BRANCH  17  18
ATOM     18  C   UNL     1      -4.820  11.574  16.671  0.00  0.00    +0.000 C 
BRANCH  18  20
ATOM     19  C   UNL     1      -6.877  11.657  18.159  0.00  0.00    +0.000 C 
ATOM     20  C   UNL     1      -5.905  12.453  17.304  0.00  0.00    +0.000 C 
ENDBRANCH  18  20
ENDBRANCH  17  18
ENDBRANCH  16  17
ENDBRANCH  13  16
ENDBRANCH   9  13
ENDBRANCH   7  10
ENDBRANCH   1   8
BRANCH   4  21
ATOM     21  O   UNL     1       6.895   4.772  16.200  0.00  0.00    +0.000 OA
BRANCH  21  22
ATOM     22  C   UNL     1       7.039   4.842  14.779  0.00  0.00    +0.000 C 
BRANCH  22  23
ATOM     23  C   UNL     1       6.178   3.766  14.123  0.00  0.00    +0.000 C 
BRANCH  23  24
ATOM     24  O   UNL     1       6.432   3.763  12.716  0.00  0.00    +0.000 OA
ATOM     25  C   UNL     1       5.355   3.182  11.991  0.00  0.00    +0.000 C 
ENDBRANCH  23  24
ENDBRANCH  22  23
ENDBRANCH  21  22
ENDBRANCH   4  21
BRANCH   6  26
ATOM     26  O   UNL     1       2.292   4.999  17.754  0.00  0.00    +0.000 OA
BRANCH  26  27
ATOM     27  C   UNL     1       2.185   4.272  18.945  0.00  0.00    +0.000 A 
ATOM     28  N   UNL     1       2.125   4.970  20.104  0.00  0.00    +0.000 NA
ATOM     29  C   UNL     1       1.816   4.286  21.226  0.00  0.00    +0.000 A 
ATOM     30  C   UNL     1       1.551   2.924  21.272  0.00  0.00    +0.000 A 
ATOM     31  C   UNL     1       1.761   2.217  20.089  0.00  0.00    +0.000 A 
ATOM     32  C   UNL     1       2.068   2.884  18.890  0.00  0.00    +0.000 A 
ATOM     33  C   UNL     1       2.272   2.105  17.628  0.00  0.00    +0.000 C 
BRANCH  30  34
ATOM     34  N   UNL     1       1.322   2.254  22.477  0.00  0.00    +0.000 N 
ATOM     35  H   UNL     1       0.345   2.221  22.756  0.00  0.00    +0.000 HD
ATOM     36  H   UNL     1       1.757   1.337  22.526  0.00  0.00    +0.000 HD
ENDBRANCH  30  34
ENDBRANCH  26  27
ENDBRANCH   6  26
TORSDOF 14
ENDMDL
MODEL 2
REMARK VINA RESULT:      -7.4      3.496      8.858
REMARK  Name = 
REMARK  17 active torsions:
REMARK  status: ('A' for Active; 'I' for Inactive)
REMARK    1  A    between atoms: C_1  and  C_2
REMARK    2  A    between atoms: C_2  and  C_3
REMARK    3  A    between atoms: C_3  and  C_4
REMARK    4  A    between atoms: C_4  and  C_5
REMARK    5  A    between atoms: C_5  and  S_6
REMARK    6  A    between atoms: S_6  and  N_9
REMARK    7  A    between atoms: C_10  and  C_12
REMARK    8  A    between atoms: C_13  and  C_14
REMARK    9  A    between atoms: C_17  and  O_18
REMARK   10  A    between atoms: O_18  and  C_19
REMARK   11  A    between atoms: C_19  and  C_20
REMARK   12  A    between atoms: C_20  and  O_21
REMARK   13  A    between atoms: O_21  and  C_22
REMARK   14  A    between atoms: C_24  and  O_25
REMARK   15  A    between atoms: O_25  and  C_26
REMARK   16  A    between atoms: C_29  and  N_30
REMARK   17  A    between atoms: C_32  and  C_33
REMARK                            x       y       z     vdW  Elec       q    Type
REMARK                         _______ _______ _______ _____ _____    ______ ____
ROOT
ATOM      1  C   UNL     1       2.367   7.828  18.433  0.00  0.00    +0.000 A 
ATOM      2  C   UNL     1       1.683   8.928  17.869  0.00  0.00    +0.000 A 
ATOM      3  C   UNL     1       0.768   9.694  18.604  0.00  0.00    +0.000 A 
ATOM      4  C   UNL     1       0.455   9.351  19.911  0.00  0.00    +0.000 A 
ATOM      5  C   UNL     1       1.073   8.235  20.467  0.00  0.00    +0.000 A 
ATOM      6  C   UNL     1       2.088   7.526  19.779  0.00  0.00    +0.000 A 
ENDROOT
BRANCH   1   8
ATOM      7  C   UNL     1       4.584   7.572  17.185  0.00  0.00    +0.000 C 
ATOM      8  C   UNL     1       3.350   7.177  17.536  0.00  0.00    +0.000 C 
BRANCH   7  10
ATOM      9  N   UNL     1       6.272   5.914  16.730  0.00  0.00    +0.000 N 
ATOM     10  C   UNL     1       5.304   6.760  16.161  0.00  0.00    +0.000 C 
ATOM     11  O   UNL     1       5.074   6.865  14.969  0.00  0.00    +0.000 OA
ATOM     12  H   UNL     1       6.210   5.690  17.715  0.00  0.00    +0.000 HD
BRANCH   9  13
ATOM     13  S   UNL     1       7.241   4.884  15.836  0.00  0.00    +0.000 S 
ATOM     14  O   UNL     1       8.061   4.083  16.722  0.00  0.00    +0.000 OA
ATOM     15  O   UNL     1       7.807   5.677  14.770  0.00  0.00    +0.000 OA
BRANCH  13  16
ATOM     16  C   UNL     1       6.026   3.780  15.099  0.00  0.00    +0.000 C 
BRANCH  16  17
ATOM     17  C   UNL     1       6.247   3.676  13.589  0.00  0.00    +0.000 C 
BRANCH  17  18
ATOM     18  C   UNL     1       4.987   3.966  12.767  0.00  0.00    +0.000 C 
BRANCH  18  20
ATOM     19  C   UNL     1       6.017   1.989  11.548  0.00  0.00    +0.000 C 
ATOM     20  C   UNL     1       4.844   2.953  11.624  0.00  0.00    +0.000 C 
ENDBRANCH  18  20
ENDBRANCH  17  18
ENDBRANCH  16  17
ENDBRANCH  13  16
ENDBRANCH   9  13
ENDBRANCH   7  10
ENDBRANCH   1   8
BRANCH   4  21
ATOM     21  O   UNL     1      -0.431  10.175  20.552  0.00  0.00    +0.000 OA
BRANCH  21  22
ATOM     22  C   UNL     1      -0.093  10.546  21.891  0.00  0.00    +0.000 C 
BRANCH  22  23
ATOM     23  C   UNL     1      -0.388  12.027  22.104  0.00  0.00    +0.000 C 
BRANCH  23  24
ATOM     24  O   UNL     1       0.405  12.793  21.194  0.00  0.00    +0.000 OA
ATOM     25  C   UNL     1      -0.361  13.811  20.561  0.00  0.00    +0.000 C 
ENDBRANCH  23  24
ENDBRANCH  22  23
ENDBRANCH  21  22
ENDBRANCH   4  21
BRANCH   6  26
ATOM     26  O   UNL     1       2.805   6.546  20.460  0.00  0.00    +0.000 OA
BRANCH  26  27
ATOM     27  C   UNL     1       2.476   5.225  20.139  0.00  0.00    +0.000 A 
ATOM     28  N   UNL     1       1.184   4.845  20.290  0.00  0.00    +0.000 NA
ATOM     29  C   UNL     1       0.827   3.643  19.789  0.00  0.00    +0.000 A 
ATOM     30  C   UNL     1       1.688   2.777  19.127  0.00  0.00    +0.000 A 
ATOM     31  C   UNL     1       3.035   3.138  19.117  0.00  0.00    +0.000 A 
ATOM     32  C   UNL     1       3.455   4.386  19.611  0.00  0.00    +0.000 A 
ATOM     33  C   UNL     1       4.904   4.758  19.573  0.00  0.00    +0.000 C 
BRANCH  30  34
ATOM     34  N   UNL     1       1.282   1.508  18.707  0.00  0.00    +0.000 N 
ATOM     35  H   UNL     1       1.720   0.742  19.212  0.00  0.00    +0.000 HD
ATOM     36  H   UNL     1       0.273   1.395  18.657  0.00  0.00    +0.000 HD
ENDBRANCH  30  34
ENDBRANCH  26  27
ENDBRANCH   6  26
TORSDOF 14
ENDMDL
MODEL 3
REMARK VINA RESULT:      -7.2      1.769      2.475
REMARK  Name = 
REMARK  17 active torsions:
REMARK  status: ('A' for Active; 'I' for Inactive)
REMARK    1  A    between atoms: C_1  and  C_2
REMARK    2  A    between atoms: C_2  and  C_3
REMARK    3  A    between atoms: C_3  and  C_4
REMARK    4  A    between atoms: C_4  and  C_5
REMARK    5  A    between atoms: C_5  and  S_6
REMARK    6  A    between atoms: S_6  and  N_9
REMARK    7  A    between atoms: C_10  and  C_12
REMARK    8  A    between atoms: C_13  and  C_14
REMARK    9  A    between atoms: C_17  and  O_18
REMARK   10  A    between atoms: O_18  and  C_19
REMARK   11  A    between atoms: C_19  and  C_20
REMARK   12  A    between atoms: C_20  and  O_21
REMARK   13  A    between atoms: O_21  and  C_22
REMARK   14  A    between atoms: C_24  and  O_25
REMARK   15  A    between atoms: O_25  and  C_26
REMARK   16  A    between atoms: C_29  and  N_30
REMARK   17  A    between atoms: C_32  and  C_33
REMARK                            x       y       z     vdW  Elec       q    Type
REMARK                         _______ _______ _______ _____ _____    ______ ____
ROOT
ATOM      1  C   UNL     1       3.287   7.193  17.731  0.00  0.00    +0.000 A 
ATOM      2  C   UNL     1       4.479   7.815  17.294  0.00  0.00    +0.000 A 
ATOM      3  C   UNL     1       5.484   7.107  16.621  0.00  0.00    +0.000 A 
ATOM      4  C   UNL     1       5.364   5.741  16.416  0.00  0.00    +0.000 A 
ATOM      5  C   UNL     1       4.226   5.098  16.892  0.00  0.00    +0.000 A 
ATOM      6  C   UNL     1       3.149   5.819  17.464  0.00  0.00    +0.000 A 
ENDROOT
BRANCH   1   8
ATOM      7  C   UNL     1       1.693   9.190  17.855  0.00  0.00    +0.000 C 
ATOM      8  C   UNL     1       2.302   8.105  18.360  0.00  0.00    +0.000 C 
BRANCH   7  10
ATOM      9  N   UNL     1       0.531  11.261  18.261  0.00  0.00    +0.000 N 
ATOM     10  C   UNL     1       0.827   9.985  18.772  0.00  0.00    +0.000 C 
ATOM     11  O   UNL     1       0.458   9.557  19.852  0.00  0.00    +0.000 OA
ATOM     12  H   UNL     1       0.640  11.430  17.269  0.00  0.00    +0.000 HD
BRANCH   9  13
ATOM     13  S   UNL     1      -0.417  12.382  19.063  0.00  0.00    +0.000 S 
ATOM     14  O   UNL     1      -0.437  13.630  18.327  0.00  0.00    +0.000 OA
ATOM     15  O   UNL     1      -0.041  12.315  20.455  0.00  0.00    +0.000 OA
BRANCH  13  16
ATOM     16  C   UNL     1      -2.056  11.655  18.912  0.00  0.00    +0.000 C 
BRANCH  16  17
ATOM     17  C   UNL     1      -2.431  11.486  17.438  0.00  0.00    +0.000 C 
BRANCH  17  18
ATOM     18  C   UNL     1      -2.871  10.062  17.081  0.00  0.00    +0.000 C 
BRANCH  18  20
ATOM     19  C   UNL     1      -3.752  10.189  14.701  0.00  0.00    +0.000 C 
ATOM     20  C   UNL     1      -2.599   9.770  15.600  0.00  0.00    +0.000 C 
ENDBRANCH  18  20
ENDBRANCH  17  18
ENDBRANCH  16  17
ENDBRANCH  13  16
ENDBRANCH   9  13
ENDBRANCH   7  10
ENDBRANCH   1   8
BRANCH   4  21
ATOM     21  O   UNL     1       6.388   5.145  15.728  0.00  0.00    +0.000 OA
BRANCH  21  22
ATOM     22  C   UNL     1       7.023   4.039  16.374  0.00  0.00    +0.000 C 
BRANCH  22  23
ATOM     23  C   UNL     1       7.893   4.544  17.521  0.00  0.00    +0.000 C 
BRANCH  23  24
ATOM     24  O   UNL     1       7.132   4.510  18.730  0.00  0.00    +0.000 OA
ATOM     25  C   UNL     1       7.319   5.692  19.500  0.00  0.00    +0.000 C 
ENDBRANCH  23  24
ENDBRANCH  22  23
ENDBRANCH  21  22
ENDBRANCH   4  21
BRANCH   6  26
ATOM     26  O   UNL     1       1.959   5.148  17.737  0.00  0.00    +0.000 OA
BRANCH  26  27
ATOM     27  C   UNL     1       1.956   4.379  18.906  0.00  0.00    +0.000 A 
ATOM     28  N   UNL     1       1.858   5.034  20.088  0.00  0.00    +0.000 NA
ATOM     29  C   UNL     1       1.648   4.289  21.195  0.00  0.00    +0.000 A 
ATOM     30  C   UNL     1       1.521   2.907  21.203  0.00  0.00    +0.000 A 
ATOM     31  C   UNL     1       1.770   2.259  19.994  0.00  0.00    +0.000 A 
ATOM     32  C   UNL     1       1.977   2.989  18.809  0.00  0.00    +0.000 A 
ATOM     33  C   UNL     1       2.224   2.272  17.520  0.00  0.00    +0.000 C 
BRANCH  30  34
ATOM     34  N   UNL     1       1.392   2.182  22.392  0.00  0.00    +0.000 N 
ATOM     35  H   UNL     1       0.438   2.113  22.735  0.00  0.00    +0.000 HD
ATOM     36  H   UNL     1       1.850   1.275  22.371  0.00  0.00    +0.000 HD
ENDBRANCH  30  34
ENDBRANCH  26  27
ENDBRANCH   6  26
TORSDOF 14
ENDMDL
MODEL 4
REMARK VINA RESULT:      -7.2      1.444      1.796
REMARK  Name = 
REMARK  17 active torsions:
REMARK  status: ('A' for Active; 'I' for Inactive)
REMARK    1  A    between atoms: C_1  and  C_2
REMARK    2  A    between atoms: C_2  and  C_3
REMARK    3  A    between atoms: C_3  and  C_4
REMARK    4  A    between atoms: C_4  and  C_5
REMARK    5  A    between atoms: C_5  and  S_6
REMARK    6  A    between atoms: S_6  and  N_9
REMARK    7  A    between atoms: C_10  and  C_12
REMARK    8  A    between atoms: C_13  and  C_14
REMARK    9  A    between atoms: C_17  and  O_18
REMARK   10  A    between atoms: O_18  and  C_19
REMARK   11  A    between atoms: C_19  and  C_20
REMARK   12  A    between atoms: C_20  and  O_21
REMARK   13  A    between atoms: O_21  and  C_22
REMARK   14  A    between atoms: C_24  and  O_25
REMARK   15  A    between atoms: O_25  and  C_26
REMARK   16  A    between atoms: C_29  and  N_30
REMARK   17  A    between atoms: C_32  and  C_33
REMARK                            x       y       z     vdW  Elec       q    Type
REMARK                         _______ _______ _______ _____ _____    ______ ____
ROOT
ATOM      1  C   UNL     1       3.793   6.950  17.695  0.00  0.00    +0.000 A 
ATOM      2  C   UNL     1       5.058   7.432  17.290  0.00  0.00    +0.000 A 
ATOM      3  C   UNL     1       6.034   6.591  16.737  0.00  0.00    +0.000 A 
ATOM      4  C   UNL     1       5.805   5.228  16.627  0.00  0.00    +0.000 A 
ATOM      5  C   UNL     1       4.588   4.723  17.075  0.00  0.00    +0.000 A 
ATOM      6  C   UNL     1       3.549   5.576  17.522  0.00  0.00    +0.000 A 
ENDROOT
BRANCH   1   8
ATOM      7  C   UNL     1       2.262   8.992  17.528  0.00  0.00    +0.000 C 
ATOM      8  C   UNL     1       2.859   7.988  18.191  0.00  0.00    +0.000 C 
BRANCH   7  10
ATOM      9  N   UNL     1       1.935  11.277  18.218  0.00  0.00    +0.000 N 
ATOM     10  C   UNL     1       1.454   9.961  18.324  0.00  0.00    +0.000 C 
ATOM     11  O   UNL     1       0.504   9.612  19.004  0.00  0.00    +0.000 OA
ATOM     12  H   UNL     1       2.537  11.519  17.441  0.00  0.00    +0.000 HD
BRANCH   9  13
ATOM     13  S   UNL     1       1.239  12.583  18.998  0.00  0.00    +0.000 S 
ATOM     14  O   UNL     1       1.977  13.792  18.693  0.00  0.00    +0.000 OA
ATOM     15  O   UNL     1       0.981  12.160  20.354  0.00  0.00    +0.000 OA
BRANCH  13  16
ATOM     16  C   UNL     1      -0.349  12.709  18.161  0.00  0.00    +0.000 C 
BRANCH  16  17
ATOM     17  C   UNL     1      -1.470  12.933  19.177  0.00  0.00    +0.000 C 
BRANCH  17  18
ATOM     18  C   UNL     1      -2.529  11.825  19.171  0.00  0.00    +0.000 C 
BRANCH  18  20
ATOM     19  C   UNL     1      -3.060   9.856  17.656  0.00  0.00    +0.000 C 
ATOM     20  C   UNL     1      -2.806  11.353  17.738  0.00  0.00    +0.000 C 
ENDBRANCH  18  20
ENDBRANCH  17  18
ENDBRANCH  16  17
ENDBRANCH  13  16
ENDBRANCH   9  13
ENDBRANCH   7  10
ENDBRANCH   1   8
BRANCH   4  21
ATOM     21  O   UNL     1       6.809   4.496  16.051  0.00  0.00    +0.000 OA
BRANCH  21  22
ATOM     22  C   UNL     1       7.018   4.702  14.652  0.00  0.00    +0.000 C 
BRANCH  22  23
ATOM     23  C   UNL     1       5.864   4.090  13.865  0.00  0.00    +0.000 C 
BRANCH  23  24
ATOM     24  O   UNL     1       6.389   3.420  12.716  0.00  0.00    +0.000 OA
ATOM     25  C   UNL     1       5.354   3.010  11.831  0.00  0.00    +0.000 C 
ENDBRANCH  23  24
ENDBRANCH  22  23
ENDBRANCH  21  22
ENDBRANCH   4  21
BRANCH   6  26
ATOM     26  O   UNL     1       2.291   5.031  17.768  0.00  0.00    +0.000 OA
BRANCH  26  27
ATOM     27  C   UNL     1       2.177   4.285  18.946  0.00  0.00    +0.000 A 
ATOM     28  N   UNL     1       2.106   4.965  20.116  0.00  0.00    +0.000 NA
ATOM     29  C   UNL     1       1.791   4.262  21.225  0.00  0.00    +0.000 A 
ATOM     30  C   UNL     1       1.530   2.898  21.247  0.00  0.00    +0.000 A 
ATOM     31  C   UNL     1       1.752   2.211  20.054  0.00  0.00    +0.000 A 
ATOM     32  C   UNL     1       2.065   2.898  18.868  0.00  0.00    +0.000 A 
ATOM     33  C   UNL     1       2.281   2.140  17.596  0.00  0.00    +0.000 C 
BRANCH  30  34
ATOM     34  N   UNL     1       1.295   2.209  22.439  0.00  0.00    +0.000 N 
ATOM     35  H   UNL     1       1.448   1.205  22.377  0.00  0.00    +0.000 HD
ATOM     36  H   UNL     1       1.766   2.610  23.245  0.00  0.00    +0.000 HD
ENDBRANCH  30  34
ENDBRANCH  26  27
ENDBRANCH   6  26
TORSDOF 14
ENDMDL
MODEL 5
REMARK VINA RESULT:      -7.1      2.141      2.657
REMARK  Name = 
REMARK  17 active torsions:
REMARK  status: ('A' for Active; 'I' for Inactive)
REMARK    1  A    between atoms: C_1  and  C_2
REMARK    2  A    between atoms: C_2  and  C_3
REMARK    3  A    between atoms: C_3  and  C_4
REMARK    4  A    between atoms: C_4  and  C_5
REMARK    5  A    between atoms: C_5  and  S_6
REMARK    6  A    between atoms: S_6  and  N_9
REMARK    7  A    between atoms: C_10  and  C_12
REMARK    8  A    between atoms: C_13  and  C_14
REMARK    9  A    between atoms: C_17  and  O_18
REMARK   10  A    between atoms: O_18  and  C_19
REMARK   11  A    between atoms: C_19  and  C_20
REMARK   12  A    between atoms: C_20  and  O_21
REMARK   13  A    between atoms: O_21  and  C_22
REMARK   14  A    between atoms: C_24  and  O_25
REMARK   15  A    between atoms: O_25  and  C_26
REMARK   16  A    between atoms: C_29  and  N_30
REMARK   17  A    between atoms: C_32  and  C_33
REMARK                            x       y       z     vdW  Elec       q    Type
REMARK                         _______ _______ _______ _____ _____    ______ ____
ROOT
ATOM      1  C   UNL     1       4.714   5.600  17.826  0.00  0.00    +0.000 A 
ATOM      2  C   UNL     1       5.819   6.463  17.648  0.00  0.00    +0.000 A 
ATOM      3  C   UNL     1       6.823   6.203  16.706  0.00  0.00    +0.000 A 
ATOM      4  C   UNL     1       6.793   5.040  15.951  0.00  0.00    +0.000 A 
ATOM      5  C   UNL     1       5.746   4.147  16.153  0.00  0.00    +0.000 A 
ATOM      6  C   UNL     1       4.662   4.454  17.012  0.00  0.00    +0.000 A 
ENDROOT
BRANCH   1   8
ATOM      7  C   UNL     1       2.745   6.989  18.685  0.00  0.00    +0.000 C 
ATOM      8  C   UNL     1       3.711   6.065  18.813  0.00  0.00    +0.000 C 
BRANCH   7  10
ATOM      9  N   UNL     1       1.438   8.640  19.856  0.00  0.00    +0.000 N 
ATOM     10  C   UNL     1       1.952   7.332  19.901  0.00  0.00    +0.000 C 
ATOM     11  O   UNL     1       1.810   6.552  20.826  0.00  0.00    +0.000 OA
ATOM     12  H   UNL     1       1.368   9.109  18.962  0.00  0.00    +0.000 HD
BRANCH   9  13
ATOM     13  S   UNL     1       0.510   9.312  21.074  0.00  0.00    +0.000 S 
ATOM     14  O   UNL     1       1.365   9.967  22.043  0.00  0.00    +0.000 OA
ATOM     15  O   UNL     1      -0.455   8.308  21.455  0.00  0.00    +0.000 OA
BRANCH  13  16
ATOM     16  C   UNL     1      -0.376  10.606  20.193  0.00  0.00    +0.000 C 
BRANCH  16  17
ATOM     17  C   UNL     1       0.112  10.696  18.746  0.00  0.00    +0.000 C 
BRANCH  17  18
ATOM     18  C   UNL     1      -0.915  10.197  17.724  0.00  0.00    +0.000 C 
BRANCH  18  20
ATOM     19  C   UNL     1      -3.397   9.664  17.623  0.00  0.00    +0.000 C 
ATOM     20  C   UNL     1      -2.331  10.622  18.131  0.00  0.00    +0.000 C 
ENDBRANCH  18  20
ENDBRANCH  17  18
ENDBRANCH  16  17
ENDBRANCH  13  16
ENDBRANCH   9  13
ENDBRANCH   7  10
ENDBRANCH   1   8
BRANCH   4  21
ATOM     21  O   UNL     1       7.806   4.890  15.041  0.00  0.00    +0.000 OA
BRANCH  21  22
ATOM     22  C   UNL     1       7.436   4.989  13.663  0.00  0.00    +0.000 C 
BRANCH  22  23
ATOM     23  C   UNL     1       6.424   3.899  13.324  0.00  0.00    +0.000 C 
BRANCH  23  24
ATOM     24  O   UNL     1       6.650   3.457  11.984  0.00  0.00    +0.000 OA
ATOM     25  C   UNL     1       5.762   2.406  11.623  0.00  0.00    +0.000 C 
ENDBRANCH  23  24
ENDBRANCH  22  23
ENDBRANCH  21  22
ENDBRANCH   4  21
BRANCH   6  26
ATOM     26  O   UNL     1       3.551   3.615  17.020  0.00  0.00    +0.000 OA
BRANCH  26  27
ATOM     27  C   UNL     1       3.111   3.209  18.285  0.00  0.00    +0.000 A 
ATOM     28  N   UNL     1       4.022   2.648  19.116  0.00  0.00    +0.000 NA
ATOM     29  C   UNL     1       3.652   2.449  20.400  0.00  0.00    +0.000 A 
ATOM     30  C   UNL     1       2.410   2.783  20.923  0.00  0.00    +0.000 A 
ATOM     31  C   UNL     1       1.455   3.224  20.008  0.00  0.00    +0.000 A 
ATOM     32  C   UNL     1       1.795   3.464  18.665  0.00  0.00    +0.000 A 
ATOM     33  C   UNL     1       0.757   3.954  17.705  0.00  0.00    +0.000 C 
BRANCH  30  34
ATOM     34  N   UNL     1       2.054   2.471  22.239  0.00  0.00    +0.000 N 
ATOM     35  H   UNL     1       1.052   2.486  22.412  0.00  0.00    +0.000 HD
ATOM     36  H   UNL     1       2.483   1.620  22.589  0.00  0.00    +0.000 HD
ENDBRANCH  30  34
ENDBRANCH  26  27
ENDBRANCH   6  26
TORSDOF 14
ENDMDL
MODEL 6
REMARK VINA RESULT:      -7.1      2.371      3.455
REMARK  Name = 
REMARK  17 active torsions:
REMARK  status: ('A' for Active; 'I' for Inactive)
REMARK    1  A    between atoms: C_1  and  C_2
REMARK    2  A    between atoms: C_2  and  C_3
REMARK    3  A    between atoms: C_3  and  C_4
REMARK    4  A    between atoms: C_4  and  C_5
REMARK    5  A    between atoms: C_5  and  S_6
REMARK    6  A    between atoms: S_6  and  N_9
REMARK    7  A    between atoms: C_10  and  C_12
REMARK    8  A    between atoms: C_13  and  C_14
REMARK    9  A    between atoms: C_17  and  O_18
REMARK   10  A    between atoms: O_18  and  C_19
REMARK   11  A    between atoms: C_19  and  C_20
REMARK   12  A    between atoms: C_20  and  O_21
REMARK   13  A    between atoms: O_21  and  C_22
REMARK   14  A    between atoms: C_24  and  O_25
REMARK   15  A    between atoms: O_25  and  C_26
REMARK   16  A    between atoms: C_29  and  N_30
REMARK   17  A    between atoms: C_32  and  C_33
REMARK                            x       y       z     vdW  Elec       q    Type
REMARK                         _______ _______ _______ _____ _____    ______ ____
ROOT
ATOM      1  C   UNL     1       3.607   6.881  17.743  0.00  0.00    +0.000 A 
ATOM      2  C   UNL     1       4.826   7.505  17.394  0.00  0.00    +0.000 A 
ATOM      3  C   UNL     1       5.881   6.800  16.798  0.00  0.00    +0.000 A 
ATOM      4  C   UNL     1       5.780   5.433  16.586  0.00  0.00    +0.000 A 
ATOM      5  C   UNL     1       4.611   4.788  16.977  0.00  0.00    +0.000 A 
ATOM      6  C   UNL     1       3.493   5.506  17.468  0.00  0.00    +0.000 A 
ENDROOT
BRANCH   1   8
ATOM      7  C   UNL     1       2.094   8.942  17.804  0.00  0.00    +0.000 C 
ATOM      8  C   UNL     1       2.576   7.790  18.297  0.00  0.00    +0.000 C 
BRANCH   7  10
ATOM      9  N   UNL     1       0.559  10.793  17.965  0.00  0.00    +0.000 N 
ATOM     10  C   UNL     1       1.132   9.707  18.650  0.00  0.00    +0.000 C 
ATOM     11  O   UNL     1       0.913   9.413  19.812  0.00  0.00    +0.000 OA
ATOM     12  H   UNL     1       0.582  10.802  16.954  0.00  0.00    +0.000 HD
BRANCH   9  13
ATOM     13  S   UNL     1      -0.554  11.835  18.651  0.00  0.00    +0.000 S 
ATOM     14  O   UNL     1      -0.884  11.395  19.992  0.00  0.00    +0.000 OA
ATOM     15  O   UNL     1      -1.565  12.072  17.648  0.00  0.00    +0.000 OA
BRANCH  13  16
ATOM     16  C   UNL     1       0.408  13.347  18.814  0.00  0.00    +0.000 C 
BRANCH  16  17
ATOM     17  C   UNL     1       1.812  13.151  18.237  0.00  0.00    +0.000 C 
BRANCH  17  18
ATOM     18  C   UNL     1       2.879  14.008  18.927  0.00  0.00    +0.000 C 
BRANCH  18  20
ATOM     19  C   UNL     1       4.995  14.915  17.853  0.00  0.00    +0.000 C 
ATOM     20  C   UNL     1       3.481  15.016  17.940  0.00  0.00    +0.000 C 
ENDBRANCH  18  20
ENDBRANCH  17  18
ENDBRANCH  16  17
ENDBRANCH  13  16
ENDBRANCH   9  13
ENDBRANCH   7  10
ENDBRANCH   1   8
BRANCH   4  21
ATOM     21  O   UNL     1       6.853   4.840  15.976  0.00  0.00    +0.000 OA
BRANCH  21  22
ATOM     22  C   UNL     1       6.886   4.913  14.548  0.00  0.00    +0.000 C 
BRANCH  22  23
ATOM     23  C   UNL     1       6.208   3.682  13.955  0.00  0.00    +0.000 C 
BRANCH  23  24
ATOM     24  O   UNL     1       6.360   3.709  12.533  0.00  0.00    +0.000 OA
ATOM     25  C   UNL     1       5.237   3.133  11.877  0.00  0.00    +0.000 C 
ENDBRANCH  23  24
ENDBRANCH  22  23
ENDBRANCH  21  22
ENDBRANCH   4  21
BRANCH   6  26
ATOM     26  O   UNL     1       2.288   4.832  17.654  0.00  0.00    +0.000 OA
BRANCH  26  27
ATOM     27  C   UNL     1       2.160   4.152  18.869  0.00  0.00    +0.000 A 
ATOM     28  N   UNL     1       2.011   4.896  19.992  0.00  0.00    +0.000 NA
ATOM     29  C   UNL     1       1.682   4.245  21.129  0.00  0.00    +0.000 A 
ATOM     30  C   UNL     1       1.481   2.875  21.224  0.00  0.00    +0.000 A 
ATOM     31  C   UNL     1       1.782   2.129  20.084  0.00  0.00    +0.000 A 
ATOM     32  C   UNL     1       2.113   2.759  18.871  0.00  0.00    +0.000 A 
ATOM     33  C   UNL     1       2.414   1.938  17.657  0.00  0.00    +0.000 C 
BRANCH  30  34
ATOM     34  N   UNL     1       1.229   2.246  22.446  0.00  0.00    +0.000 N 
ATOM     35  H   UNL     1       1.658   1.329  22.539  0.00  0.00    +0.000 HD
ATOM     36  H   UNL     1       1.417   2.832  23.255  0.00  0.00    +0.000 HD
ENDBRANCH  30  34
ENDBRANCH  26  27
ENDBRANCH   6  26
TORSDOF 14
ENDMDL
MODEL 7
REMARK VINA RESULT:      -7.0      3.485     10.212
REMARK  Name = 
REMARK  17 active torsions:
REMARK  status: ('A' for Active; 'I' for Inactive)
REMARK    1  A    between atoms: C_1  and  C_2
REMARK    2  A    between atoms: C_2  and  C_3
REMARK    3  A    between atoms: C_3  and  C_4
REMARK    4  A    between atoms: C_4  and  C_5
REMARK    5  A    between atoms: C_5  and  S_6
REMARK    6  A    between atoms: S_6  and  N_9
REMARK    7  A    between atoms: C_10  and  C_12
REMARK    8  A    between atoms: C_13  and  C_14
REMARK    9  A    between atoms: C_17  and  O_18
REMARK   10  A    between atoms: O_18  and  C_19
REMARK   11  A    between atoms: C_19  and  C_20
REMARK   12  A    between atoms: C_20  and  O_21
REMARK   13  A    between atoms: O_21  and  C_22
REMARK   14  A    between atoms: C_24  and  O_25
REMARK   15  A    between atoms: O_25  and  C_26
REMARK   16  A    between atoms: C_29  and  N_30
REMARK   17  A    between atoms: C_32  and  C_33
REMARK                            x       y       z     vdW  Elec       q    Type
REMARK                         _______ _______ _______ _____ _____    ______ ____
ROOT
ATOM      1  C   UNL     1       0.942   9.030  20.679  0.00  0.00    +0.000 A 
ATOM      2  C   UNL     1       0.791   8.685  22.041  0.00  0.00    +0.000 A 
ATOM      3  C   UNL     1       0.043   9.470  22.929  0.00  0.00    +0.000 A 
ATOM      4  C   UNL     1      -0.529  10.660  22.504  0.00  0.00    +0.000 A 
ATOM      5  C   UNL     1      -0.341  11.049  21.181  0.00  0.00    +0.000 A 
ATOM      6  C   UNL     1       0.307  10.207  20.244  0.00  0.00    +0.000 A 
ENDROOT
BRANCH   1   8
ATOM      7  C   UNL     1       1.940   6.749  20.095  0.00  0.00    +0.000 C 
ATOM      8  C   UNL     1       1.704   8.051  19.868  0.00  0.00    +0.000 C 
BRANCH   7  10
ATOM      9  N   UNL     1       4.126   5.816  19.694  0.00  0.00    +0.000 N 
ATOM     10  C   UNL     1       2.849   6.036  19.150  0.00  0.00    +0.000 C 
ATOM     11  O   UNL     1       2.499   5.721  18.026  0.00  0.00    +0.000 OA
ATOM     12  H   UNL     1       4.245   5.858  20.698  0.00  0.00    +0.000 HD
BRANCH   9  13
ATOM     13  S   UNL     1       5.361   5.043  18.873  0.00  0.00    +0.000 S 
ATOM     14  O   UNL     1       6.482   4.819  19.763  0.00  0.00    +0.000 OA
ATOM     15  O   UNL     1       5.505   5.729  17.611  0.00  0.00    +0.000 OA
BRANCH  13  16
ATOM     16  C   UNL     1       4.629   3.435  18.532  0.00  0.00    +0.000 C 
BRANCH  16  17
ATOM     17  C   UNL     1       4.396   2.668  19.836  0.00  0.00    +0.000 C 
BRANCH  17  18
ATOM     18  C   UNL     1       2.914   2.493  20.183  0.00  0.00    +0.000 C 
BRANCH  18  20
ATOM     19  C   UNL     1       0.695   2.723  18.967  0.00  0.00    +0.000 C 
ATOM     20  C   UNL     1       2.103   2.151  18.927  0.00  0.00    +0.000 C 
ENDBRANCH  18  20
ENDBRANCH  17  18
ENDBRANCH  16  17
ENDBRANCH  13  16
ENDBRANCH   9  13
ENDBRANCH   7  10
ENDBRANCH   1   8
BRANCH   4  21
ATOM     21  O   UNL     1      -1.260  11.342  23.440  0.00  0.00    +0.000 OA
BRANCH  21  22
ATOM     22  C   UNL     1      -1.634  12.679  23.097  0.00  0.00    +0.000 C 
BRANCH  22  23
ATOM     23  C   UNL     1      -3.035  12.972  23.625  0.00  0.00    +0.000 C 
BRANCH  23  24
ATOM     24  O   UNL     1      -3.980  12.194  22.885  0.00  0.00    +0.000 OA
ATOM     25  C   UNL     1      -4.872  13.020  22.146  0.00  0.00    +0.000 C 
ENDBRANCH  23  24
ENDBRANCH  22  23
ENDBRANCH  21  22
ENDBRANCH   4  21
BRANCH   6  26
ATOM     26  O   UNL     1       0.289  10.560  18.897  0.00  0.00    +0.000 OA
BRANCH  26  27
ATOM     27  C   UNL     1      -0.981  10.676  18.321  0.00  0.00    +0.000 A 
ATOM     28  N   UNL     1      -1.674   9.533  18.094  0.00  0.00    +0.000 NA
ATOM     29  C   UNL     1      -2.970   9.654  17.734  0.00  0.00    +0.000 A 
ATOM     30  C   UNL     1      -3.639  10.862  17.588  0.00  0.00    +0.000 A 
ATOM     31  C   UNL     1      -2.859  12.013  17.691  0.00  0.00    +0.000 A 
ATOM     32  C   UNL     1      -1.509  11.942  18.079  0.00  0.00    +0.000 A 
ATOM     33  C   UNL     1      -0.696  13.194  18.200  0.00  0.00    +0.000 C 
BRANCH  30  34
ATOM     34  N   UNL     1      -4.957  10.927  17.129  0.00  0.00    +0.000 N 
ATOM     35  H   UNL     1      -5.647  10.594  17.796  0.00  0.00    +0.000 HD
ATOM     36  H   UNL     1      -5.214  11.833  16.745  0.00  0.00    +0.000 HD
ENDBRANCH  30  34
ENDBRANCH  26  27
ENDBRANCH   6  26
TORSDOF 14
ENDMDL
MODEL 8
REMARK VINA RESULT:      -7.0      2.506      3.235
REMARK  Name = 
REMARK  17 active torsions:
REMARK  status: ('A' for Active; 'I' for Inactive)
REMARK    1  A    between atoms: C_1  and  C_2
REMARK    2  A    between atoms: C_2  and  C_3
REMARK    3  A    between atoms: C_3  and  C_4
REMARK    4  A    between atoms: C_4  and  C_5
REMARK    5  A    between atoms: C_5  and  S_6
REMARK    6  A    between atoms: S_6  and  N_9
REMARK    7  A    between atoms: C_10  and  C_12
REMARK    8  A    between atoms: C_13  and  C_14
REMARK    9  A    between atoms: C_17  and  O_18
REMARK   10  A    between atoms: O_18  and  C_19
REMARK   11  A    between atoms: C_19  and  C_20
REMARK   12  A    between atoms: C_20  and  O_21
REMARK   13  A    between atoms: O_21  and  C_22
REMARK   14  A    between atoms: C_24  and  O_25
REMARK   15  A    between atoms: O_25  and  C_26
REMARK   16  A    between atoms: C_29  and  N_30
REMARK   17  A    between atoms: C_32  and  C_33
REMARK                            x       y       z     vdW  Elec       q    Type
REMARK                         _______ _______ _______ _____ _____    ______ ____
ROOT
ATOM      1  C   UNL     1       3.725   6.661  17.732  0.00  0.00    +0.000 A 
ATOM      2  C   UNL     1       4.967   7.221  17.357  0.00  0.00    +0.000 A 
ATOM      3  C   UNL     1       5.945   6.481  16.679  0.00  0.00    +0.000 A 
ATOM      4  C   UNL     1       5.743   5.136  16.406  0.00  0.00    +0.000 A 
ATOM      5  C   UNL     1       4.551   4.549  16.819  0.00  0.00    +0.000 A 
ATOM      6  C   UNL     1       3.506   5.313  17.395  0.00  0.00    +0.000 A 
ENDROOT
BRANCH   1   8
ATOM      7  C   UNL     1       2.203   8.711  17.881  0.00  0.00    +0.000 C 
ATOM      8  C   UNL     1       2.782   7.606  18.376  0.00  0.00    +0.000 C 
BRANCH   7  10
ATOM      9  N   UNL     1       1.256  10.869  18.384  0.00  0.00    +0.000 N 
ATOM     10  C   UNL     1       1.379   9.536  18.812  0.00  0.00    +0.000 C 
ATOM     11  O   UNL     1       0.906   9.080  19.838  0.00  0.00    +0.000 OA
ATOM     12  H   UNL     1       1.439  11.091  17.414  0.00  0.00    +0.000 HD
BRANCH   9  13
ATOM     13  S   UNL     1       0.395  12.033  19.220  0.00  0.00    +0.000 S 
ATOM     14  O   UNL     1       0.964  12.218  20.539  0.00  0.00    +0.000 OA
ATOM     15  O   UNL     1      -1.003  11.731  19.021  0.00  0.00    +0.000 OA
BRANCH  13  16
ATOM     16  C   UNL     1       0.765  13.518  18.274  0.00  0.00    +0.000 C 
BRANCH  16  17
ATOM     17  C   UNL     1       0.033  14.724  18.866  0.00  0.00    +0.000 C 
BRANCH  17  18
ATOM     18  C   UNL     1       0.952  15.920  19.139  0.00  0.00    +0.000 C 
BRANCH  18  20
ATOM     19  C   UNL     1       2.864  16.678  17.648  0.00  0.00    +0.000 C 
ATOM     20  C   UNL     1       2.373  15.634  18.638  0.00  0.00    +0.000 C 
ENDBRANCH  18  20
ENDBRANCH  17  18
ENDBRANCH  16  17
ENDBRANCH  13  16
ENDBRANCH   9  13
ENDBRANCH   7  10
ENDBRANCH   1   8
BRANCH   4  21
ATOM     21  O   UNL     1       6.746   4.507  15.718  0.00  0.00    +0.000 OA
BRANCH  21  22
ATOM     22  C   UNL     1       6.386   3.938  14.456  0.00  0.00    +0.000 C 
BRANCH  22  23
ATOM     23  C   UNL     1       7.110   4.678  13.335  0.00  0.00    +0.000 C 
BRANCH  23  24
ATOM     24  O   UNL     1       6.923   3.962  12.112  0.00  0.00    +0.000 OA
ATOM     25  C   UNL     1       5.742   3.170  12.144  0.00  0.00    +0.000 C 
ENDBRANCH  23  24
ENDBRANCH  22  23
ENDBRANCH  21  22
ENDBRANCH   4  21
BRANCH   6  26
ATOM     26  O   UNL     1       2.268   4.710  17.603  0.00  0.00    +0.000 OA
BRANCH  26  27
ATOM     27  C   UNL     1       2.102   4.087  18.845  0.00  0.00    +0.000 A 
ATOM     28  N   UNL     1       1.869   4.880  19.919  0.00  0.00    +0.000 NA
ATOM     29  C   UNL     1       1.507   4.274  21.070  0.00  0.00    +0.000 A 
ATOM     30  C   UNL     1       1.351   2.904  21.226  0.00  0.00    +0.000 A 
ATOM     31  C   UNL     1       1.737   2.114  20.143  0.00  0.00    +0.000 A 
ATOM     32  C   UNL     1       2.106   2.696  18.917  0.00  0.00    +0.000 A 
ATOM     33  C   UNL     1       2.498   1.827  17.763  0.00  0.00    +0.000 C 
BRANCH  30  34
ATOM     34  N   UNL     1       1.059   2.328  22.465  0.00  0.00    +0.000 N 
ATOM     35  H   UNL     1       0.178   2.634  22.869  0.00  0.00    +0.000 HD
ATOM     36  H   UNL     1       1.145   1.315  22.478  0.00  0.00    +0.000 HD
ENDBRANCH  30  34
ENDBRANCH  26  27
ENDBRANCH   6  26
TORSDOF 14
ENDMDL
MODEL 9
REMARK VINA RESULT:      -6.9      1.763      2.384
REMARK  Name = 
REMARK  17 active torsions:
REMARK  status: ('A' for Active; 'I' for Inactive)
REMARK    1  A    between atoms: C_1  and  C_2
REMARK    2  A    between atoms: C_2  and  C_3
REMARK    3  A    between atoms: C_3  and  C_4
REMARK    4  A    between atoms: C_4  and  C_5
REMARK    5  A    between atoms: C_5  and  S_6
REMARK    6  A    between atoms: S_6  and  N_9
REMARK    7  A    between atoms: C_10  and  C_12
REMARK    8  A    between atoms: C_13  and  C_14
REMARK    9  A    between atoms: C_17  and  O_18
REMARK   10  A    between atoms: O_18  and  C_19
REMARK   11  A    between atoms: C_19  and  C_20
REMARK   12  A    between atoms: C_20  and  O_21
REMARK   13  A    between atoms: O_21  and  C_22
REMARK   14  A    between atoms: C_24  and  O_25
REMARK   15  A    between atoms: O_25  and  C_26
REMARK   16  A    between atoms: C_29  and  N_30
REMARK   17  A    between atoms: C_32  and  C_33
REMARK                            x       y       z     vdW  Elec       q    Type
REMARK                         _______ _______ _______ _____ _____    ______ ____
ROOT
ATOM      1  C   UNL     1       3.597   6.818  17.677  0.00  0.00    +0.000 A 
ATOM      2  C   UNL     1       4.868   7.122  17.138  0.00  0.00    +0.000 A 
ATOM      3  C   UNL     1       5.646   6.161  16.478  0.00  0.00    +0.000 A 
ATOM      4  C   UNL     1       5.211   4.847  16.387  0.00  0.00    +0.000 A 
ATOM      5  C   UNL     1       3.990   4.513  16.964  0.00  0.00    +0.000 A 
ATOM      6  C   UNL     1       3.139   5.497  17.525  0.00  0.00    +0.000 A 
ENDROOT
BRANCH   1   8
ATOM      7  C   UNL     1       1.951   8.775  17.740  0.00  0.00    +0.000 C 
ATOM      8  C   UNL     1       2.881   7.969  18.277  0.00  0.00    +0.000 C 
BRANCH   7  10
ATOM      9  N   UNL     1       1.869  11.169  17.997  0.00  0.00    +0.000 N 
ATOM     10  C   UNL     1       1.489   9.936  18.555  0.00  0.00    +0.000 C 
ATOM     11  O   UNL     1       0.878   9.795  19.600  0.00  0.00    +0.000 OA
ATOM     12  H   UNL     1       2.123  11.208  17.018  0.00  0.00    +0.000 HD
BRANCH   9  13
ATOM     13  S   UNL     1       1.498  12.648  18.684  0.00  0.00    +0.000 S 
ATOM     14  O   UNL     1       2.367  13.675  18.146  0.00  0.00    +0.000 OA
ATOM     15  O   UNL     1       1.364  12.419  20.103  0.00  0.00    +0.000 OA
BRANCH  13  16
ATOM     16  C   UNL     1      -0.150  12.956  18.030  0.00  0.00    +0.000 C 
BRANCH  16  17
ATOM     17  C   UNL     1      -1.196  12.181  18.833  0.00  0.00    +0.000 C 
BRANCH  17  18
ATOM     18  C   UNL     1      -2.345  11.640  17.975  0.00  0.00    +0.000 C 
BRANCH  18  20
ATOM     19  C   UNL     1      -2.730   9.801  16.267  0.00  0.00    +0.000 C 
ATOM     20  C   UNL     1      -2.091  10.177  17.593  0.00  0.00    +0.000 C 
ENDBRANCH  18  20
ENDBRANCH  17  18
ENDBRANCH  16  17
ENDBRANCH  13  16
ENDBRANCH   9  13
ENDBRANCH   7  10
ENDBRANCH   1   8
BRANCH   4  21
ATOM     21  O   UNL     1       6.031   3.991  15.702  0.00  0.00    +0.000 OA
BRANCH  21  22
ATOM     22  C   UNL     1       6.600   4.495  14.491  0.00  0.00    +0.000 C 
BRANCH  22  23
ATOM     23  C   UNL     1       6.039   3.723  13.300  0.00  0.00    +0.000 C 
BRANCH  23  24
ATOM     24  O   UNL     1       6.898   3.919  12.174  0.00  0.00    +0.000 OA
ATOM     25  C   UNL     1       7.616   5.143  12.271  0.00  0.00    +0.000 C 
ENDBRANCH  23  24
ENDBRANCH  22  23
ENDBRANCH  21  22
ENDBRANCH   4  21
BRANCH   6  26
ATOM     26  O   UNL     1       1.849   5.134  17.905  0.00  0.00    +0.000 OA
BRANCH  26  27
ATOM     27  C   UNL     1       1.763   4.299  19.024  0.00  0.00    +0.000 A 
ATOM     28  N   UNL     1       1.783   2.961  18.813  0.00  0.00    +0.000 NA
ATOM     29  C   UNL     1       1.908   2.163  19.895  0.00  0.00    +0.000 A 
ATOM     30  C   UNL     1       2.022   2.618  21.202  0.00  0.00    +0.000 A 
ATOM     31  C   UNL     1       1.854   3.989  21.392  0.00  0.00    +0.000 A 
ATOM     32  C   UNL     1       1.737   4.865  20.298  0.00  0.00    +0.000 A 
ATOM     33  C   UNL     1       1.576   6.335  20.527  0.00  0.00    +0.000 C 
BRANCH  30  34
ATOM     34  N   UNL     1       2.061   1.742  22.290  0.00  0.00    +0.000 N 
ATOM     35  H   UNL     1       2.811   1.931  22.950  0.00  0.00    +0.000 HD
ATOM     36  H   UNL     1       1.167   1.633  22.761  0.00  0.00    +0.000 HD
ENDBRANCH  30  34
ENDBRANCH  26  27
ENDBRANCH   6  26
TORSDOF 14
ENDMDL
