MODEL 1
REMARK VINA RESULT:      -5.7      0.000      0.000
REMARK  Name = 
REMARK  6 active torsions:
REMARK  status: ('A' for Active; 'I' for Inactive)
REMARK    1  A    between atoms: C_1  and  C_2
REMARK    2  A    between atoms: C_2  and  C_4
REMARK    3  A    between atoms: C_6  and  C_7
REMARK    4  A    between atoms: C_7  and  O_9
REMARK    5  A    between atoms: C_10  and  C_11
REMARK    6  A    between atoms: C_16  and  C_17
REMARK                            x       y       z     vdW  Elec       q    Type
REMARK                         _______ _______ _______ _____ _____    ______ ____
ROOT
ATOM      1  C   UNL     1      -3.970  12.702  20.864  0.00  0.00    +0.000 A 
ATOM      2  S   UNL     1      -5.652  12.479  20.642  0.00  0.00    +0.000 S 
ATOM      3  C   UNL     1      -5.477  11.849  19.063  0.00  0.00    +0.000 A 
ATOM      4  C   UNL     1      -4.139  11.749  18.706  0.00  0.00    +0.000 A 
ATOM      5  C   UNL     1      -3.259  12.257  19.754  0.00  0.00    +0.000 A 
ENDROOT
BRANCH   4   6
ATOM      6  C   UNL     1      -3.676  11.100  17.423  0.00  0.00    +0.000 A 
ATOM      7  C   UNL     1      -2.966   9.919  17.282  0.00  0.00    +0.000 A 
ATOM      8  C   UNL     1      -2.755   9.714  15.896  0.00  0.00    +0.000 A 
ATOM      9  C   UNL     1      -3.344  10.779  15.266  0.00  0.00    +0.000 A 
ATOM     10  O   UNL     1      -3.902  11.609  16.177  0.00  0.00    +0.000 OA
ENDBRANCH   4   6
BRANCH   5  11
ATOM     11  C   UNL     1      -1.747  12.230  19.695  0.00  0.00    +0.000 A 
ATOM     12  C   UNL     1      -0.899  11.269  20.222  0.00  0.00    +0.000 A 
ATOM     13  C   UNL     1       0.428  11.651  19.901  0.00  0.00    +0.000 A 
ATOM     14  C   UNL     1       0.321  12.819  19.192  0.00  0.00    +0.000 A 
ATOM     15  O   UNL     1      -0.980  13.165  19.054  0.00  0.00    +0.000 OA
ENDBRANCH   5  11
BRANCH   1  17
ATOM     16  C   UNL     1      -3.225  12.513  23.313  0.00  0.00    +0.000 C 
ATOM     17  C   UNL     1      -3.509  13.362  22.092  0.00  0.00    +0.000 C 
ATOM     18  O   UNL     1      -3.350  14.581  22.184  0.00  0.00    +0.000 OA
ENDBRANCH   1  17
BRANCH   3  19
ATOM     19  C   UNL     1      -6.717  11.538  18.370  0.00  0.00    +0.000 C 
ATOM     20  O   UNL     1      -7.281  12.255  17.555  0.00  0.00    +0.000 OA
BRANCH  19  21
ATOM     21  O   UNL     1      -7.201  10.302  18.660  0.00  0.00    +0.000 OA
ATOM     22  H   UNL     1      -8.028  10.299  19.177  0.00  0.00    +0.000 HD
ENDBRANCH  19  21
ENDBRANCH   3  19
TORSDOF 5
ENDMDL
MODEL 2
REMARK VINA RESULT:      -5.5      0.817      1.108
REMARK  Name = 
REMARK  6 active torsions:
REMARK  status: ('A' for Active; 'I' for Inactive)
REMARK    1  A    between atoms: C_1  and  C_2
REMARK    2  A    between atoms: C_2  and  C_4
REMARK    3  A    between atoms: C_6  and  C_7
REMARK    4  A    between atoms: C_7  and  O_9
REMARK    5  A    between atoms: C_10  and  C_11
REMARK    6  A    between atoms: C_16  and  C_17
REMARK                            x       y       z     vdW  Elec       q    Type
REMARK                         _______ _______ _______ _____ _____    ______ ____
ROOT
ATOM      1  C   UNL     1      -3.825  12.719  20.697  0.00  0.00    +0.000 A 
ATOM      2  S   UNL     1      -5.517  12.530  20.524  0.00  0.00    +0.000 S 
ATOM      3  C   UNL     1      -5.399  11.861  18.956  0.00  0.00    +0.000 A 
ATOM      4  C   UNL     1      -4.073  11.722  18.566  0.00  0.00    +0.000 A 
ATOM      5  C   UNL     1      -3.154  12.234  19.578  0.00  0.00    +0.000 A 
ENDROOT
BRANCH   4   6
ATOM      6  C   UNL     1      -3.660  11.034  17.287  0.00  0.00    +0.000 A 
ATOM      7  C   UNL     1      -2.982   9.833  17.155  0.00  0.00    +0.000 A 
ATOM      8  C   UNL     1      -2.812   9.592  15.769  0.00  0.00    +0.000 A 
ATOM      9  C   UNL     1      -3.392  10.656  15.130  0.00  0.00    +0.000 A 
ATOM     10  O   UNL     1      -3.906  11.520  16.036  0.00  0.00    +0.000 OA
ENDBRANCH   4   6
BRANCH   5  11
ATOM     11  C   UNL     1      -1.646  12.171  19.480  0.00  0.00    +0.000 A 
ATOM     12  C   UNL     1      -0.814  12.975  18.716  0.00  0.00    +0.000 A 
ATOM     13  C   UNL     1       0.520  12.564  18.963  0.00  0.00    +0.000 A 
ATOM     14  C   UNL     1       0.434  11.536  19.866  0.00  0.00    +0.000 A 
ATOM     15  O   UNL     1      -0.859  11.304  20.189  0.00  0.00    +0.000 OA
ENDBRANCH   5  11
BRANCH   1  17
ATOM     16  C   UNL     1      -3.361  14.910  21.952  0.00  0.00    +0.000 C 
ATOM     17  C   UNL     1      -3.317  13.397  21.895  0.00  0.00    +0.000 C 
ATOM     18  O   UNL     1      -2.843  12.795  22.862  0.00  0.00    +0.000 OA
ENDBRANCH   1  17
BRANCH   3  19
ATOM     19  C   UNL     1      -6.663  11.562  18.304  0.00  0.00    +0.000 C 
ATOM     20  O   UNL     1      -7.250  12.288  17.513  0.00  0.00    +0.000 OA
BRANCH  19  21
ATOM     21  O   UNL     1      -7.145  10.327  18.603  0.00  0.00    +0.000 OA
ATOM     22  H   UNL     1      -7.706  10.290  19.400  0.00  0.00    +0.000 HD
ENDBRANCH  19  21
ENDBRANCH   3  19
TORSDOF 5
ENDMDL
MODEL 3
REMARK VINA RESULT:      -5.4      0.910      4.797
REMARK  Name = 
REMARK  6 active torsions:
REMARK  status: ('A' for Active; 'I' for Inactive)
REMARK    1  A    between atoms: C_1  and  C_2
REMARK    2  A    between atoms: C_2  and  C_4
REMARK    3  A    between atoms: C_6  and  C_7
REMARK    4  A    between atoms: C_7  and  O_9
REMARK    5  A    between atoms: C_10  and  C_11
REMARK    6  A    between atoms: C_16  and  C_17
REMARK                            x       y       z     vdW  Elec       q    Type
REMARK                         _______ _______ _______ _____ _____    ______ ____
ROOT
ATOM      1  C   UNL     1      -5.132  11.938  18.999  0.00  0.00    +0.000 A 
ATOM      2  S   UNL     1      -5.159  12.783  20.486  0.00  0.00    +0.000 S 
ATOM      3  C   UNL     1      -3.458  12.780  20.651  0.00  0.00    +0.000 A 
ATOM      4  C   UNL     1      -2.847  12.187  19.554  0.00  0.00    +0.000 A 
ATOM      5  C   UNL     1      -3.825  11.685  18.594  0.00  0.00    +0.000 A 
ENDROOT
BRANCH   4   6
ATOM      6  C   UNL     1      -1.349  12.165  19.360  0.00  0.00    +0.000 A 
ATOM      7  C   UNL     1      -0.582  13.039  18.607  0.00  0.00    +0.000 A 
ATOM      8  C   UNL     1       0.767  12.622  18.718  0.00  0.00    +0.000 A 
ATOM      9  C   UNL     1       0.753  11.517  19.529  0.00  0.00    +0.000 A 
ATOM     10  O   UNL     1      -0.513  11.243  19.920  0.00  0.00    +0.000 OA
ENDBRANCH   4   6
BRANCH   5  11
ATOM     11  C   UNL     1      -3.478  11.044  17.269  0.00  0.00    +0.000 A 
ATOM     12  C   UNL     1      -2.792   9.858  17.058  0.00  0.00    +0.000 A 
ATOM     13  C   UNL     1      -2.726   9.648  15.658  0.00  0.00    +0.000 A 
ATOM     14  C   UNL     1      -3.377  10.710  15.088  0.00  0.00    +0.000 A 
ATOM     15  O   UNL     1      -3.840  11.544  16.048  0.00  0.00    +0.000 OA
ENDBRANCH   5  11
BRANCH   1  17
ATOM     16  C   UNL     1      -7.165  12.544  17.553  0.00  0.00    +0.000 C 
ATOM     17  C   UNL     1      -6.411  11.539  18.399  0.00  0.00    +0.000 C 
ATOM     18  O   UNL     1      -6.913  10.424  18.557  0.00  0.00    +0.000 OA
ENDBRANCH   1  17
BRANCH   3  19
ATOM     19  C   UNL     1      -2.945  13.373  21.875  0.00  0.00    +0.000 C 
ATOM     20  O   UNL     1      -2.569  14.530  22.007  0.00  0.00    +0.000 OA
BRANCH  19  21
ATOM     21  O   UNL     1      -2.970  12.526  22.936  0.00  0.00    +0.000 OA
ATOM     22  H   UNL     1      -2.350  11.776  22.874  0.00  0.00    +0.000 HD
ENDBRANCH  19  21
ENDBRANCH   3  19
TORSDOF 5
ENDMDL
MODEL 4
REMARK VINA RESULT:      -5.4      0.773      4.671
REMARK  Name = 
REMARK  6 active torsions:
REMARK  status: ('A' for Active; 'I' for Inactive)
REMARK    1  A    between atoms: C_1  and  C_2
REMARK    2  A    between atoms: C_2  and  C_4
REMARK    3  A    between atoms: C_6  and  C_7
REMARK    4  A    between atoms: C_7  and  O_9
REMARK    5  A    between atoms: C_10  and  C_11
REMARK    6  A    between atoms: C_16  and  C_17
REMARK                            x       y       z     vdW  Elec       q    Type
REMARK                         _______ _______ _______ _____ _____    ______ ____
ROOT
ATOM      1  C   UNL     1      -5.141  11.843  19.085  0.00  0.00    +0.000 A 
ATOM      2  S   UNL     1      -5.160  12.716  20.556  0.00  0.00    +0.000 S 
ATOM      3  C   UNL     1      -3.457  12.834  20.643  0.00  0.00    +0.000 A 
ATOM      4  C   UNL     1      -2.856  12.261  19.530  0.00  0.00    +0.000 A 
ATOM      5  C   UNL     1      -3.839  11.671  18.626  0.00  0.00    +0.000 A 
ENDROOT
BRANCH   4   6
ATOM      6  C   UNL     1      -1.370  12.337  19.267  0.00  0.00    +0.000 A 
ATOM      7  C   UNL     1      -0.396  11.431  19.655  0.00  0.00    +0.000 A 
ATOM      8  C   UNL     1       0.848  11.922  19.190  0.00  0.00    +0.000 A 
ATOM      9  C   UNL     1       0.570  13.100  18.547  0.00  0.00    +0.000 A 
ATOM     10  O   UNL     1      -0.759  13.350  18.587  0.00  0.00    +0.000 OA
ENDBRANCH   4   6
BRANCH   5  11
ATOM     11  C   UNL     1      -3.507  11.027  17.298  0.00  0.00    +0.000 A 
ATOM     12  C   UNL     1      -2.824   9.840  17.082  0.00  0.00    +0.000 A 
ATOM     13  C   UNL     1      -2.775   9.627  15.681  0.00  0.00    +0.000 A 
ATOM     14  C   UNL     1      -3.432  10.688  15.117  0.00  0.00    +0.000 A 
ATOM     15  O   UNL     1      -3.884  11.524  16.080  0.00  0.00    +0.000 OA
ENDBRANCH   5  11
BRANCH   1  17
ATOM     16  C   UNL     1      -6.931  10.003  19.035  0.00  0.00    +0.000 C 
ATOM     17  C   UNL     1      -6.415  11.343  18.553  0.00  0.00    +0.000 C 
ATOM     18  O   UNL     1      -7.086  11.957  17.720  0.00  0.00    +0.000 OA
ENDBRANCH   1  17
BRANCH   3  19
ATOM     19  C   UNL     1      -2.933  13.487  21.831  0.00  0.00    +0.000 C 
ATOM     20  O   UNL     1      -2.828  14.695  21.996  0.00  0.00    +0.000 OA
BRANCH  19  21
ATOM     21  O   UNL     1      -2.606  12.619  22.823  0.00  0.00    +0.000 OA
ATOM     22  H   UNL     1      -3.366  12.179  23.247  0.00  0.00    +0.000 HD
ENDBRANCH  19  21
ENDBRANCH   3  19
TORSDOF 5
ENDMDL
MODEL 5
REMARK VINA RESULT:      -5.4      0.717      1.082
REMARK  Name = 
REMARK  6 active torsions:
REMARK  status: ('A' for Active; 'I' for Inactive)
REMARK    1  A    between atoms: C_1  and  C_2
REMARK    2  A    between atoms: C_2  and  C_4
REMARK    3  A    between atoms: C_6  and  C_7
REMARK    4  A    between atoms: C_7  and  O_9
REMARK    5  A    between atoms: C_10  and  C_11
REMARK    6  A    between atoms: C_16  and  C_17
REMARK                            x       y       z     vdW  Elec       q    Type
REMARK                         _______ _______ _______ _____ _____    ______ ____
ROOT
ATOM      1  C   UNL     1      -3.576  12.759  20.658  0.00  0.00    +0.000 A 
ATOM      2  S   UNL     1      -5.266  12.505  20.592  0.00  0.00    +0.000 S 
ATOM      3  C   UNL     1      -5.220  11.827  19.024  0.00  0.00    +0.000 A 
ATOM      4  C   UNL     1      -3.917  11.734  18.553  0.00  0.00    +0.000 A 
ATOM      5  C   UNL     1      -2.957  12.289  19.503  0.00  0.00    +0.000 A 
ENDROOT
BRANCH   4   6
ATOM      6  C   UNL     1      -3.558  11.051  17.255  0.00  0.00    +0.000 A 
ATOM      7  C   UNL     1      -2.841   9.877  17.088  0.00  0.00    +0.000 A 
ATOM      8  C   UNL     1      -2.750   9.630  15.697  0.00  0.00    +0.000 A 
ATOM      9  C   UNL     1      -3.414  10.663  15.088  0.00  0.00    +0.000 A 
ATOM     10  O   UNL     1      -3.904  11.514  16.019  0.00  0.00    +0.000 OA
ENDBRANCH   4   6
BRANCH   5  11
ATOM     11  C   UNL     1      -1.457  12.281  19.311  0.00  0.00    +0.000 A 
ATOM     12  C   UNL     1      -0.556  11.318  19.736  0.00  0.00    +0.000 A 
ATOM     13  C   UNL     1       0.734  11.724  19.310  0.00  0.00    +0.000 A 
ATOM     14  C   UNL     1       0.554  12.908  18.644  0.00  0.00    +0.000 A 
ATOM     15  O   UNL     1      -0.758  13.242  18.631  0.00  0.00    +0.000 OA
ENDBRANCH   5  11
BRANCH   1  17
ATOM     16  C   UNL     1      -2.754  14.952  21.708  0.00  0.00    +0.000 C 
ATOM     17  C   UNL     1      -3.020  13.465  21.818  0.00  0.00    +0.000 C 
ATOM     18  O   UNL     1      -2.746  12.906  22.882  0.00  0.00    +0.000 OA
ENDBRANCH   1  17
BRANCH   3  19
ATOM     19  C   UNL     1      -6.511  11.475  18.454  0.00  0.00    +0.000 C 
ATOM     20  O   UNL     1      -7.395  10.846  19.019  0.00  0.00    +0.000 OA
BRANCH  19  21
ATOM     21  O   UNL     1      -6.702  11.972  17.204  0.00  0.00    +0.000 OA
ATOM     22  H   UNL     1      -6.662  11.308  16.491  0.00  0.00    +0.000 HD
ENDBRANCH  19  21
ENDBRANCH   3  19
TORSDOF 5
ENDMDL
MODEL 6
REMARK VINA RESULT:      -5.4      0.895      4.783
REMARK  Name = 
REMARK  6 active torsions:
REMARK  status: ('A' for Active; 'I' for Inactive)
REMARK    1  A    between atoms: C_1  and  C_2
REMARK    2  A    between atoms: C_2  and  C_4
REMARK    3  A    between atoms: C_6  and  C_7
REMARK    4  A    between atoms: C_7  and  O_9
REMARK    5  A    between atoms: C_10  and  C_11
REMARK    6  A    between atoms: C_16  and  C_17
REMARK                            x       y       z     vdW  Elec       q    Type
REMARK                         _______ _______ _______ _____ _____    ______ ____
ROOT
ATOM      1  C   UNL     1      -5.109  11.867  19.080  0.00  0.00    +0.000 A 
ATOM      2  S   UNL     1      -5.129  12.746  20.548  0.00  0.00    +0.000 S 
ATOM      3  C   UNL     1      -3.426  12.856  20.639  0.00  0.00    +0.000 A 
ATOM      4  C   UNL     1      -2.823  12.275  19.532  0.00  0.00    +0.000 A 
ATOM      5  C   UNL     1      -3.805  11.687  18.626  0.00  0.00    +0.000 A 
ENDROOT
BRANCH   4   6
ATOM      6  C   UNL     1      -1.336  12.343  19.274  0.00  0.00    +0.000 A 
ATOM      7  C   UNL     1      -0.649  13.297  18.540  0.00  0.00    +0.000 A 
ATOM      8  C   UNL     1       0.723  12.947  18.571  0.00  0.00    +0.000 A 
ATOM      9  C   UNL     1       0.802  11.801  19.318  0.00  0.00    +0.000 A 
ATOM     10  O   UNL     1      -0.430  11.438  19.745  0.00  0.00    +0.000 OA
ENDBRANCH   4   6
BRANCH   5  11
ATOM     11  C   UNL     1      -3.472  11.035  17.302  0.00  0.00    +0.000 A 
ATOM     12  C   UNL     1      -2.772   9.857  17.094  0.00  0.00    +0.000 A 
ATOM     13  C   UNL     1      -2.728   9.631  15.695  0.00  0.00    +0.000 A 
ATOM     14  C   UNL     1      -3.406  10.676  15.124  0.00  0.00    +0.000 A 
ATOM     15  O   UNL     1      -3.864  11.515  16.082  0.00  0.00    +0.000 OA
ENDBRANCH   5  11
BRANCH   1  17
ATOM     16  C   UNL     1      -6.898  10.027  19.017  0.00  0.00    +0.000 C 
ATOM     17  C   UNL     1      -6.383  11.371  18.546  0.00  0.00    +0.000 C 
ATOM     18  O   UNL     1      -7.055  11.991  17.719  0.00  0.00    +0.000 OA
ENDBRANCH   1  17
BRANCH   3  19
ATOM     19  C   UNL     1      -2.902  13.512  21.826  0.00  0.00    +0.000 C 
ATOM     20  O   UNL     1      -2.069  13.047  22.593  0.00  0.00    +0.000 OA
BRANCH  19  21
ATOM     21  O   UNL     1      -3.381  14.771  22.003  0.00  0.00    +0.000 OA
ATOM     22  H   UNL     1      -2.980  15.445  21.423  0.00  0.00    +0.000 HD
ENDBRANCH  19  21
ENDBRANCH   3  19
TORSDOF 5
ENDMDL
MODEL 7
REMARK VINA RESULT:      -5.3      1.476      4.478
REMARK  Name = 
REMARK  6 active torsions:
REMARK  status: ('A' for Active; 'I' for Inactive)
REMARK    1  A    between atoms: C_1  and  C_2
REMARK    2  A    between atoms: C_2  and  C_4
REMARK    3  A    between atoms: C_6  and  C_7
REMARK    4  A    between atoms: C_7  and  O_9
REMARK    5  A    between atoms: C_10  and  C_11
REMARK    6  A    between atoms: C_16  and  C_17
REMARK                            x       y       z     vdW  Elec       q    Type
REMARK                         _______ _______ _______ _____ _____    ______ ____
ROOT
ATOM      1  C   UNL     1      -1.397  11.913  19.526  0.00  0.00    +0.000 A 
ATOM      2  S   UNL     1      -1.640  12.620  21.065  0.00  0.00    +0.000 S 
ATOM      3  C   UNL     1      -3.330  12.764  20.861  0.00  0.00    +0.000 A 
ATOM      4  C   UNL     1      -3.738  12.229  19.646  0.00  0.00    +0.000 A 
ATOM      5  C   UNL     1      -2.608  11.742  18.861  0.00  0.00    +0.000 A 
ENDROOT
BRANCH   4   6
ATOM      6  C   UNL     1      -5.191  12.093  19.253  0.00  0.00    +0.000 A 
ATOM      7  C   UNL     1      -5.798  12.544  18.093  0.00  0.00    +0.000 A 
ATOM      8  C   UNL     1      -7.168  12.195  18.168  0.00  0.00    +0.000 A 
ATOM      9  C   UNL     1      -7.326  11.551  19.368  0.00  0.00    +0.000 A 
ATOM     10  O   UNL     1      -6.142  11.484  20.019  0.00  0.00    +0.000 OA
ENDBRANCH   4   6
BRANCH   5  11
ATOM     11  C   UNL     1      -2.727  11.049  17.521  0.00  0.00    +0.000 A 
ATOM     12  C   UNL     1      -2.995   9.710  17.284  0.00  0.00    +0.000 A 
ATOM     13  C   UNL     1      -3.035   9.527  15.879  0.00  0.00    +0.000 A 
ATOM     14  C   UNL     1      -2.795  10.760  15.333  0.00  0.00    +0.000 A 
ATOM     15  O   UNL     1      -2.622  11.679  16.311  0.00  0.00    +0.000 OA
ENDBRANCH   5  11
BRANCH   1  17
ATOM     16  C   UNL     1       0.537  10.254  19.216  0.00  0.00    +0.000 C 
ATOM     17  C   UNL     1      -0.021  11.656  19.084  0.00  0.00    +0.000 C 
ATOM     18  O   UNL     1       0.713  12.529  18.617  0.00  0.00    +0.000 OA
ENDBRANCH   1  17
BRANCH   3  19
ATOM     19  C   UNL     1      -4.042  13.408  21.952  0.00  0.00    +0.000 C 
ATOM     20  O   UNL     1      -4.024  14.604  22.211  0.00  0.00    +0.000 OA
BRANCH  19  21
ATOM     21  O   UNL     1      -4.820  12.555  22.668  0.00  0.00    +0.000 OA
ATOM     22  H   UNL     1      -4.951  11.681  22.256  0.00  0.00    +0.000 HD
ENDBRANCH  19  21
ENDBRANCH   3  19
TORSDOF 5
ENDMDL
MODEL 8
REMARK VINA RESULT:      -5.3      9.551     11.321
REMARK  Name = 
REMARK  6 active torsions:
REMARK  status: ('A' for Active; 'I' for Inactive)
REMARK    1  A    between atoms: C_1  and  C_2
REMARK    2  A    between atoms: C_2  and  C_4
REMARK    3  A    between atoms: C_6  and  C_7
REMARK    4  A    between atoms: C_7  and  O_9
REMARK    5  A    between atoms: C_10  and  C_11
REMARK    6  A    between atoms: C_16  and  C_17
REMARK                            x       y       z     vdW  Elec       q    Type
REMARK                         _______ _______ _______ _____ _____    ______ ____
ROOT
ATOM      1  C   UNL     1       3.415   6.075  18.531  0.00  0.00    +0.000 A 
ATOM      2  S   UNL     1       2.285   6.001  19.812  0.00  0.00    +0.000 S 
ATOM      3  C   UNL     1       2.546   4.336  20.099  0.00  0.00    +0.000 A 
ATOM      4  C   UNL     1       3.532   3.830  19.263  0.00  0.00    +0.000 A 
ATOM      5  C   UNL     1       4.032   4.843  18.339  0.00  0.00    +0.000 A 
ENDROOT
BRANCH   4   6
ATOM      6  C   UNL     1       4.069   2.423  19.384  0.00  0.00    +0.000 A 
ATOM      7  C   UNL     1       3.830   1.352  18.537  0.00  0.00    +0.000 A 
ATOM      8  C   UNL     1       4.539   0.239  19.052  0.00  0.00    +0.000 A 
ATOM      9  C   UNL     1       5.170   0.687  20.183  0.00  0.00    +0.000 A 
ATOM     10  O   UNL     1       4.895   1.996  20.383  0.00  0.00    +0.000 OA
ENDBRANCH   4   6
BRANCH   5  11
ATOM     11  C   UNL     1       5.151   4.622  17.345  0.00  0.00    +0.000 A 
ATOM     12  C   UNL     1       5.038   4.250  16.015  0.00  0.00    +0.000 A 
ATOM     13  C   UNL     1       6.349   4.190  15.477  0.00  0.00    +0.000 A 
ATOM     14  C   UNL     1       7.191   4.532  16.503  0.00  0.00    +0.000 A 
ATOM     15  O   UNL     1       6.479   4.803  17.622  0.00  0.00    +0.000 OA
ENDBRANCH   5  11
BRANCH   1  17
ATOM     16  C   UNL     1       2.403   8.330  17.838  0.00  0.00    +0.000 C 
ATOM     17  C   UNL     1       3.540   7.332  17.781  0.00  0.00    +0.000 C 
ATOM     18  O   UNL     1       4.525   7.614  17.095  0.00  0.00    +0.000 OA
ENDBRANCH   1  17
BRANCH   3  19
ATOM     19  C   UNL     1       1.715   3.740  21.133  0.00  0.00    +0.000 C 
ATOM     20  O   UNL     1       2.056   3.519  22.287  0.00  0.00    +0.000 OA
BRANCH  19  21
ATOM     21  O   UNL     1       0.445   3.486  20.724  0.00  0.00    +0.000 OA
ATOM     22  H   UNL     1       0.359   3.248  19.782  0.00  0.00    +0.000 HD
ENDBRANCH  19  21
ENDBRANCH   3  19
TORSDOF 5
ENDMDL
MODEL 9
REMARK VINA RESULT:      -5.3      8.864     11.044
REMARK  Name = 
REMARK  6 active torsions:
REMARK  status: ('A' for Active; 'I' for Inactive)
REMARK    1  A    between atoms: C_1  and  C_2
REMARK    2  A    between atoms: C_2  and  C_4
REMARK    3  A    between atoms: C_6  and  C_7
REMARK    4  A    between atoms: C_7  and  O_9
REMARK    5  A    between atoms: C_10  and  C_11
REMARK    6  A    between atoms: C_16  and  C_17
REMARK                            x       y       z     vdW  Elec       q    Type
REMARK                         _______ _______ _______ _____ _____    ______ ____
ROOT
ATOM      1  C   UNL     1       4.836   5.500  17.265  0.00  0.00    +0.000 A 
ATOM      2  S   UNL     1       5.416   3.904  17.061  0.00  0.00    +0.000 S 
ATOM      3  C   UNL     1       4.350   3.244  18.223  0.00  0.00    +0.000 A 
ATOM      4  C   UNL     1       3.504   4.217  18.739  0.00  0.00    +0.000 A 
ATOM      5  C   UNL     1       3.795   5.537  18.188  0.00  0.00    +0.000 A 
ENDROOT
BRANCH   4   6
ATOM      6  C   UNL     1       2.367   3.901  19.682  0.00  0.00    +0.000 A 
ATOM      7  C   UNL     1       2.451   3.568  21.025  0.00  0.00    +0.000 A 
ATOM      8  C   UNL     1       1.131   3.355  21.492  0.00  0.00    +0.000 A 
ATOM      9  C   UNL     1       0.312   3.568  20.413  0.00  0.00    +0.000 A 
ATOM     10  O   UNL     1       1.049   3.900  19.328  0.00  0.00    +0.000 OA
ENDBRANCH   4   6
BRANCH   5  11
ATOM     11  C   UNL     1       3.011   6.792  18.503  0.00  0.00    +0.000 A 
ATOM     12  C   UNL     1       2.655   7.806  17.628  0.00  0.00    +0.000 A 
ATOM     13  C   UNL     1       1.907   8.759  18.365  0.00  0.00    +0.000 A 
ATOM     14  C   UNL     1       1.841   8.276  19.646  0.00  0.00    +0.000 A 
ATOM     15  O   UNL     1       2.490   7.091  19.732  0.00  0.00    +0.000 OA
ENDBRANCH   5  11
BRANCH   1  17
ATOM     16  C   UNL     1       6.639   7.326  17.230  0.00  0.00    +0.000 C 
ATOM     17  C   UNL     1       5.511   6.586  16.543  0.00  0.00    +0.000 C 
ATOM     18  O   UNL     1       5.198   6.936  15.403  0.00  0.00    +0.000 OA
ENDBRANCH   1  17
BRANCH   3  19
ATOM     19  C   UNL     1       4.502   1.821  18.478  0.00  0.00    +0.000 C 
ATOM     20  O   UNL     1       4.221   0.920  17.699  0.00  0.00    +0.000 OA
BRANCH  19  21
ATOM     21  O   UNL     1       5.065   1.546  19.683  0.00  0.00    +0.000 OA
ATOM     22  H   UNL     1       5.156   2.315  20.276  0.00  0.00    +0.000 HD
ENDBRANCH  19  21
ENDBRANCH   3  19
TORSDOF 5
ENDMDL
