MODEL 1
REMARK VINA RESULT:      -7.0      0.000      0.000
REMARK  Name = 
REMARK  10 active torsions:
REMARK  status: ('A' for Active; 'I' for Inactive)
REMARK    1  A    between atoms: C_1  and  C_2
REMARK    2  A    between atoms: C_2  and  C_3
REMARK    3  A    between atoms: C_3  and  C_4
REMARK    4  A    between atoms: C_4  and  N_5
REMARK    5  A    between atoms: C_9  and  C_10
REMARK    6  A    between atoms: C_15  and  C_16
REMARK    7  A    between atoms: C_16  and  N_17
REMARK    8  A    between atoms: C_23  and  N_24
REMARK    9  A    between atoms: N_24  and  C_25
REMARK   10  A    between atoms: C_28  and  O_29
REMARK                            x       y       z     vdW  Elec       q    Type
REMARK                         _______ _______ _______ _____ _____    ______ ____
ROOT
ATOM      1  N   UNL     1       2.005   6.854  20.371  0.00  0.00    +0.000 N 
ATOM      2  C   UNL     1       1.547   8.133  20.647  0.00  0.00    +0.000 A 
ATOM      3  N   UNL     1       1.628   8.464  21.928  0.00  0.00    +0.000 NA
ATOM      4  C   UNL     1       1.052   9.624  22.259  0.00  0.00    +0.000 A 
ATOM      5  C   UNL     1       0.316  10.439  21.410  0.00  0.00    +0.000 A 
ATOM      6  C   UNL     1       0.429  10.082  20.063  0.00  0.00    +0.000 A 
ATOM      7  N   UNL     1       1.044   8.930  19.697  0.00  0.00    +0.000 NA
ATOM      8  H   UNL     1       2.498   6.571  21.208  0.00  0.00    +0.000 HD
ENDROOT
BRANCH   5   9
ATOM      9  C   UNL     1      -0.427  11.586  21.976  0.00  0.00    +0.000 A 
ATOM     10  N   UNL     1      -1.561  11.225  22.637  0.00  0.00    +0.000 NA
ATOM     11  C   UNL     1      -2.422  12.200  22.991  0.00  0.00    +0.000 A 
ATOM     12  C   UNL     1      -2.219  13.542  22.738  0.00  0.00    +0.000 A 
ATOM     13  C   UNL     1      -1.034  13.915  22.116  0.00  0.00    +0.000 A 
ATOM     14  C   UNL     1      -0.081  12.951  21.754  0.00  0.00    +0.000 A 
BRANCH  14  15
ATOM     15  C   UNL     1       1.192  13.376  21.028  0.00  0.00    +0.000 C 
BRANCH  15  16
ATOM     16  N   UNL     1       1.155  13.484  19.554  0.00  0.00    +0.000 NA
ATOM     17  C   UNL     1       2.523  13.296  19.007  0.00  0.00    +0.000 C 
ATOM     18  C   UNL     1       3.481  14.504  19.200  0.00  0.00    +0.000 C 
ATOM     19  O   UNL     1       2.904  15.717  18.720  0.00  0.00    +0.000 OA
ATOM     20  C   UNL     1       1.631  15.975  19.331  0.00  0.00    +0.000 C 
ATOM     21  C   UNL     1       0.674  14.800  19.079  0.00  0.00    +0.000 C 
ENDBRANCH  15  16
ENDBRANCH  14  15
ENDBRANCH   5   9
BRANCH   6  22
ATOM     22  N   UNL     1      -0.133  10.848  19.027  0.00  0.00    +0.000 N 
ATOM     23  H   UNL     1       0.480  10.947  18.215  0.00  0.00    +0.000 HD
BRANCH  22  24
ATOM     24  C   UNL     1      -1.568  10.653  18.755  0.00  0.00    +0.000 C 
ATOM     25  C   UNL     1      -2.290  11.999  18.901  0.00  0.00    +0.000 C 
ATOM     26  C   UNL     1      -3.786  11.852  18.659  0.00  0.00    +0.000 C 
ATOM     27  C   UNL     1      -4.090  11.263  17.282  0.00  0.00    +0.000 C 
ATOM     28  C   UNL     1      -3.300   9.972  17.027  0.00  0.00    +0.000 C 
ATOM     29  C   UNL     1      -1.804  10.121  17.330  0.00  0.00    +0.000 C 
BRANCH  27  30
ATOM     30  O   UNL     1      -5.488  10.986  17.186  0.00  0.00    +0.000 OA
ATOM     31  H   UNL     1      -5.958  11.832  17.245  0.00  0.00    +0.000 HD
ENDBRANCH  27  30
ENDBRANCH  22  24
ENDBRANCH   6  22
BRANCH   1  32
ATOM     32  C   UNL     1       2.762   6.741  19.145  0.00  0.00    +0.000 C 
BRANCH  32  33
ATOM     33  C   UNL     1       2.910   5.255  18.833  0.00  0.00    +0.000 C 
BRANCH  33  35
ATOM     34  C   UNL     1       1.422   3.326  18.251  0.00  0.00    +0.000 C 
ATOM     35  C   UNL     1       1.805   4.758  17.913  0.00  0.00    +0.000 C 
ENDBRANCH  33  35
ENDBRANCH  32  33
ENDBRANCH   1  32
TORSDOF 9
ENDMDL
MODEL 2
REMARK VINA RESULT:      -6.6      0.816      1.052
REMARK  Name = 
REMARK  10 active torsions:
REMARK  status: ('A' for Active; 'I' for Inactive)
REMARK    1  A    between atoms: C_1  and  C_2
REMARK    2  A    between atoms: C_2  and  C_3
REMARK    3  A    between atoms: C_3  and  C_4
REMARK    4  A    between atoms: C_4  and  N_5
REMARK    5  A    between atoms: C_9  and  C_10
REMARK    6  A    between atoms: C_15  and  C_16
REMARK    7  A    between atoms: C_16  and  N_17
REMARK    8  A    between atoms: C_23  and  N_24
REMARK    9  A    between atoms: N_24  and  C_25
REMARK   10  A    between atoms: C_28  and  O_29
REMARK                            x       y       z     vdW  Elec       q    Type
REMARK                         _______ _______ _______ _____ _____    ______ ____
ROOT
ATOM      1  N   UNL     1       2.071   6.821  20.164  0.00  0.00    +0.000 N 
ATOM      2  C   UNL     1       1.609   8.089  20.483  0.00  0.00    +0.000 A 
ATOM      3  N   UNL     1       1.710   8.386  21.770  0.00  0.00    +0.000 NA
ATOM      4  C   UNL     1       1.132   9.533  22.142  0.00  0.00    +0.000 A 
ATOM      5  C   UNL     1       0.375  10.364  21.327  0.00  0.00    +0.000 A 
ATOM      6  C   UNL     1       0.467  10.044  19.970  0.00  0.00    +0.000 A 
ATOM      7  N   UNL     1       1.084   8.906  19.563  0.00  0.00    +0.000 NA
ATOM      8  H   UNL     1       2.580   6.519  20.986  0.00  0.00    +0.000 HD
ENDROOT
BRANCH   5   9
ATOM      9  C   UNL     1      -0.366  11.490  21.936  0.00  0.00    +0.000 A 
ATOM     10  N   UNL     1      -1.497  11.105  22.588  0.00  0.00    +0.000 NA
ATOM     11  C   UNL     1      -2.358  12.068  22.980  0.00  0.00    +0.000 A 
ATOM     12  C   UNL     1      -2.156  13.417  22.773  0.00  0.00    +0.000 A 
ATOM     13  C   UNL     1      -0.973  13.812  22.161  0.00  0.00    +0.000 A 
ATOM     14  C   UNL     1      -0.022  12.862  21.761  0.00  0.00    +0.000 A 
BRANCH  14  15
ATOM     15  C   UNL     1       1.249  13.313  21.046  0.00  0.00    +0.000 C 
BRANCH  15  16
ATOM     16  N   UNL     1       1.216  13.440  19.574  0.00  0.00    +0.000 NA
ATOM     17  C   UNL     1       2.587  13.268  19.029  0.00  0.00    +0.000 C 
ATOM     18  C   UNL     1       3.538  14.478  19.241  0.00  0.00    +0.000 C 
ATOM     19  O   UNL     1       2.956  15.694  18.776  0.00  0.00    +0.000 OA
ATOM     20  C   UNL     1       1.680  15.937  19.385  0.00  0.00    +0.000 C 
ATOM     21  C   UNL     1       0.730  14.761  19.114  0.00  0.00    +0.000 C 
ENDBRANCH  15  16
ENDBRANCH  14  15
ENDBRANCH   5   9
BRANCH   6  22
ATOM     22  N   UNL     1      -0.118  10.833  18.964  0.00  0.00    +0.000 N 
ATOM     23  H   UNL     1       0.468  10.932  18.132  0.00  0.00    +0.000 HD
BRANCH  22  24
ATOM     24  C   UNL     1      -1.564  10.665  18.741  0.00  0.00    +0.000 C 
ATOM     25  C   UNL     1      -2.260  12.018  18.941  0.00  0.00    +0.000 C 
ATOM     26  C   UNL     1      -3.766  11.900  18.751  0.00  0.00    +0.000 C 
ATOM     27  C   UNL     1      -4.129  11.345  17.375  0.00  0.00    +0.000 C 
ATOM     28  C   UNL     1      -3.369  10.048  17.064  0.00  0.00    +0.000 C 
ATOM     29  C   UNL     1      -1.861  10.168  17.315  0.00  0.00    +0.000 C 
BRANCH  27  30
ATOM     30  O   UNL     1      -5.533  11.091  17.324  0.00  0.00    +0.000 OA
ATOM     31  H   UNL     1      -5.656  10.203  16.953  0.00  0.00    +0.000 HD
ENDBRANCH  27  30
ENDBRANCH  22  24
ENDBRANCH   6  22
BRANCH   1  32
ATOM     32  C   UNL     1       2.808   6.746  18.924  0.00  0.00    +0.000 C 
BRANCH  32  33
ATOM     33  C   UNL     1       3.973   5.785  19.139  0.00  0.00    +0.000 C 
BRANCH  33  35
ATOM     34  C   UNL     1       4.691   6.757  16.944  0.00  0.00    +0.000 C 
ATOM     35  C   UNL     1       4.748   5.539  17.853  0.00  0.00    +0.000 C 
ENDBRANCH  33  35
ENDBRANCH  32  33
ENDBRANCH   1  32
TORSDOF 9
ENDMDL
MODEL 3
REMARK VINA RESULT:      -6.5      0.992      1.261
REMARK  Name = 
REMARK  10 active torsions:
REMARK  status: ('A' for Active; 'I' for Inactive)
REMARK    1  A    between atoms: C_1  and  C_2
REMARK    2  A    between atoms: C_2  and  C_3
REMARK    3  A    between atoms: C_3  and  C_4
REMARK    4  A    between atoms: C_4  and  N_5
REMARK    5  A    between atoms: C_9  and  C_10
REMARK    6  A    between atoms: C_15  and  C_16
REMARK    7  A    between atoms: C_16  and  N_17
REMARK    8  A    between atoms: C_23  and  N_24
REMARK    9  A    between atoms: N_24  and  C_25
REMARK   10  A    between atoms: C_28  and  O_29
REMARK                            x       y       z     vdW  Elec       q    Type
REMARK                         _______ _______ _______ _____ _____    ______ ____
ROOT
ATOM      1  N   UNL     1       1.867   6.876  20.594  0.00  0.00    +0.000 N 
ATOM      2  C   UNL     1       1.447   8.183  20.790  0.00  0.00    +0.000 A 
ATOM      3  N   UNL     1       1.538   8.590  22.048  0.00  0.00    +0.000 NA
ATOM      4  C   UNL     1       0.996   9.785  22.306  0.00  0.00    +0.000 A 
ATOM      5  C   UNL     1       0.285  10.566  21.406  0.00  0.00    +0.000 A 
ATOM      6  C   UNL     1       0.387  10.124  20.084  0.00  0.00    +0.000 A 
ATOM      7  N   UNL     1       0.968   8.933  19.792  0.00  0.00    +0.000 NA
ATOM      8  H   UNL     1       2.352   6.631  21.448  0.00  0.00    +0.000 HD
ENDROOT
BRANCH   5   9
ATOM      9  C   UNL     1      -0.425  11.768  21.899  0.00  0.00    +0.000 A 
ATOM     10  N   UNL     1      -1.599  11.485  22.526  0.00  0.00    +0.000 NA
ATOM     11  C   UNL     1      -2.426  12.512  22.809  0.00  0.00    +0.000 A 
ATOM     12  C   UNL     1      -2.150  13.832  22.514  0.00  0.00    +0.000 A 
ATOM     13  C   UNL     1      -0.925  14.126  21.927  0.00  0.00    +0.000 A 
ATOM     14  C   UNL     1      -0.006  13.105  21.640  0.00  0.00    +0.000 A 
BRANCH  14  15
ATOM     15  C   UNL     1       1.313  13.443  20.950  0.00  0.00    +0.000 C 
BRANCH  15  16
ATOM     16  N   UNL     1       1.773  14.847  20.968  0.00  0.00    +0.000 NA
ATOM     17  C   UNL     1       2.289  15.219  19.626  0.00  0.00    +0.000 C 
ATOM     18  C   UNL     1       3.683  14.632  19.270  0.00  0.00    +0.000 C 
ATOM     19  O   UNL     1       4.648  14.915  20.281  0.00  0.00    +0.000 OA
ATOM     20  C   UNL     1       4.216  14.454  21.569  0.00  0.00    +0.000 C 
ATOM     21  C   UNL     1       2.867  15.090  21.935  0.00  0.00    +0.000 C 
ENDBRANCH  15  16
ENDBRANCH  14  15
ENDBRANCH   5   9
BRANCH   6  22
ATOM     22  N   UNL     1      -0.152  10.841  19.001  0.00  0.00    +0.000 N 
ATOM     23  H   UNL     1       0.473  10.887  18.193  0.00  0.00    +0.000 HD
BRANCH  22  24
ATOM     24  C   UNL     1      -1.585  10.650  18.722  0.00  0.00    +0.000 C 
ATOM     25  C   UNL     1      -2.304  11.998  18.866  0.00  0.00    +0.000 C 
ATOM     26  C   UNL     1      -3.800  11.857  18.617  0.00  0.00    +0.000 C 
ATOM     27  C   UNL     1      -4.099  11.270  17.238  0.00  0.00    +0.000 C 
ATOM     28  C   UNL     1      -3.312   9.977  16.986  0.00  0.00    +0.000 C 
ATOM     29  C   UNL     1      -1.817  10.121  17.296  0.00  0.00    +0.000 C 
BRANCH  27  30
ATOM     30  O   UNL     1      -5.497  10.998  17.136  0.00  0.00    +0.000 OA
ATOM     31  H   UNL     1      -5.686  10.789  16.207  0.00  0.00    +0.000 HD
ENDBRANCH  27  30
ENDBRANCH  22  24
ENDBRANCH   6  22
BRANCH   1  32
ATOM     32  C   UNL     1       2.621   6.665  19.379  0.00  0.00    +0.000 C 
BRANCH  32  33
ATOM     33  C   UNL     1       2.403   5.218  18.950  0.00  0.00    +0.000 C 
BRANCH  33  35
ATOM     34  C   UNL     1       0.886   3.444  19.860  0.00  0.00    +0.000 C 
ATOM     35  C   UNL     1       2.101   4.315  20.136  0.00  0.00    +0.000 C 
ENDBRANCH  33  35
ENDBRANCH  32  33
ENDBRANCH   1  32
TORSDOF 9
ENDMDL
MODEL 4
REMARK VINA RESULT:      -6.4      1.543      5.111
REMARK  Name = 
REMARK  10 active torsions:
REMARK  status: ('A' for Active; 'I' for Inactive)
REMARK    1  A    between atoms: C_1  and  C_2
REMARK    2  A    between atoms: C_2  and  C_3
REMARK    3  A    between atoms: C_3  and  C_4
REMARK    4  A    between atoms: C_4  and  N_5
REMARK    5  A    between atoms: C_9  and  C_10
REMARK    6  A    between atoms: C_15  and  C_16
REMARK    7  A    between atoms: C_16  and  N_17
REMARK    8  A    between atoms: C_23  and  N_24
REMARK    9  A    between atoms: N_24  and  C_25
REMARK   10  A    between atoms: C_28  and  O_29
REMARK                            x       y       z     vdW  Elec       q    Type
REMARK                         _______ _______ _______ _____ _____    ______ ____
ROOT
ATOM      1  N   UNL     1       2.292   7.576  18.140  0.00  0.00    +0.000 N 
ATOM      2  C   UNL     1       1.814   8.724  18.754  0.00  0.00    +0.000 A 
ATOM      3  N   UNL     1       1.214   8.498  19.913  0.00  0.00    +0.000 NA
ATOM      4  C   UNL     1       0.601   9.554  20.459  0.00  0.00    +0.000 A 
ATOM      5  C   UNL     1       0.469  10.807  19.877  0.00  0.00    +0.000 A 
ATOM      6  C   UNL     1       1.268  10.980  18.743  0.00  0.00    +0.000 A 
ATOM      7  N   UNL     1       1.932   9.932  18.194  0.00  0.00    +0.000 NA
ATOM      8  H   UNL     1       2.249   6.863  18.857  0.00  0.00    +0.000 HD
ENDROOT
BRANCH   5   9
ATOM      9  C   UNL     1      -0.410  11.810  20.518  0.00  0.00    +0.000 A 
ATOM     10  N   UNL     1      -0.025  12.142  21.780  0.00  0.00    +0.000 NA
ATOM     11  C   UNL     1      -0.880  12.869  22.529  0.00  0.00    +0.000 A 
ATOM     12  C   UNL     1      -2.112  13.309  22.090  0.00  0.00    +0.000 A 
ATOM     13  C   UNL     1      -2.478  13.020  20.782  0.00  0.00    +0.000 A 
ATOM     14  C   UNL     1      -1.619  12.297  19.941  0.00  0.00    +0.000 A 
BRANCH  14  15
ATOM     15  C   UNL     1      -2.060  11.948  18.522  0.00  0.00    +0.000 C 
BRANCH  15  16
ATOM     16  N   UNL     1      -2.769  10.669  18.305  0.00  0.00    +0.000 NA
ATOM     17  C   UNL     1      -2.206   9.985  17.113  0.00  0.00    +0.000 C 
ATOM     18  C   UNL     1      -2.619  10.595  15.745  0.00  0.00    +0.000 C 
ATOM     19  O   UNL     1      -4.035  10.727  15.633  0.00  0.00    +0.000 OA
ATOM     20  C   UNL     1      -4.583  11.491  16.717  0.00  0.00    +0.000 C 
ATOM     21  C   UNL     1      -4.219  10.841  18.060  0.00  0.00    +0.000 C 
ENDBRANCH  15  16
ENDBRANCH  14  15
ENDBRANCH   5   9
BRANCH   6  22
ATOM     22  N   UNL     1       1.381  12.213  18.076  0.00  0.00    +0.000 N 
ATOM     23  H   UNL     1       0.558  12.450  17.518  0.00  0.00    +0.000 HD
BRANCH  22  24
ATOM     24  C   UNL     1       2.023  13.314  18.815  0.00  0.00    +0.000 C 
ATOM     25  C   UNL     1       3.337  13.685  18.113  0.00  0.00    +0.000 C 
ATOM     26  C   UNL     1       4.061  14.802  18.851  0.00  0.00    +0.000 C 
ATOM     27  C   UNL     1       3.194  16.053  18.993  0.00  0.00    +0.000 C 
ATOM     28  C   UNL     1       1.815  15.726  19.580  0.00  0.00    +0.000 C 
ATOM     29  C   UNL     1       1.123  14.561  18.862  0.00  0.00    +0.000 C 
BRANCH  27  30
ATOM     30  O   UNL     1       3.856  16.991  19.842  0.00  0.00    +0.000 OA
ATOM     31  H   UNL     1       3.192  17.631  20.143  0.00  0.00    +0.000 HD
ENDBRANCH  27  30
ENDBRANCH  22  24
ENDBRANCH   6  22
BRANCH   1  32
ATOM     32  C   UNL     1       3.581   7.730  17.505  0.00  0.00    +0.000 C 
BRANCH  32  33
ATOM     33  C   UNL     1       4.277   6.373  17.545  0.00  0.00    +0.000 C 
BRANCH  33  35
ATOM     34  C   UNL     1       3.675   3.976  17.132  0.00  0.00    +0.000 C 
ATOM     35  C   UNL     1       3.306   5.249  17.876  0.00  0.00    +0.000 C 
ENDBRANCH  33  35
ENDBRANCH  32  33
ENDBRANCH   1  32
TORSDOF 9
ENDMDL
MODEL 5
REMARK VINA RESULT:      -6.2      1.052      1.597
REMARK  Name = 
REMARK  10 active torsions:
REMARK  status: ('A' for Active; 'I' for Inactive)
REMARK    1  A    between atoms: C_1  and  C_2
REMARK    2  A    between atoms: C_2  and  C_3
REMARK    3  A    between atoms: C_3  and  C_4
REMARK    4  A    between atoms: C_4  and  N_5
REMARK    5  A    between atoms: C_9  and  C_10
REMARK    6  A    between atoms: C_15  and  C_16
REMARK    7  A    between atoms: C_16  and  N_17
REMARK    8  A    between atoms: C_23  and  N_24
REMARK    9  A    between atoms: N_24  and  C_25
REMARK   10  A    between atoms: C_28  and  O_29
REMARK                            x       y       z     vdW  Elec       q    Type
REMARK                         _______ _______ _______ _____ _____    ______ ____
ROOT
ATOM      1  N   UNL     1       1.929   7.124  20.127  0.00  0.00    +0.000 N 
ATOM      2  C   UNL     1       1.453   8.375  20.491  0.00  0.00    +0.000 A 
ATOM      3  N   UNL     1       1.573   8.637  21.784  0.00  0.00    +0.000 NA
ATOM      4  C   UNL     1       0.984   9.763  22.200  0.00  0.00    +0.000 A 
ATOM      5  C   UNL     1       0.200  10.605  21.423  0.00  0.00    +0.000 A 
ATOM      6  C   UNL     1       0.272  10.326  20.055  0.00  0.00    +0.000 A 
ATOM      7  N   UNL     1       0.899   9.210  19.605  0.00  0.00    +0.000 NA
ATOM      8  H   UNL     1       2.457   6.807  20.930  0.00  0.00    +0.000 HD
ENDROOT
BRANCH   5   9
ATOM      9  C   UNL     1      -0.548  11.701  22.078  0.00  0.00    +0.000 A 
ATOM     10  N   UNL     1      -1.658  11.279  22.743  0.00  0.00    +0.000 NA
ATOM     11  C   UNL     1      -2.526  12.215  23.178  0.00  0.00    +0.000 A 
ATOM     12  C   UNL     1      -2.352  13.573  23.004  0.00  0.00    +0.000 A 
ATOM     13  C   UNL     1      -1.189  14.005  22.378  0.00  0.00    +0.000 A 
ATOM     14  C   UNL     1      -0.231  13.083  21.933  0.00  0.00    +0.000 A 
BRANCH  14  15
ATOM     15  C   UNL     1       1.017  13.575  21.204  0.00  0.00    +0.000 C 
BRANCH  15  16
ATOM     16  N   UNL     1       1.959  14.444  21.939  0.00  0.00    +0.000 NA
ATOM     17  C   UNL     1       1.642  15.869  21.662  0.00  0.00    +0.000 C 
ATOM     18  C   UNL     1       2.067  16.378  20.257  0.00  0.00    +0.000 C 
ATOM     19  O   UNL     1       3.441  16.102  19.990  0.00  0.00    +0.000 OA
ATOM     20  C   UNL     1       3.740  14.707  20.137  0.00  0.00    +0.000 C 
ATOM     21  C   UNL     1       3.372  14.232  21.550  0.00  0.00    +0.000 C 
ENDBRANCH  15  16
ENDBRANCH  14  15
ENDBRANCH   5   9
BRANCH   6  22
ATOM     22  N   UNL     1      -0.344  11.134  19.083  0.00  0.00    +0.000 N 
ATOM     23  H   UNL     1       0.259  11.338  18.283  0.00  0.00    +0.000 HD
BRANCH  22  24
ATOM     24  C   UNL     1      -1.763  10.867  18.795  0.00  0.00    +0.000 C 
ATOM     25  C   UNL     1      -2.579  12.131  19.096  0.00  0.00    +0.000 C 
ATOM     26  C   UNL     1      -4.063  11.904  18.843  0.00  0.00    +0.000 C 
ATOM     27  C   UNL     1      -4.339  11.455  17.409  0.00  0.00    +0.000 C 
ATOM     28  C   UNL     1      -3.461  10.264  17.005  0.00  0.00    +0.000 C 
ATOM     29  C   UNL     1      -1.976  10.486  17.319  0.00  0.00    +0.000 C 
BRANCH  27  30
ATOM     30  O   UNL     1      -5.714  11.090  17.285  0.00  0.00    +0.000 OA
ATOM     31  H   UNL     1      -5.895  10.948  16.342  0.00  0.00    +0.000 HD
ENDBRANCH  27  30
ENDBRANCH  22  24
ENDBRANCH   6  22
BRANCH   1  32
ATOM     32  C   UNL     1       2.643   7.097  18.872  0.00  0.00    +0.000 C 
BRANCH  32  33
ATOM     33  C   UNL     1       3.047   5.651  18.605  0.00  0.00    +0.000 C 
BRANCH  33  35
ATOM     34  C   UNL     1       5.471   5.142  18.983  0.00  0.00    +0.000 C 
ATOM     35  C   UNL     1       4.083   5.159  19.604  0.00  0.00    +0.000 C 
ENDBRANCH  33  35
ENDBRANCH  32  33
ENDBRANCH   1  32
TORSDOF 9
ENDMDL
MODEL 6
REMARK VINA RESULT:      -6.1      2.710      5.345
REMARK  Name = 
REMARK  10 active torsions:
REMARK  status: ('A' for Active; 'I' for Inactive)
REMARK    1  A    between atoms: C_1  and  C_2
REMARK    2  A    between atoms: C_2  and  C_3
REMARK    3  A    between atoms: C_3  and  C_4
REMARK    4  A    between atoms: C_4  and  N_5
REMARK    5  A    between atoms: C_9  and  C_10
REMARK    6  A    between atoms: C_15  and  C_16
REMARK    7  A    between atoms: C_16  and  N_17
REMARK    8  A    between atoms: C_23  and  N_24
REMARK    9  A    between atoms: N_24  and  C_25
REMARK   10  A    between atoms: C_28  and  O_29
REMARK                            x       y       z     vdW  Elec       q    Type
REMARK                         _______ _______ _______ _____ _____    ______ ____
ROOT
ATOM      1  N   UNL     1      -3.331  11.137  15.826  0.00  0.00    +0.000 N 
ATOM      2  C   UNL     1      -2.824  11.272  17.109  0.00  0.00    +0.000 A 
ATOM      3  N   UNL     1      -3.683  11.798  17.970  0.00  0.00    +0.000 NA
ATOM      4  C   UNL     1      -3.182  12.091  19.175  0.00  0.00    +0.000 A 
ATOM      5  C   UNL     1      -1.851  11.979  19.552  0.00  0.00    +0.000 A 
ATOM      6  C   UNL     1      -1.072  11.271  18.632  0.00  0.00    +0.000 A 
ATOM      7  N   UNL     1      -1.569  10.927  17.418  0.00  0.00    +0.000 NA
ATOM      8  H   UNL     1      -4.329  11.280  15.927  0.00  0.00    +0.000 HD
ENDROOT
BRANCH   5   9
ATOM      9  C   UNL     1      -1.421  12.534  20.854  0.00  0.00    +0.000 A 
ATOM     10  N   UNL     1      -2.032  11.951  21.921  0.00  0.00    +0.000 NA
ATOM     11  C   UNL     1      -1.883  12.532  23.129  0.00  0.00    +0.000 A 
ATOM     12  C   UNL     1      -1.138  13.673  23.352  0.00  0.00    +0.000 A 
ATOM     13  C   UNL     1      -0.467  14.234  22.273  0.00  0.00    +0.000 A 
ATOM     14  C   UNL     1      -0.554  13.656  20.997  0.00  0.00    +0.000 A 
BRANCH  14  15
ATOM     15  C   UNL     1       0.152  14.315  19.815  0.00  0.00    +0.000 C 
BRANCH  15  16
ATOM     16  N   UNL     1       1.404  13.706  19.320  0.00  0.00    +0.000 NA
ATOM     17  C   UNL     1       2.311  13.434  20.465  0.00  0.00    +0.000 C 
ATOM     18  C   UNL     1       3.006  14.686  21.068  0.00  0.00    +0.000 C 
ATOM     19  O   UNL     1       3.670  15.455  20.065  0.00  0.00    +0.000 OA
ATOM     20  C   UNL     1       2.776  15.829  19.007  0.00  0.00    +0.000 C 
ATOM     21  C   UNL     1       2.144  14.577  18.380  0.00  0.00    +0.000 C 
ENDBRANCH  15  16
ENDBRANCH  14  15
ENDBRANCH   5   9
BRANCH   6  22
ATOM     22  N   UNL     1       0.271  10.934  18.877  0.00  0.00    +0.000 N 
ATOM     23  H   UNL     1       0.767  11.625  19.445  0.00  0.00    +0.000 HD
BRANCH  22  24
ATOM     24  C   UNL     1       0.564   9.517  19.151  0.00  0.00    +0.000 C 
ATOM     25  C   UNL     1       1.837   9.116  18.395  0.00  0.00    +0.000 C 
ATOM     26  C   UNL     1       2.174   7.648  18.618  0.00  0.00    +0.000 C 
ATOM     27  C   UNL     1       2.341   7.316  20.100  0.00  0.00    +0.000 C 
ATOM     28  C   UNL     1       1.147   7.803  20.932  0.00  0.00    +0.000 C 
ATOM     29  C   UNL     1       0.786   9.267  20.653  0.00  0.00    +0.000 C 
BRANCH  27  30
ATOM     30  O   UNL     1       2.477   5.903  20.254  0.00  0.00    +0.000 OA
ATOM     31  H   UNL     1       2.006   5.482  19.517  0.00  0.00    +0.000 HD
ENDBRANCH  27  30
ENDBRANCH  22  24
ENDBRANCH   6  22
BRANCH   1  32
ATOM     32  C   UNL     1      -2.952   9.913  15.158  0.00  0.00    +0.000 C 
BRANCH  32  33
ATOM     33  C   UNL     1      -3.190  10.113  13.664  0.00  0.00    +0.000 C 
BRANCH  33  35
ATOM     34  C   UNL     1      -4.730   9.677  11.737  0.00  0.00    +0.000 C 
ATOM     35  C   UNL     1      -4.587   9.676  13.251  0.00  0.00    +0.000 C 
ENDBRANCH  33  35
ENDBRANCH  32  33
ENDBRANCH   1  32
TORSDOF 9
ENDMDL
MODEL 7
REMARK VINA RESULT:      -6.0      7.231     10.141
REMARK  Name = 
REMARK  10 active torsions:
REMARK  status: ('A' for Active; 'I' for Inactive)
REMARK    1  A    between atoms: C_1  and  C_2
REMARK    2  A    between atoms: C_2  and  C_3
REMARK    3  A    between atoms: C_3  and  C_4
REMARK    4  A    between atoms: C_4  and  N_5
REMARK    5  A    between atoms: C_9  and  C_10
REMARK    6  A    between atoms: C_15  and  C_16
REMARK    7  A    between atoms: C_16  and  N_17
REMARK    8  A    between atoms: C_23  and  N_24
REMARK    9  A    between atoms: N_24  and  C_25
REMARK   10  A    between atoms: C_28  and  O_29
REMARK                            x       y       z     vdW  Elec       q    Type
REMARK                         _______ _______ _______ _____ _____    ______ ____
ROOT
ATOM      1  N   UNL     1       9.023   9.934  18.902  0.00  0.00    +0.000 N 
ATOM      2  C   UNL     1       9.437  11.209  18.546  0.00  0.00    +0.000 A 
ATOM      3  N   UNL     1      10.702  11.463  18.846  0.00  0.00    +0.000 NA
ATOM      4  C   UNL     1      11.093  12.729  18.665  0.00  0.00    +0.000 A 
ATOM      5  C   UNL     1      10.276  13.786  18.288  0.00  0.00    +0.000 A 
ATOM      6  C   UNL     1       9.013  13.381  17.846  0.00  0.00    +0.000 A 
ATOM      7  N   UNL     1       8.608  12.094  17.981  0.00  0.00    +0.000 NA
ATOM      8  H   UNL     1       9.879   9.435  19.111  0.00  0.00    +0.000 HD
ENDROOT
BRANCH   5   9
ATOM      9  C   UNL     1      10.815  15.163  18.328  0.00  0.00    +0.000 A 
ATOM     10  N   UNL     1      11.615  15.463  17.269  0.00  0.00    +0.000 NA
ATOM     11  C   UNL     1      12.333  16.604  17.325  0.00  0.00    +0.000 A 
ATOM     12  C   UNL     1      12.297  17.491  18.381  0.00  0.00    +0.000 A 
ATOM     13  C   UNL     1      11.435  17.213  19.435  0.00  0.00    +0.000 A 
ATOM     14  C   UNL     1      10.636  16.060  19.421  0.00  0.00    +0.000 A 
BRANCH  14  15
ATOM     15  C   UNL     1       9.731  15.748  20.611  0.00  0.00    +0.000 C 
BRANCH  15  16
ATOM     16  N   UNL     1      10.315  15.029  21.763  0.00  0.00    +0.000 NA
ATOM     17  C   UNL     1       9.761  13.652  21.822  0.00  0.00    +0.000 C 
ATOM     18  C   UNL     1       8.298  13.551  22.335  0.00  0.00    +0.000 C 
ATOM     19  O   UNL     1       8.129  14.220  23.583  0.00  0.00    +0.000 OA
ATOM     20  C   UNL     1       8.549  15.590  23.511  0.00  0.00    +0.000 C 
ATOM     21  C   UNL     1      10.016  15.672  23.062  0.00  0.00    +0.000 C 
ENDBRANCH  15  16
ENDBRANCH  14  15
ENDBRANCH   5   9
BRANCH   6  22
ATOM     22  N   UNL     1       8.077  14.279  17.301  0.00  0.00    +0.000 N 
ATOM     23  H   UNL     1       7.736  14.001  16.379  0.00  0.00    +0.000 HD
BRANCH  22  24
ATOM     24  C   UNL     1       7.089  14.856  18.228  0.00  0.00    +0.000 C 
ATOM     25  C   UNL     1       7.245  16.383  18.236  0.00  0.00    +0.000 C 
ATOM     26  C   UNL     1       6.265  17.034  19.202  0.00  0.00    +0.000 C 
ATOM     27  C   UNL     1       4.816  16.677  18.877  0.00  0.00    +0.000 C 
ATOM     28  C   UNL     1       4.620  15.161  18.736  0.00  0.00    +0.000 C 
ATOM     29  C   UNL     1       5.650  14.512  17.804  0.00  0.00    +0.000 C 
BRANCH  27  30
ATOM     30  O   UNL     1       3.965  17.167  19.914  0.00  0.00    +0.000 OA
ATOM     31  H   UNL     1       3.055  17.145  19.580  0.00  0.00    +0.000 HD
ENDBRANCH  27  30
ENDBRANCH  22  24
ENDBRANCH   6  22
BRANCH   1  32
ATOM     32  C   UNL     1       8.160   9.293  17.936  0.00  0.00    +0.000 C 
BRANCH  32  33
ATOM     33  C   UNL     1       8.107   7.809  18.282  0.00  0.00    +0.000 C 
BRANCH  33  35
ATOM     34  C   UNL     1       7.143   5.569  17.707  0.00  0.00    +0.000 C 
ATOM     35  C   UNL     1       7.249   7.029  17.297  0.00  0.00    +0.000 C 
ENDBRANCH  33  35
ENDBRANCH  32  33
ENDBRANCH   1  32
TORSDOF 9
ENDMDL
MODEL 8
REMARK VINA RESULT:      -6.0      1.382      1.605
REMARK  Name = 
REMARK  10 active torsions:
REMARK  status: ('A' for Active; 'I' for Inactive)
REMARK    1  A    between atoms: C_1  and  C_2
REMARK    2  A    between atoms: C_2  and  C_3
REMARK    3  A    between atoms: C_3  and  C_4
REMARK    4  A    between atoms: C_4  and  N_5
REMARK    5  A    between atoms: C_9  and  C_10
REMARK    6  A    between atoms: C_15  and  C_16
REMARK    7  A    between atoms: C_16  and  N_17
REMARK    8  A    between atoms: C_23  and  N_24
REMARK    9  A    between atoms: N_24  and  C_25
REMARK   10  A    between atoms: C_28  and  O_29
REMARK                            x       y       z     vdW  Elec       q    Type
REMARK                         _______ _______ _______ _____ _____    ______ ____
ROOT
ATOM      1  N   UNL     1       1.131   7.661  20.982  0.00  0.00    +0.000 N 
ATOM      2  C   UNL     1       0.589   8.880  21.362  0.00  0.00    +0.000 A 
ATOM      3  N   UNL     1       0.576   9.073  22.672  0.00  0.00    +0.000 NA
ATOM      4  C   UNL     1      -0.081  10.162  23.086  0.00  0.00    +0.000 A 
ATOM      5  C   UNL     1      -0.808  11.028  22.281  0.00  0.00    +0.000 A 
ATOM      6  C   UNL     1      -0.596  10.825  20.914  0.00  0.00    +0.000 A 
ATOM      7  N   UNL     1       0.101   9.749  20.470  0.00  0.00    +0.000 NA
ATOM      8  H   UNL     1       1.588   7.312  21.816  0.00  0.00    +0.000 HD
ENDROOT
BRANCH   5   9
ATOM      9  C   UNL     1      -1.645  12.070  22.915  0.00  0.00    +0.000 A 
ATOM     10  N   UNL     1      -2.810  11.591  23.431  0.00  0.00    +0.000 NA
ATOM     11  C   UNL     1      -3.740  12.485  23.825  0.00  0.00    +0.000 A 
ATOM     12  C   UNL     1      -3.579  13.854  23.750  0.00  0.00    +0.000 A 
ATOM     13  C   UNL     1      -2.366  14.341  23.279  0.00  0.00    +0.000 A 
ATOM     14  C   UNL     1      -1.346  13.463  22.886  0.00  0.00    +0.000 A 
BRANCH  14  15
ATOM     15  C   UNL     1      -0.039  14.018  22.325  0.00  0.00    +0.000 C 
BRANCH  15  16
ATOM     16  N   UNL     1       0.045  14.276  20.872  0.00  0.00    +0.000 NA
ATOM     17  C   UNL     1       1.428  14.013  20.399  0.00  0.00    +0.000 C 
ATOM     18  C   UNL     1       2.473  15.097  20.783  0.00  0.00    +0.000 C 
ATOM     19  O   UNL     1       2.045  16.402  20.398  0.00  0.00    +0.000 OA
ATOM     20  C   UNL     1       0.758  16.720  20.947  0.00  0.00    +0.000 C 
ATOM     21  C   UNL     1      -0.278  15.674  20.508  0.00  0.00    +0.000 C 
ENDBRANCH  15  16
ENDBRANCH  14  15
ENDBRANCH   5   9
BRANCH   6  22
ATOM     22  N   UNL     1      -1.136  11.671  19.929  0.00  0.00    +0.000 N 
ATOM     23  H   UNL     1      -0.472  12.366  19.581  0.00  0.00    +0.000 HD
BRANCH  22  24
ATOM     24  C   UNL     1      -2.032  11.053  18.937  0.00  0.00    +0.000 C 
ATOM     25  C   UNL     1      -3.292  11.917  18.796  0.00  0.00    +0.000 C 
ATOM     26  C   UNL     1      -4.270  11.310  17.800  0.00  0.00    +0.000 C 
ATOM     27  C   UNL     1      -3.639  11.111  16.423  0.00  0.00    +0.000 C 
ATOM     28  C   UNL     1      -2.307  10.354  16.510  0.00  0.00    +0.000 C 
ATOM     29  C   UNL     1      -1.355  10.944  17.558  0.00  0.00    +0.000 C 
BRANCH  27  30
ATOM     30  O   UNL     1      -4.542  10.381  15.592  0.00  0.00    +0.000 OA
ATOM     31  H   UNL     1      -5.212  11.004  15.270  0.00  0.00    +0.000 HD
ENDBRANCH  27  30
ENDBRANCH  22  24
ENDBRANCH   6  22
BRANCH   1  32
ATOM     32  C   UNL     1       1.965   7.718  19.804  0.00  0.00    +0.000 C 
BRANCH  32  33
ATOM     33  C   UNL     1       2.584   6.337  19.613  0.00  0.00    +0.000 C 
BRANCH  33  35
ATOM     34  C   UNL     1       3.460   4.813  17.827  0.00  0.00    +0.000 C 
ATOM     35  C   UNL     1       2.379   5.815  18.198  0.00  0.00    +0.000 C 
ENDBRANCH  33  35
ENDBRANCH  32  33
ENDBRANCH   1  32
TORSDOF 9
ENDMDL
MODEL 9
REMARK VINA RESULT:      -5.9      2.359      4.109
REMARK  Name = 
REMARK  10 active torsions:
REMARK  status: ('A' for Active; 'I' for Inactive)
REMARK    1  A    between atoms: C_1  and  C_2
REMARK    2  A    between atoms: C_2  and  C_3
REMARK    3  A    between atoms: C_3  and  C_4
REMARK    4  A    between atoms: C_4  and  N_5
REMARK    5  A    between atoms: C_9  and  C_10
REMARK    6  A    between atoms: C_15  and  C_16
REMARK    7  A    between atoms: C_16  and  N_17
REMARK    8  A    between atoms: C_23  and  N_24
REMARK    9  A    between atoms: N_24  and  C_25
REMARK   10  A    between atoms: C_28  and  O_29
REMARK                            x       y       z     vdW  Elec       q    Type
REMARK                         _______ _______ _______ _____ _____    ______ ____
ROOT
ATOM      1  N   UNL     1       1.087   8.574  21.157  0.00  0.00    +0.000 N 
ATOM      2  C   UNL     1       0.839   9.848  20.667  0.00  0.00    +0.000 A 
ATOM      3  N   UNL     1       1.151  10.816  21.516  0.00  0.00    +0.000 NA
ATOM      4  C   UNL     1       0.781  12.047  21.145  0.00  0.00    +0.000 A 
ATOM      5  C   UNL     1       0.035  12.367  20.019  0.00  0.00    +0.000 A 
ATOM      6  C   UNL     1      -0.100  11.304  19.122  0.00  0.00    +0.000 A 
ATOM      7  N   UNL     1       0.305  10.054  19.458  0.00  0.00    +0.000 NA
ATOM      8  H   UNL     1       1.659   8.722  21.978  0.00  0.00    +0.000 HD
ENDROOT
BRANCH   5   9
ATOM      9  C   UNL     1      -0.467  13.749  19.856  0.00  0.00    +0.000 A 
ATOM     10  N   UNL     1       0.110  14.417  18.819  0.00  0.00    +0.000 NA
ATOM     11  C   UNL     1      -0.108  15.745  18.725  0.00  0.00    +0.000 A 
ATOM     12  C   UNL     1      -0.889  16.465  19.606  0.00  0.00    +0.000 A 
ATOM     13  C   UNL     1      -1.525  15.773  20.629  0.00  0.00    +0.000 A 
ATOM     14  C   UNL     1      -1.366  14.386  20.760  0.00  0.00    +0.000 A 
BRANCH  14  15
ATOM     15  C   UNL     1      -2.034  13.651  21.920  0.00  0.00    +0.000 C 
BRANCH  15  16
ATOM     16  N   UNL     1      -3.087  14.355  22.680  0.00  0.00    +0.000 NA
ATOM     17  C   UNL     1      -3.162  13.801  24.056  0.00  0.00    +0.000 C 
ATOM     18  C   UNL     1      -3.834  12.405  24.170  0.00  0.00    +0.000 C 
ATOM     19  O   UNL     1      -5.116  12.384  23.544  0.00  0.00    +0.000 OA
ATOM     20  C   UNL     1      -5.042  12.803  22.173  0.00  0.00    +0.000 C 
ATOM     21  C   UNL     1      -4.434  14.210  22.082  0.00  0.00    +0.000 C 
ENDBRANCH  15  16
ENDBRANCH  14  15
ENDBRANCH   5   9
BRANCH   6  22
ATOM     22  N   UNL     1      -0.709  11.448  17.862  0.00  0.00    +0.000 N 
ATOM     23  H   UNL     1      -0.110  11.159  17.086  0.00  0.00    +0.000 HD
BRANCH  22  24
ATOM     24  C   UNL     1      -2.136  11.096  17.767  0.00  0.00    +0.000 C 
ATOM     25  C   UNL     1      -2.949  12.077  18.622  0.00  0.00    +0.000 C 
ATOM     26  C   UNL     1      -4.434  11.744  18.585  0.00  0.00    +0.000 C 
ATOM     27  C   UNL     1      -4.986  11.738  17.160  0.00  0.00    +0.000 C 
ATOM     28  C   UNL     1      -4.140  10.866  16.224  0.00  0.00    +0.000 C 
ATOM     29  C   UNL     1      -2.641  11.175  16.315  0.00  0.00    +0.000 C 
BRANCH  27  30
ATOM     30  O   UNL     1      -6.327  11.248  17.176  0.00  0.00    +0.000 OA
ATOM     31  H   UNL     1      -6.336  10.406  16.694  0.00  0.00    +0.000 HD
ENDBRANCH  27  30
ENDBRANCH  22  24
ENDBRANCH   6  22
BRANCH   1  32
ATOM     32  C   UNL     1       1.633   7.655  20.185  0.00  0.00    +0.000 C 
BRANCH  32  33
ATOM     33  C   UNL     1       1.611   6.263  20.808  0.00  0.00    +0.000 C 
BRANCH  33  35
ATOM     34  C   UNL     1       1.583   4.440  19.090  0.00  0.00    +0.000 C 
ATOM     35  C   UNL     1       2.453   5.275  20.015  0.00  0.00    +0.000 C 
ENDBRANCH  33  35
ENDBRANCH  32  33
ENDBRANCH   1  32
TORSDOF 9
ENDMDL
