MODEL 1
REMARK VINA RESULT:      -8.4      0.000      0.000
REMARK  Name = 
REMARK  3 active torsions:
REMARK  status: ('A' for Active; 'I' for Inactive)
REMARK    1  A    between atoms: C_2  and  C_3
REMARK    2  A    between atoms: N_20  and  C_21
REMARK    3  A    between atoms: C_21  and  C_22
REMARK                            x       y       z     vdW  Elec       q    Type
REMARK                         _______ _______ _______ _____ _____    ______ ____
ROOT
ATOM      1  O   UNL     1       3.267   2.862  17.155  0.00  0.00    +0.000 OA
ATOM      2  C   UNL     1       3.844   3.685  17.871  0.00  0.00    +0.000 C 
ATOM      3  N   UNL     1       5.156   4.011  17.608  0.00  0.00    +0.000 N 
ATOM      4  C   UNL     1       5.832   3.454  16.433  0.00  0.00    +0.000 C 
ATOM      5  C   UNL     1       7.038   4.420  16.272  0.00  0.00    +0.000 C 
ATOM      6  C   UNL     1       7.440   4.543  17.744  0.00  0.00    +0.000 C 
ATOM      7  C   UNL     1       6.061   5.053  18.147  0.00  0.00    +0.000 C 
ATOM      8  C   UNL     1       5.975   6.291  17.224  0.00  0.00    +0.000 C 
ATOM      9  N   UNL     1       6.652   5.840  15.974  0.00  0.00    +0.000 NA
ENDROOT
BRANCH   2  10
ATOM     10  C   UNL     1       3.108   4.289  19.043  0.00  0.00    +0.000 A 
ATOM     11  C   UNL     1       3.026   3.602  20.195  0.00  0.00    +0.000 A 
ATOM     12  C   UNL     1       2.331   4.093  21.394  0.00  0.00    +0.000 A 
ATOM     13  O   UNL     1       2.145   3.352  22.352  0.00  0.00    +0.000 OA
ATOM     14  N   UNL     1       1.936   5.391  21.374  0.00  0.00    +0.000 N 
ATOM     15  C   UNL     1       2.090   6.218  20.260  0.00  0.00    +0.000 A 
ATOM     16  C   UNL     1       1.693   7.553  20.377  0.00  0.00    +0.000 A 
ATOM     17  C   UNL     1       1.818   8.408  19.287  0.00  0.00    +0.000 A 
ATOM     18  C   UNL     1       2.310   7.914  18.082  0.00  0.00    +0.000 A 
ATOM     19  C   UNL     1       2.700   6.572  17.968  0.00  0.00    +0.000 A 
ATOM     20  C   UNL     1       2.625   5.701  19.063  0.00  0.00    +0.000 A 
ATOM     21  H   UNL     1       1.498   5.733  22.219  0.00  0.00    +0.000 HD
ENDBRANCH   2  10
BRANCH   9  22
ATOM     22  C   UNL     1       5.779   5.962  14.794  0.00  0.00    +0.000 C 
BRANCH  22  23
ATOM     23  C   UNL     1       6.123   4.999  13.673  0.00  0.00    +0.000 A 
ATOM     24  C   UNL     1       7.352   5.077  13.008  0.00  0.00    +0.000 A 
ATOM     25  C   UNL     1       7.656   4.183  11.978  0.00  0.00    +0.000 A 
ATOM     26  C   UNL     1       6.736   3.205  11.601  0.00  0.00    +0.000 A 
ATOM     27  C   UNL     1       5.510   3.116  12.255  0.00  0.00    +0.000 A 
ATOM     28  C   UNL     1       5.205   4.005  13.287  0.00  0.00    +0.000 A 
ENDBRANCH  22  23
ENDBRANCH   9  22
TORSDOF 3
ENDMDL
MODEL 2
REMARK VINA RESULT:      -8.0      1.811      3.116
REMARK  Name = 
REMARK  3 active torsions:
REMARK  status: ('A' for Active; 'I' for Inactive)
REMARK    1  A    between atoms: C_2  and  C_3
REMARK    2  A    between atoms: N_20  and  C_21
REMARK    3  A    between atoms: C_21  and  C_22
REMARK                            x       y       z     vdW  Elec       q    Type
REMARK                         _______ _______ _______ _____ _____    ______ ____
ROOT
ATOM      1  O   UNL     1       6.058   4.215  19.949  0.00  0.00    +0.000 OA
ATOM      2  C   UNL     1       5.311   5.024  19.389  0.00  0.00    +0.000 C 
ATOM      3  N   UNL     1       5.844   5.956  18.527  0.00  0.00    +0.000 N 
ATOM      4  C   UNL     1       7.273   5.929  18.206  0.00  0.00    +0.000 C 
ATOM      5  C   UNL     1       7.324   6.780  16.907  0.00  0.00    +0.000 C 
ATOM      6  C   UNL     1       6.371   7.903  17.323  0.00  0.00    +0.000 C 
ATOM      7  C   UNL     1       5.231   6.927  17.591  0.00  0.00    +0.000 C 
ATOM      8  C   UNL     1       5.141   6.261  16.197  0.00  0.00    +0.000 C 
ATOM      9  N   UNL     1       6.563   6.187  15.756  0.00  0.00    +0.000 NA
ENDROOT
BRANCH   2  10
ATOM     10  C   UNL     1       3.832   4.995  19.693  0.00  0.00    +0.000 A 
ATOM     11  C   UNL     1       3.224   6.115  20.115  0.00  0.00    +0.000 A 
ATOM     12  C   UNL     1       1.793   6.197  20.443  0.00  0.00    +0.000 A 
ATOM     13  O   UNL     1       1.335   7.197  20.983  0.00  0.00    +0.000 OA
ATOM     14  N   UNL     1       1.032   5.127  20.100  0.00  0.00    +0.000 N 
ATOM     15  C   UNL     1       1.563   3.962  19.544  0.00  0.00    +0.000 A 
ATOM     16  C   UNL     1       0.673   2.946  19.182  0.00  0.00    +0.000 A 
ATOM     17  C   UNL     1       1.161   1.764  18.635  0.00  0.00    +0.000 A 
ATOM     18  C   UNL     1       2.534   1.596  18.482  0.00  0.00    +0.000 A 
ATOM     19  C   UNL     1       3.423   2.615  18.853  0.00  0.00    +0.000 A 
ATOM     20  C   UNL     1       2.955   3.832  19.366  0.00  0.00    +0.000 A 
ATOM     21  H   UNL     1       0.043   5.209  20.290  0.00  0.00    +0.000 HD
ENDBRANCH   2  10
BRANCH   9  22
ATOM     22  C   UNL     1       6.976   4.809  15.442  0.00  0.00    +0.000 C 
BRANCH  22  23
ATOM     23  C   UNL     1       6.701   4.395  14.008  0.00  0.00    +0.000 A 
ATOM     24  C   UNL     1       5.567   3.643  13.681  0.00  0.00    +0.000 A 
ATOM     25  C   UNL     1       5.325   3.269  12.357  0.00  0.00    +0.000 A 
ATOM     26  C   UNL     1       6.213   3.640  11.348  0.00  0.00    +0.000 A 
ATOM     27  C   UNL     1       7.345   4.389  11.660  0.00  0.00    +0.000 A 
ATOM     28  C   UNL     1       7.587   4.767  12.981  0.00  0.00    +0.000 A 
ENDBRANCH  22  23
ENDBRANCH   9  22
TORSDOF 3
ENDMDL
MODEL 3
REMARK VINA RESULT:      -7.8      5.872     10.642
REMARK  Name = 
REMARK  3 active torsions:
REMARK  status: ('A' for Active; 'I' for Inactive)
REMARK    1  A    between atoms: C_2  and  C_3
REMARK    2  A    between atoms: N_20  and  C_21
REMARK    3  A    between atoms: C_21  and  C_22
REMARK                            x       y       z     vdW  Elec       q    Type
REMARK                         _______ _______ _______ _____ _____    ______ ____
ROOT
ATOM      1  O   UNL     1      -1.205  11.411  18.607  0.00  0.00    +0.000 OA
ATOM      2  C   UNL     1      -0.177  11.647  19.247  0.00  0.00    +0.000 C 
ATOM      3  N   UNL     1       0.428  12.878  19.129  0.00  0.00    +0.000 N 
ATOM      4  C   UNL     1      -0.194  13.930  18.320  0.00  0.00    +0.000 C 
ATOM      5  C   UNL     1       0.523  15.204  18.846  0.00  0.00    +0.000 C 
ATOM      6  C   UNL     1       1.951  14.655  18.923  0.00  0.00    +0.000 C 
ATOM      7  C   UNL     1       1.539  13.528  19.863  0.00  0.00    +0.000 C 
ATOM      8  C   UNL     1       0.931  14.370  21.010  0.00  0.00    +0.000 C 
ATOM      9  N   UNL     1       0.266  15.498  20.297  0.00  0.00    +0.000 NA
ENDROOT
BRANCH   2  10
ATOM     10  C   UNL     1       0.414  10.565  20.118  0.00  0.00    +0.000 A 
ATOM     11  C   UNL     1       0.104  10.527  21.425  0.00  0.00    +0.000 A 
ATOM     12  C   UNL     1       0.625   9.522  22.362  0.00  0.00    +0.000 A 
ATOM     13  O   UNL     1       0.442   9.642  23.568  0.00  0.00    +0.000 OA
ATOM     14  N   UNL     1       1.291   8.473  21.816  0.00  0.00    +0.000 N 
ATOM     15  C   UNL     1       1.556   8.368  20.450  0.00  0.00    +0.000 A 
ATOM     16  C   UNL     1       2.203   7.215  19.995  0.00  0.00    +0.000 A 
ATOM     17  C   UNL     1       2.496   7.075  18.644  0.00  0.00    +0.000 A 
ATOM     18  C   UNL     1       2.168   8.101  17.761  0.00  0.00    +0.000 A 
ATOM     19  C   UNL     1       1.526   9.260  18.223  0.00  0.00    +0.000 A 
ATOM     20  C   UNL     1       1.180   9.406  19.573  0.00  0.00    +0.000 A 
ATOM     21  H   UNL     1       1.609   7.765  22.463  0.00  0.00    +0.000 HD
ENDBRANCH   2  10
BRANCH   9  22
ATOM     22  C   UNL     1      -1.169  15.589  20.618  0.00  0.00    +0.000 C 
BRANCH  22  23
ATOM     23  C   UNL     1      -1.659  14.502  21.557  0.00  0.00    +0.000 A 
ATOM     24  C   UNL     1      -2.547  13.514  21.114  0.00  0.00    +0.000 A 
ATOM     25  C   UNL     1      -2.990  12.519  21.988  0.00  0.00    +0.000 A 
ATOM     26  C   UNL     1      -2.553  12.500  23.312  0.00  0.00    +0.000 A 
ATOM     27  C   UNL     1      -1.669  13.476  23.766  0.00  0.00    +0.000 A 
ATOM     28  C   UNL     1      -1.222  14.470  22.894  0.00  0.00    +0.000 A 
ENDBRANCH  22  23
ENDBRANCH   9  22
TORSDOF 3
ENDMDL
MODEL 4
REMARK VINA RESULT:      -7.7      2.403      3.632
REMARK  Name = 
REMARK  3 active torsions:
REMARK  status: ('A' for Active; 'I' for Inactive)
REMARK    1  A    between atoms: C_2  and  C_3
REMARK    2  A    between atoms: N_20  and  C_21
REMARK    3  A    between atoms: C_21  and  C_22
REMARK                            x       y       z     vdW  Elec       q    Type
REMARK                         _______ _______ _______ _____ _____    ______ ____
ROOT
ATOM      1  O   UNL     1       1.653   5.346  18.769  0.00  0.00    +0.000 OA
ATOM      2  C   UNL     1       2.564   6.177  18.813  0.00  0.00    +0.000 C 
ATOM      3  N   UNL     1       3.873   5.751  18.775  0.00  0.00    +0.000 N 
ATOM      4  C   UNL     1       4.180   4.330  18.593  0.00  0.00    +0.000 C 
ATOM      5  C   UNL     1       5.665   4.379  18.140  0.00  0.00    +0.000 C 
ATOM      6  C   UNL     1       6.176   5.438  19.121  0.00  0.00    +0.000 C 
ATOM      7  C   UNL     1       5.162   6.469  18.640  0.00  0.00    +0.000 C 
ATOM      8  C   UNL     1       5.538   6.506  17.139  0.00  0.00    +0.000 C 
ATOM      9  N   UNL     1       5.885   5.089  16.834  0.00  0.00    +0.000 NA
ENDROOT
BRANCH   2  10
ATOM     10  C   UNL     1       2.222   7.641  18.943  0.00  0.00    +0.000 A 
ATOM     11  C   UNL     1       2.499   8.477  17.928  0.00  0.00    +0.000 A 
ATOM     12  C   UNL     1       2.212   9.918  17.952  0.00  0.00    +0.000 A 
ATOM     13  O   UNL     1       2.642  10.652  17.070  0.00  0.00    +0.000 OA
ATOM     14  N   UNL     1       1.446  10.366  18.979  0.00  0.00    +0.000 N 
ATOM     15  C   UNL     1       1.010   9.543  20.019  0.00  0.00    +0.000 A 
ATOM     16  C   UNL     1       0.181  10.105  20.994  0.00  0.00    +0.000 A 
ATOM     17  C   UNL     1      -0.266   9.323  22.053  0.00  0.00    +0.000 A 
ATOM     18  C   UNL     1       0.142   7.995  22.145  0.00  0.00    +0.000 A 
ATOM     19  C   UNL     1       0.980   7.438  21.168  0.00  0.00    +0.000 A 
ATOM     20  C   UNL     1       1.409   8.192  20.068  0.00  0.00    +0.000 A 
ATOM     21  H   UNL     1       1.218  11.350  18.965  0.00  0.00    +0.000 HD
ENDBRANCH   2  10
BRANCH   9  22
ATOM     22  C   UNL     1       5.068   4.540  15.738  0.00  0.00    +0.000 C 
BRANCH  22  23
ATOM     23  C   UNL     1       5.816   4.397  14.426  0.00  0.00    +0.000 A 
ATOM     24  C   UNL     1       5.317   3.591  13.396  0.00  0.00    +0.000 A 
ATOM     25  C   UNL     1       6.014   3.468  12.192  0.00  0.00    +0.000 A 
ATOM     26  C   UNL     1       7.218   4.147  12.005  0.00  0.00    +0.000 A 
ATOM     27  C   UNL     1       7.726   4.953  13.021  0.00  0.00    +0.000 A 
ATOM     28  C   UNL     1       7.029   5.081  14.223  0.00  0.00    +0.000 A 
ENDBRANCH  22  23
ENDBRANCH   9  22
TORSDOF 3
ENDMDL
MODEL 5
REMARK VINA RESULT:      -7.7      4.159      8.451
REMARK  Name = 
REMARK  3 active torsions:
REMARK  status: ('A' for Active; 'I' for Inactive)
REMARK    1  A    between atoms: C_2  and  C_3
REMARK    2  A    between atoms: N_20  and  C_21
REMARK    3  A    between atoms: C_21  and  C_22
REMARK                            x       y       z     vdW  Elec       q    Type
REMARK                         _______ _______ _______ _____ _____    ______ ____
ROOT
ATOM      1  O   UNL     1       1.860   8.191  21.417  0.00  0.00    +0.000 OA
ATOM      2  C   UNL     1       1.655   8.177  20.200  0.00  0.00    +0.000 C 
ATOM      3  N   UNL     1       0.799   9.102  19.645  0.00  0.00    +0.000 N 
ATOM      4  C   UNL     1       0.210  10.152  20.480  0.00  0.00    +0.000 C 
ATOM      5  C   UNL     1      -0.249  11.186  19.415  0.00  0.00    +0.000 C 
ATOM      6  C   UNL     1      -0.840  10.218  18.386  0.00  0.00    +0.000 C 
ATOM      7  C   UNL     1       0.475   9.461  18.245  0.00  0.00    +0.000 C 
ATOM      8  C   UNL     1       1.393  10.632  17.822  0.00  0.00    +0.000 C 
ATOM      9  N   UNL     1       0.874  11.783  18.615  0.00  0.00    +0.000 NA
ENDROOT
BRANCH   2  10
ATOM     10  C   UNL     1       2.320   7.119  19.352  0.00  0.00    +0.000 A 
ATOM     11  C   UNL     1       3.223   7.486  18.427  0.00  0.00    +0.000 A 
ATOM     12  C   UNL     1       3.925   6.541  17.547  0.00  0.00    +0.000 A 
ATOM     13  O   UNL     1       4.605   6.949  16.613  0.00  0.00    +0.000 OA
ATOM     14  N   UNL     1       3.785   5.223  17.841  0.00  0.00    +0.000 N 
ATOM     15  C   UNL     1       2.960   4.754  18.863  0.00  0.00    +0.000 A 
ATOM     16  C   UNL     1       2.938   3.378  19.107  0.00  0.00    +0.000 A 
ATOM     17  C   UNL     1       2.121   2.867  20.109  0.00  0.00    +0.000 A 
ATOM     18  C   UNL     1       1.310   3.732  20.839  0.00  0.00    +0.000 A 
ATOM     19  C   UNL     1       1.329   5.111  20.586  0.00  0.00    +0.000 A 
ATOM     20  C   UNL     1       2.176   5.656  19.611  0.00  0.00    +0.000 A 
ATOM     21  H   UNL     1       4.305   4.583  17.257  0.00  0.00    +0.000 HD
ENDBRANCH   2  10
BRANCH   9  22
ATOM     22  C   UNL     1       1.917  12.393  19.458  0.00  0.00    +0.000 C 
BRANCH  22  23
ATOM     23  C   UNL     1       2.364  13.764  18.986  0.00  0.00    +0.000 A 
ATOM     24  C   UNL     1       1.561  14.893  19.188  0.00  0.00    +0.000 A 
ATOM     25  C   UNL     1       1.984  16.150  18.749  0.00  0.00    +0.000 A 
ATOM     26  C   UNL     1       3.211  16.292  18.103  0.00  0.00    +0.000 A 
ATOM     27  C   UNL     1       4.021  15.177  17.896  0.00  0.00    +0.000 A 
ATOM     28  C   UNL     1       3.602  13.921  18.336  0.00  0.00    +0.000 A 
ENDBRANCH  22  23
ENDBRANCH   9  22
TORSDOF 3
ENDMDL
MODEL 6
REMARK VINA RESULT:      -7.7      6.135     11.046
REMARK  Name = 
REMARK  3 active torsions:
REMARK  status: ('A' for Active; 'I' for Inactive)
REMARK    1  A    between atoms: C_2  and  C_3
REMARK    2  A    between atoms: N_20  and  C_21
REMARK    3  A    between atoms: C_21  and  C_22
REMARK                            x       y       z     vdW  Elec       q    Type
REMARK                         _______ _______ _______ _____ _____    ______ ____
ROOT
ATOM      1  O   UNL     1      -1.046  11.240  18.418  0.00  0.00    +0.000 OA
ATOM      2  C   UNL     1      -0.188  11.558  19.246  0.00  0.00    +0.000 C 
ATOM      3  N   UNL     1       0.220  12.871  19.331  0.00  0.00    +0.000 N 
ATOM      4  C   UNL     1      -0.426  13.897  18.507  0.00  0.00    +0.000 C 
ATOM      5  C   UNL     1      -0.021  15.201  19.247  0.00  0.00    +0.000 C 
ATOM      6  C   UNL     1       1.445  14.865  19.533  0.00  0.00    +0.000 C 
ATOM      7  C   UNL     1       1.075  13.599  20.297  0.00  0.00    +0.000 C 
ATOM      8  C   UNL     1       0.160  14.220  21.379  0.00  0.00    +0.000 C 
ATOM      9  N   UNL     1      -0.556  15.304  20.647  0.00  0.00    +0.000 NA
ENDROOT
BRANCH   2  10
ATOM     10  C   UNL     1       0.422  10.492  20.124  0.00  0.00    +0.000 A 
ATOM     11  C   UNL     1       0.123  10.464  21.433  0.00  0.00    +0.000 A 
ATOM     12  C   UNL     1       0.663   9.474  22.376  0.00  0.00    +0.000 A 
ATOM     13  O   UNL     1       0.488   9.605  23.582  0.00  0.00    +0.000 OA
ATOM     14  N   UNL     1       1.335   8.427  21.835  0.00  0.00    +0.000 N 
ATOM     15  C   UNL     1       1.590   8.311  20.468  0.00  0.00    +0.000 A 
ATOM     16  C   UNL     1       2.246   7.159  20.020  0.00  0.00    +0.000 A 
ATOM     17  C   UNL     1       2.530   7.010  18.668  0.00  0.00    +0.000 A 
ATOM     18  C   UNL     1       2.184   8.023  17.778  0.00  0.00    +0.000 A 
ATOM     19  C   UNL     1       1.533   9.179  18.233  0.00  0.00    +0.000 A 
ATOM     20  C   UNL     1       1.196   9.336  19.584  0.00  0.00    +0.000 A 
ATOM     21  H   UNL     1       1.666   7.729  22.487  0.00  0.00    +0.000 HD
ENDBRANCH   2  10
BRANCH   9  22
ATOM     22  C   UNL     1      -2.019  15.148  20.716  0.00  0.00    +0.000 C 
BRANCH  22  23
ATOM     23  C   UNL     1      -2.502  14.413  21.953  0.00  0.00    +0.000 A 
ATOM     24  C   UNL     1      -2.503  15.037  23.206  0.00  0.00    +0.000 A 
ATOM     25  C   UNL     1      -2.950  14.350  24.337  0.00  0.00    +0.000 A 
ATOM     26  C   UNL     1      -3.400  13.035  24.228  0.00  0.00    +0.000 A 
ATOM     27  C   UNL     1      -3.406  12.402  22.987  0.00  0.00    +0.000 A 
ATOM     28  C   UNL     1      -2.962  13.088  21.855  0.00  0.00    +0.000 A 
ENDBRANCH  22  23
ENDBRANCH   9  22
TORSDOF 3
ENDMDL
MODEL 7
REMARK VINA RESULT:      -7.6      2.310      7.704
REMARK  Name = 
REMARK  3 active torsions:
REMARK  status: ('A' for Active; 'I' for Inactive)
REMARK    1  A    between atoms: C_2  and  C_3
REMARK    2  A    between atoms: N_20  and  C_21
REMARK    3  A    between atoms: C_21  and  C_22
REMARK                            x       y       z     vdW  Elec       q    Type
REMARK                         _______ _______ _______ _____ _____    ______ ____
ROOT
ATOM      1  O   UNL     1       5.640   4.340  20.086  0.00  0.00    +0.000 OA
ATOM      2  C   UNL     1       5.098   4.772  19.065  0.00  0.00    +0.000 C 
ATOM      3  N   UNL     1       3.741   4.609  18.896  0.00  0.00    +0.000 N 
ATOM      4  C   UNL     1       2.933   4.011  19.961  0.00  0.00    +0.000 C 
ATOM      5  C   UNL     1       1.499   4.458  19.564  0.00  0.00    +0.000 C 
ATOM      6  C   UNL     1       1.585   4.209  18.056  0.00  0.00    +0.000 C 
ATOM      7  C   UNL     1       2.781   5.142  17.902  0.00  0.00    +0.000 C 
ATOM      8  C   UNL     1       2.161   6.438  18.476  0.00  0.00    +0.000 C 
ATOM      9  N   UNL     1       1.293   5.946  19.584  0.00  0.00    +0.000 NA
ENDROOT
BRANCH   2  10
ATOM     10  C   UNL     1       5.945   5.437  18.006  0.00  0.00    +0.000 A 
ATOM     11  C   UNL     1       6.775   6.434  18.354  0.00  0.00    +0.000 A 
ATOM     12  C   UNL     1       7.638   7.151  17.405  0.00  0.00    +0.000 A 
ATOM     13  O   UNL     1       8.241   8.159  17.753  0.00  0.00    +0.000 OA
ATOM     14  N   UNL     1       7.731   6.626  16.157  0.00  0.00    +0.000 N 
ATOM     15  C   UNL     1       6.995   5.516  15.741  0.00  0.00    +0.000 A 
ATOM     16  C   UNL     1       7.216   5.033  14.447  0.00  0.00    +0.000 A 
ATOM     17  C   UNL     1       6.495   3.936  13.989  0.00  0.00    +0.000 A 
ATOM     18  C   UNL     1       5.539   3.350  14.814  0.00  0.00    +0.000 A 
ATOM     19  C   UNL     1       5.316   3.843  16.108  0.00  0.00    +0.000 A 
ATOM     20  C   UNL     1       6.060   4.919  16.610  0.00  0.00    +0.000 A 
ATOM     21  H   UNL     1       8.360   7.101  15.524  0.00  0.00    +0.000 HD
ENDBRANCH   2  10
BRANCH   9  22
ATOM     22  C   UNL     1       1.645   6.556  20.878  0.00  0.00    +0.000 C 
BRANCH  22  23
ATOM     23  C   UNL     1       1.032   7.927  21.097  0.00  0.00    +0.000 A 
ATOM     24  C   UNL     1       0.203   8.178  22.197  0.00  0.00    +0.000 A 
ATOM     25  C   UNL     1      -0.354   9.444  22.389  0.00  0.00    +0.000 A 
ATOM     26  C   UNL     1      -0.091  10.472  21.483  0.00  0.00    +0.000 A 
ATOM     27  C   UNL     1       0.732  10.237  20.385  0.00  0.00    +0.000 A 
ATOM     28  C   UNL     1       1.293   8.973  20.194  0.00  0.00    +0.000 A 
ENDBRANCH  22  23
ENDBRANCH   9  22
TORSDOF 3
ENDMDL
MODEL 8
REMARK VINA RESULT:      -7.5      8.572     11.091
REMARK  Name = 
REMARK  3 active torsions:
REMARK  status: ('A' for Active; 'I' for Inactive)
REMARK    1  A    between atoms: C_2  and  C_3
REMARK    2  A    between atoms: N_20  and  C_21
REMARK    3  A    between atoms: C_21  and  C_22
REMARK                            x       y       z     vdW  Elec       q    Type
REMARK                         _______ _______ _______ _____ _____    ______ ____
ROOT
ATOM      1  O   UNL     1      -1.199  10.981  23.448  0.00  0.00    +0.000 OA
ATOM      2  C   UNL     1      -1.081  12.023  22.798  0.00  0.00    +0.000 C 
ATOM      3  N   UNL     1      -0.189  12.073  21.750  0.00  0.00    +0.000 N 
ATOM      4  C   UNL     1       0.547  10.870  21.352  0.00  0.00    +0.000 C 
ATOM      5  C   UNL     1       1.019  11.244  19.920  0.00  0.00    +0.000 C 
ATOM      6  C   UNL     1       1.449  12.689  20.183  0.00  0.00    +0.000 C 
ATOM      7  C   UNL     1       0.066  13.079  20.693  0.00  0.00    +0.000 C 
ATOM      8  C   UNL     1      -0.773  12.696  19.451  0.00  0.00    +0.000 C 
ATOM      9  N   UNL     1      -0.102  11.466  18.944  0.00  0.00    +0.000 NA
ENDROOT
BRANCH   2  10
ATOM     10  C   UNL     1      -1.893  13.234  23.192  0.00  0.00    +0.000 A 
ATOM     11  C   UNL     1      -1.356  14.148  24.017  0.00  0.00    +0.000 A 
ATOM     12  C   UNL     1      -2.058  15.359  24.467  0.00  0.00    +0.000 A 
ATOM     13  O   UNL     1      -1.581  16.062  25.350  0.00  0.00    +0.000 OA
ATOM     14  N   UNL     1      -3.229  15.645  23.844  0.00  0.00    +0.000 N 
ATOM     15  C   UNL     1      -3.805  14.812  22.884  0.00  0.00    +0.000 A 
ATOM     16  C   UNL     1      -4.987  15.238  22.272  0.00  0.00    +0.000 A 
ATOM     17  C   UNL     1      -5.600  14.432  21.319  0.00  0.00    +0.000 A 
ATOM     18  C   UNL     1      -5.044  13.195  21.007  0.00  0.00    +0.000 A 
ATOM     19  C   UNL     1      -3.862  12.768  21.629  0.00  0.00    +0.000 A 
ATOM     20  C   UNL     1      -3.200  13.580  22.561  0.00  0.00    +0.000 A 
ATOM     21  H   UNL     1      -3.683  16.502  24.129  0.00  0.00    +0.000 HD
ENDBRANCH   2  10
BRANCH   9  22
ATOM     22  C   UNL     1      -1.026  10.322  18.861  0.00  0.00    +0.000 C 
BRANCH  22  23
ATOM     23  C   UNL     1      -2.114  10.485  17.815  0.00  0.00    +0.000 A 
ATOM     24  C   UNL     1      -3.258  11.246  18.080  0.00  0.00    +0.000 A 
ATOM     25  C   UNL     1      -4.252  11.389  17.109  0.00  0.00    +0.000 A 
ATOM     26  C   UNL     1      -4.114  10.772  15.865  0.00  0.00    +0.000 A 
ATOM     27  C   UNL     1      -2.979  10.013  15.588  0.00  0.00    +0.000 A 
ATOM     28  C   UNL     1      -1.984   9.872  16.556  0.00  0.00    +0.000 A 
ENDBRANCH  22  23
ENDBRANCH   9  22
TORSDOF 3
ENDMDL
MODEL 9
REMARK VINA RESULT:      -7.4      7.938     11.344
REMARK  Name = 
REMARK  3 active torsions:
REMARK  status: ('A' for Active; 'I' for Inactive)
REMARK    1  A    between atoms: C_2  and  C_3
REMARK    2  A    between atoms: N_20  and  C_21
REMARK    3  A    between atoms: C_21  and  C_22
REMARK                            x       y       z     vdW  Elec       q    Type
REMARK                         _______ _______ _______ _____ _____    ______ ____
ROOT
ATOM      1  O   UNL     1      -0.688  13.760  23.830  0.00  0.00    +0.000 OA
ATOM      2  C   UNL     1      -1.516  13.756  22.915  0.00  0.00    +0.000 C 
ATOM      3  N   UNL     1      -1.087  13.648  21.611  0.00  0.00    +0.000 N 
ATOM      4  C   UNL     1       0.335  13.447  21.319  0.00  0.00    +0.000 C 
ATOM      5  C   UNL     1       0.289  12.915  19.860  0.00  0.00    +0.000 C 
ATOM      6  C   UNL     1      -0.766  13.869  19.295  0.00  0.00    +0.000 C 
ATOM      7  C   UNL     1      -1.801  13.444  20.330  0.00  0.00    +0.000 C 
ATOM      8  C   UNL     1      -1.840  11.926  20.034  0.00  0.00    +0.000 C 
ATOM      9  N   UNL     1      -0.422  11.600  19.708  0.00  0.00    +0.000 NA
ENDROOT
BRANCH   2  10
ATOM     10  C   UNL     1      -2.982  13.907  23.246  0.00  0.00    +0.000 A 
ATOM     11  C   UNL     1      -3.649  12.868  23.775  0.00  0.00    +0.000 A 
ATOM     12  C   UNL     1      -5.075  12.904  24.129  0.00  0.00    +0.000 A 
ATOM     13  O   UNL     1      -5.664  11.877  24.446  0.00  0.00    +0.000 OA
ATOM     14  N   UNL     1      -5.674  14.122  24.099  0.00  0.00    +0.000 N 
ATOM     15  C   UNL     1      -5.022  15.281  23.677  0.00  0.00    +0.000 A 
ATOM     16  C   UNL     1      -5.727  16.488  23.740  0.00  0.00    +0.000 A 
ATOM     17  C   UNL     1      -5.118  17.664  23.318  0.00  0.00    +0.000 A 
ATOM     18  C   UNL     1      -3.823  17.622  22.809  0.00  0.00    +0.000 A 
ATOM     19  C   UNL     1      -3.123  16.408  22.740  0.00  0.00    +0.000 A 
ATOM     20  C   UNL     1      -3.697  15.215  23.199  0.00  0.00    +0.000 A 
ATOM     21  H   UNL     1      -6.643  14.145  24.386  0.00  0.00    +0.000 HD
ENDBRANCH   2  10
BRANCH   9  22
ATOM     22  C   UNL     1       0.123  10.549  20.584  0.00  0.00    +0.000 C 
BRANCH  22  23
ATOM     23  C   UNL     1       0.930   9.494  19.850  0.00  0.00    +0.000 A 
ATOM     24  C   UNL     1       1.419   8.367  20.520  0.00  0.00    +0.000 A 
ATOM     25  C   UNL     1       2.160   7.402  19.833  0.00  0.00    +0.000 A 
ATOM     26  C   UNL     1       2.421   7.555  18.472  0.00  0.00    +0.000 A 
ATOM     27  C   UNL     1       1.940   8.672  17.793  0.00  0.00    +0.000 A 
ATOM     28  C   UNL     1       1.197   9.635  18.476  0.00  0.00    +0.000 A 
ENDBRANCH  22  23
ENDBRANCH   9  22
TORSDOF 3
ENDMDL
