MODEL 1
REMARK VINA RESULT:      -7.0      0.000      0.000
REMARK  Name = 
REMARK  7 active torsions:
REMARK  status: ('A' for Active; 'I' for Inactive)
REMARK    1  A    between atoms: C_1  and  C_2
REMARK    2  A    between atoms: C_3  and  O_4
REMARK    3  A    between atoms: O_4  and  C_5
REMARK    4  A    between atoms: C_8  and  C_9
REMARK    5  A    between atoms: N_11  and  C_12
REMARK    6  A    between atoms: C_12  and  C_13
REMARK    7  A    between atoms: N_15  and  O_16
REMARK                            x       y       z     vdW  Elec       q    Type
REMARK                         _______ _______ _______ _____ _____    ______ ____
ROOT
ATOM      1  C   UNL     1       4.727   3.559  18.756  0.00  0.00    +0.000 C 
ATOM      2  O   UNL     1       4.964   2.984  19.827  0.00  0.00    +0.000 OA
ATOM      3  N   UNL     1       3.735   3.105  17.908  0.00  0.00    +0.000 N 
ATOM      4  H   UNL     1       3.493   3.597  17.057  0.00  0.00    +0.000 HD
ENDROOT
BRANCH   1   8
ATOM      5  C   UNL     1       6.943   7.095  17.448  0.00  0.00    +0.000 A 
ATOM      6  C   UNL     1       5.607   6.882  17.079  0.00  0.00    +0.000 A 
ATOM      7  C   UNL     1       4.883   5.775  17.571  0.00  0.00    +0.000 A 
ATOM      8  C   UNL     1       5.500   4.803  18.376  0.00  0.00    +0.000 A 
ATOM      9  C   UNL     1       6.833   5.028  18.750  0.00  0.00    +0.000 A 
ATOM     10  C   UNL     1       7.547   6.157  18.287  0.00  0.00    +0.000 A 
BRANCH   5  11
ATOM     11  O   UNL     1       7.555   8.238  16.972  0.00  0.00    +0.000 OA
BRANCH  11  14
ATOM     12  C   UNL     1       9.566  10.535  19.807  0.00  0.00    +0.000 C 
ATOM     13  C   UNL     1       8.821   9.718  18.764  0.00  0.00    +0.000 C 
ATOM     14  C   UNL     1       8.182   9.016  17.871  0.00  0.00    +0.000 C 
ENDBRANCH  11  14
ENDBRANCH   5  11
ENDBRANCH   1   8
BRANCH   3  15
ATOM     15  C   UNL     1       2.910   1.936  18.214  0.00  0.00    +0.000 C 
BRANCH  15  16
ATOM     16  C   UNL     1       1.584   2.338  18.870  0.00  0.00    +0.000 C 
ATOM     17  O   UNL     1       0.487   2.089  18.373  0.00  0.00    +0.000 OA
ATOM     18  N   UNL     1       1.703   3.008  20.067  0.00  0.00    +0.000 N 
ATOM     19  H   UNL     1       2.573   3.241  20.535  0.00  0.00    +0.000 HD
BRANCH  18  20
ATOM     20  O   UNL     1       0.509   3.404  20.712  0.00  0.00    +0.000 OA
ATOM     21  H   UNL     1       0.330   4.288  20.326  0.00  0.00    +0.000 HD
ENDBRANCH  18  20
ENDBRANCH  15  16
ENDBRANCH   3  15
TORSDOF 6
ENDMDL
MODEL 2
REMARK VINA RESULT:      -7.0      4.615      6.862
REMARK  Name = 
REMARK  7 active torsions:
REMARK  status: ('A' for Active; 'I' for Inactive)
REMARK    1  A    between atoms: C_1  and  C_2
REMARK    2  A    between atoms: C_3  and  O_4
REMARK    3  A    between atoms: O_4  and  C_5
REMARK    4  A    between atoms: C_8  and  C_9
REMARK    5  A    between atoms: N_11  and  C_12
REMARK    6  A    between atoms: C_12  and  C_13
REMARK    7  A    between atoms: N_15  and  O_16
REMARK                            x       y       z     vdW  Elec       q    Type
REMARK                         _______ _______ _______ _____ _____    ______ ____
ROOT
ATOM      1  C   UNL     1       6.307   4.814  14.656  0.00  0.00    +0.000 C 
ATOM      2  O   UNL     1       7.451   5.281  14.574  0.00  0.00    +0.000 OA
ATOM      3  N   UNL     1       5.767   4.065  13.628  0.00  0.00    +0.000 N 
ATOM      4  H   UNL     1       4.856   3.632  13.704  0.00  0.00    +0.000 HD
ENDROOT
BRANCH   1   8
ATOM      5  C   UNL     1       4.113   5.538  18.369  0.00  0.00    +0.000 A 
ATOM      6  C   UNL     1       4.481   6.586  17.512  0.00  0.00    +0.000 A 
ATOM      7  C   UNL     1       5.122   6.328  16.281  0.00  0.00    +0.000 A 
ATOM      8  C   UNL     1       5.491   5.024  15.913  0.00  0.00    +0.000 A 
ATOM      9  C   UNL     1       5.109   3.980  16.769  0.00  0.00    +0.000 A 
ATOM     10  C   UNL     1       4.434   4.236  17.985  0.00  0.00    +0.000 A 
BRANCH   5  11
ATOM     11  O   UNL     1       3.432   5.876  19.522  0.00  0.00    +0.000 OA
BRANCH  11  14
ATOM     12  C   UNL     1       1.519   2.861  21.670  0.00  0.00    +0.000 C 
ATOM     13  C   UNL     1       2.210   3.950  20.865  0.00  0.00    +0.000 C 
ATOM     14  C   UNL     1       2.804   4.883  20.175  0.00  0.00    +0.000 C 
ENDBRANCH  11  14
ENDBRANCH   5  11
ENDBRANCH   1   8
BRANCH   3  15
ATOM     15  C   UNL     1       6.500   3.777  12.394  0.00  0.00    +0.000 C 
BRANCH  15  16
ATOM     16  C   UNL     1       5.953   2.528  11.693  0.00  0.00    +0.000 C 
ATOM     17  O   UNL     1       4.779   2.416  11.342  0.00  0.00    +0.000 OA
ATOM     18  N   UNL     1       6.873   1.525  11.482  0.00  0.00    +0.000 N 
ATOM     19  H   UNL     1       7.854   1.553  11.740  0.00  0.00    +0.000 HD
BRANCH  18  20
ATOM     20  O   UNL     1       6.418   0.351  10.841  0.00  0.00    +0.000 OA
ATOM     21  H   UNL     1       6.269   0.645   9.917  0.00  0.00    +0.000 HD
ENDBRANCH  18  20
ENDBRANCH  15  16
ENDBRANCH   3  15
TORSDOF 6
ENDMDL
MODEL 3
REMARK VINA RESULT:      -7.0      1.291      1.539
REMARK  Name = 
REMARK  7 active torsions:
REMARK  status: ('A' for Active; 'I' for Inactive)
REMARK    1  A    between atoms: C_1  and  C_2
REMARK    2  A    between atoms: C_3  and  O_4
REMARK    3  A    between atoms: O_4  and  C_5
REMARK    4  A    between atoms: C_8  and  C_9
REMARK    5  A    between atoms: N_11  and  C_12
REMARK    6  A    between atoms: C_12  and  C_13
REMARK    7  A    between atoms: N_15  and  O_16
REMARK                            x       y       z     vdW  Elec       q    Type
REMARK                         _______ _______ _______ _____ _____    ______ ____
ROOT
ATOM      1  C   UNL     1       4.783   3.930  18.634  0.00  0.00    +0.000 C 
ATOM      2  O   UNL     1       4.027   3.477  17.764  0.00  0.00    +0.000 OA
ATOM      3  N   UNL     1       4.880   3.332  19.876  0.00  0.00    +0.000 N 
ATOM      4  H   UNL     1       5.533   3.658  20.576  0.00  0.00    +0.000 HD
ENDROOT
BRANCH   1   8
ATOM      5  C   UNL     1       7.288   7.349  17.557  0.00  0.00    +0.000 A 
ATOM      6  C   UNL     1       5.985   7.202  17.059  0.00  0.00    +0.000 A 
ATOM      7  C   UNL     1       5.163   6.133  17.476  0.00  0.00    +0.000 A 
ATOM      8  C   UNL     1       5.650   5.134  18.334  0.00  0.00    +0.000 A 
ATOM      9  C   UNL     1       6.950   5.293  18.837  0.00  0.00    +0.000 A 
ATOM     10  C   UNL     1       7.761   6.384  18.448  0.00  0.00    +0.000 A 
BRANCH   5  11
ATOM     11  O   UNL     1       7.999   8.460  17.145  0.00  0.00    +0.000 OA
BRANCH  11  14
ATOM     12  C   UNL     1       9.526  10.891  20.165  0.00  0.00    +0.000 C 
ATOM     13  C   UNL     1       8.955  10.023  19.055  0.00  0.00    +0.000 C 
ATOM     14  C   UNL     1       8.465   9.278  18.105  0.00  0.00    +0.000 C 
ENDBRANCH  11  14
ENDBRANCH   5  11
ENDBRANCH   1   8
BRANCH   3  15
ATOM     15  C   UNL     1       4.111   2.141  20.238  0.00  0.00    +0.000 C 
BRANCH  15  16
ATOM     16  C   UNL     1       2.771   2.511  20.885  0.00  0.00    +0.000 C 
ATOM     17  O   UNL     1       2.609   2.575  22.103  0.00  0.00    +0.000 OA
ATOM     18  N   UNL     1       1.746   2.766  20.002  0.00  0.00    +0.000 N 
ATOM     19  H   UNL     1       1.810   2.736  18.990  0.00  0.00    +0.000 HD
BRANCH  18  20
ATOM     20  O   UNL     1       0.488   3.110  20.548  0.00  0.00    +0.000 OA
ATOM     21  H   UNL     1       0.672   3.950  21.019  0.00  0.00    +0.000 HD
ENDBRANCH  18  20
ENDBRANCH  15  16
ENDBRANCH   3  15
TORSDOF 6
ENDMDL
MODEL 4
REMARK VINA RESULT:      -6.9      4.666      6.823
REMARK  Name = 
REMARK  7 active torsions:
REMARK  status: ('A' for Active; 'I' for Inactive)
REMARK    1  A    between atoms: C_1  and  C_2
REMARK    2  A    between atoms: C_3  and  O_4
REMARK    3  A    between atoms: O_4  and  C_5
REMARK    4  A    between atoms: C_8  and  C_9
REMARK    5  A    between atoms: N_11  and  C_12
REMARK    6  A    between atoms: C_12  and  C_13
REMARK    7  A    between atoms: N_15  and  O_16
REMARK                            x       y       z     vdW  Elec       q    Type
REMARK                         _______ _______ _______ _____ _____    ______ ____
ROOT
ATOM      1  C   UNL     1       6.917   4.875  14.345  0.00  0.00    +0.000 C 
ATOM      2  O   UNL     1       7.962   5.435  13.989  0.00  0.00    +0.000 OA
ATOM      3  N   UNL     1       6.252   4.004  13.503  0.00  0.00    +0.000 N 
ATOM      4  H   UNL     1       5.428   3.497  13.801  0.00  0.00    +0.000 HD
ENDROOT
BRANCH   1   8
ATOM      5  C   UNL     1       5.336   5.331  18.397  0.00  0.00    +0.000 A 
ATOM      6  C   UNL     1       6.614   4.805  18.157  0.00  0.00    +0.000 A 
ATOM      7  C   UNL     1       7.139   4.735  16.848  0.00  0.00    +0.000 A 
ATOM      8  C   UNL     1       6.368   5.107  15.736  0.00  0.00    +0.000 A 
ATOM      9  C   UNL     1       5.095   5.643  15.984  0.00  0.00    +0.000 A 
ATOM     10  C   UNL     1       4.584   5.748  17.298  0.00  0.00    +0.000 A 
BRANCH   5  11
ATOM     11  O   UNL     1       4.928   5.422  19.714  0.00  0.00    +0.000 OA
BRANCH  11  14
ATOM     12  C   UNL     1       1.030   4.148  20.452  0.00  0.00    +0.000 C 
ATOM     13  C   UNL     1       2.453   4.623  20.205  0.00  0.00    +0.000 C 
ATOM     14  C   UNL     1       3.673   5.031  19.993  0.00  0.00    +0.000 C 
ENDBRANCH  11  14
ENDBRANCH   5  11
ENDBRANCH   1   8
BRANCH   3  15
ATOM     15  C   UNL     1       6.733   3.688  12.157  0.00  0.00    +0.000 C 
BRANCH  15  16
ATOM     16  C   UNL     1       6.068   2.422  11.604  0.00  0.00    +0.000 C 
ATOM     17  O   UNL     1       4.863   2.345  11.370  0.00  0.00    +0.000 OA
ATOM     18  N   UNL     1       6.918   1.361  11.388  0.00  0.00    +0.000 N 
ATOM     19  H   UNL     1       7.920   1.357  11.554  0.00  0.00    +0.000 HD
BRANCH  18  20
ATOM     20  O   UNL     1       6.355   0.169  10.880  0.00  0.00    +0.000 OA
ATOM     21  H   UNL     1       6.922  -0.034  10.106  0.00  0.00    +0.000 HD
ENDBRANCH  18  20
ENDBRANCH  15  16
ENDBRANCH   3  15
TORSDOF 6
ENDMDL
MODEL 5
REMARK VINA RESULT:      -6.9      0.746      1.394
REMARK  Name = 
REMARK  7 active torsions:
REMARK  status: ('A' for Active; 'I' for Inactive)
REMARK    1  A    between atoms: C_1  and  C_2
REMARK    2  A    between atoms: C_3  and  O_4
REMARK    3  A    between atoms: O_4  and  C_5
REMARK    4  A    between atoms: C_8  and  C_9
REMARK    5  A    between atoms: N_11  and  C_12
REMARK    6  A    between atoms: C_12  and  C_13
REMARK    7  A    between atoms: N_15  and  O_16
REMARK                            x       y       z     vdW  Elec       q    Type
REMARK                         _______ _______ _______ _____ _____    ______ ____
ROOT
ATOM      1  C   UNL     1       4.854   3.674  18.880  0.00  0.00    +0.000 C 
ATOM      2  O   UNL     1       5.305   3.086  19.872  0.00  0.00    +0.000 OA
ATOM      3  N   UNL     1       3.658   3.289  18.305  0.00  0.00    +0.000 N 
ATOM      4  H   UNL     1       3.251   3.795  17.528  0.00  0.00    +0.000 HD
ENDROOT
BRANCH   1   8
ATOM      5  C   UNL     1       7.006   7.185  17.408  0.00  0.00    +0.000 A 
ATOM      6  C   UNL     1       7.596   6.277  18.299  0.00  0.00    +0.000 A 
ATOM      7  C   UNL     1       6.915   5.109  18.705  0.00  0.00    +0.000 A 
ATOM      8  C   UNL     1       5.593   4.861  18.301  0.00  0.00    +0.000 A 
ATOM      9  C   UNL     1       5.014   5.767  17.400  0.00  0.00    +0.000 A 
ATOM     10  C   UNL     1       5.710   6.918  16.965  0.00  0.00    +0.000 A 
BRANCH   5  11
ATOM     11  O   UNL     1       7.768   8.268  17.013  0.00  0.00    +0.000 OA
BRANCH  11  14
ATOM     12  C   UNL     1       9.425  10.624  20.023  0.00  0.00    +0.000 C 
ATOM     13  C   UNL     1       8.841   9.750  18.926  0.00  0.00    +0.000 C 
ATOM     14  C   UNL     1       8.340   9.000  17.985  0.00  0.00    +0.000 C 
ENDBRANCH  11  14
ENDBRANCH   5  11
ENDBRANCH   1   8
BRANCH   3  15
ATOM     15  C   UNL     1       2.856   2.180  18.823  0.00  0.00    +0.000 C 
BRANCH  15  16
ATOM     16  C   UNL     1       1.944   2.632  19.970  0.00  0.00    +0.000 C 
ATOM     17  O   UNL     1       0.806   3.065  19.793  0.00  0.00    +0.000 OA
ATOM     18  N   UNL     1       2.492   2.526  21.229  0.00  0.00    +0.000 N 
ATOM     19  H   UNL     1       3.419   2.175  21.448  0.00  0.00    +0.000 HD
BRANCH  18  20
ATOM     20  O   UNL     1       1.694   2.932  22.322  0.00  0.00    +0.000 OA
ATOM     21  H   UNL     1       2.034   3.829  22.525  0.00  0.00    +0.000 HD
ENDBRANCH  18  20
ENDBRANCH  15  16
ENDBRANCH   3  15
TORSDOF 6
ENDMDL
MODEL 6
REMARK VINA RESULT:      -6.8      4.482      6.912
REMARK  Name = 
REMARK  7 active torsions:
REMARK  status: ('A' for Active; 'I' for Inactive)
REMARK    1  A    between atoms: C_1  and  C_2
REMARK    2  A    between atoms: C_3  and  O_4
REMARK    3  A    between atoms: O_4  and  C_5
REMARK    4  A    between atoms: C_8  and  C_9
REMARK    5  A    between atoms: N_11  and  C_12
REMARK    6  A    between atoms: C_12  and  C_13
REMARK    7  A    between atoms: N_15  and  O_16
REMARK                            x       y       z     vdW  Elec       q    Type
REMARK                         _______ _______ _______ _____ _____    ______ ____
ROOT
ATOM      1  C   UNL     1       6.238   4.814  15.174  0.00  0.00    +0.000 C 
ATOM      2  O   UNL     1       7.450   4.782  15.426  0.00  0.00    +0.000 OA
ATOM      3  N   UNL     1       5.762   4.485  13.920  0.00  0.00    +0.000 N 
ATOM      4  H   UNL     1       4.771   4.453  13.716  0.00  0.00    +0.000 HD
ENDROOT
BRANCH   1   8
ATOM      5  C   UNL     1       3.218   5.779  18.186  0.00  0.00    +0.000 A 
ATOM      6  C   UNL     1       3.493   4.456  17.814  0.00  0.00    +0.000 A 
ATOM      7  C   UNL     1       4.523   4.156  16.896  0.00  0.00    +0.000 A 
ATOM      8  C   UNL     1       5.248   5.177  16.259  0.00  0.00    +0.000 A 
ATOM      9  C   UNL     1       4.974   6.498  16.645  0.00  0.00    +0.000 A 
ATOM     10  C   UNL     1       3.968   6.795  17.591  0.00  0.00    +0.000 A 
BRANCH   5  11
ATOM     11  O   UNL     1       2.236   5.976  19.138  0.00  0.00    +0.000 OA
BRANCH  11  14
ATOM     12  C   UNL     1       1.398   2.746  21.632  0.00  0.00    +0.000 C 
ATOM     13  C   UNL     1       1.681   3.921  20.712  0.00  0.00    +0.000 C 
ATOM     14  C   UNL     1       1.925   4.929  19.922  0.00  0.00    +0.000 C 
ENDBRANCH  11  14
ENDBRANCH   5  11
ENDBRANCH   1   8
BRANCH   3  15
ATOM     15  C   UNL     1       6.643   4.082  12.823  0.00  0.00    +0.000 C 
BRANCH  15  16
ATOM     16  C   UNL     1       6.040   2.931  12.009  0.00  0.00    +0.000 C 
ATOM     17  O   UNL     1       4.846   2.871  11.715  0.00  0.00    +0.000 OA
ATOM     18  N   UNL     1       6.931   1.954  11.628  0.00  0.00    +0.000 N 
ATOM     19  H   UNL     1       7.925   1.943  11.831  0.00  0.00    +0.000 HD
BRANCH  18  20
ATOM     20  O   UNL     1       6.425   0.869  10.877  0.00  0.00    +0.000 OA
ATOM     21  H   UNL     1       6.964   0.895  10.057  0.00  0.00    +0.000 HD
ENDBRANCH  18  20
ENDBRANCH  15  16
ENDBRANCH   3  15
TORSDOF 6
ENDMDL
MODEL 7
REMARK VINA RESULT:      -6.7      1.036      1.383
REMARK  Name = 
REMARK  7 active torsions:
REMARK  status: ('A' for Active; 'I' for Inactive)
REMARK    1  A    between atoms: C_1  and  C_2
REMARK    2  A    between atoms: C_3  and  O_4
REMARK    3  A    between atoms: O_4  and  C_5
REMARK    4  A    between atoms: C_8  and  C_9
REMARK    5  A    between atoms: N_11  and  C_12
REMARK    6  A    between atoms: C_12  and  C_13
REMARK    7  A    between atoms: N_15  and  O_16
REMARK                            x       y       z     vdW  Elec       q    Type
REMARK                         _______ _______ _______ _____ _____    ______ ____
ROOT
ATOM      1  C   UNL     1       4.431   3.781  18.937  0.00  0.00    +0.000 C 
ATOM      2  O   UNL     1       4.306   2.796  18.196  0.00  0.00    +0.000 OA
ATOM      3  N   UNL     1       3.794   3.836  20.162  0.00  0.00    +0.000 N 
ATOM      4  H   UNL     1       3.931   4.609  20.801  0.00  0.00    +0.000 HD
ENDROOT
BRANCH   1   8
ATOM      5  C   UNL     1       7.006   7.029  17.543  0.00  0.00    +0.000 A 
ATOM      6  C   UNL     1       5.690   6.879  17.081  0.00  0.00    +0.000 A 
ATOM      7  C   UNL     1       4.848   5.871  17.597  0.00  0.00    +0.000 A 
ATOM      8  C   UNL     1       5.324   4.931  18.525  0.00  0.00    +0.000 A 
ATOM      9  C   UNL     1       6.637   5.094  18.992  0.00  0.00    +0.000 A 
ATOM     10  C   UNL     1       7.469   6.126  18.502  0.00  0.00    +0.000 A 
BRANCH   5  11
ATOM     11  O   UNL     1       7.739   8.082  17.031  0.00  0.00    +0.000 OA
BRANCH  11  14
ATOM     12  C   UNL     1       9.510  10.782  19.663  0.00  0.00    +0.000 C 
ATOM     13  C   UNL     1       8.857   9.783  18.722  0.00  0.00    +0.000 C 
ATOM     14  C   UNL     1       8.298   8.926  17.915  0.00  0.00    +0.000 C 
ENDBRANCH  11  14
ENDBRANCH   5  11
ENDBRANCH   1   8
BRANCH   3  15
ATOM     15  C   UNL     1       2.945   2.753  20.659  0.00  0.00    +0.000 C 
BRANCH  15  16
ATOM     16  C   UNL     1       1.581   2.740  19.961  0.00  0.00    +0.000 C 
ATOM     17  O   UNL     1       0.660   3.494  20.273  0.00  0.00    +0.000 OA
ATOM     18  N   UNL     1       1.449   1.815  18.950  0.00  0.00    +0.000 N 
ATOM     19  H   UNL     1       2.166   1.168  18.638  0.00  0.00    +0.000 HD
BRANCH  18  20
ATOM     20  O   UNL     1       0.208   1.761  18.275  0.00  0.00    +0.000 OA
ATOM     21  H   UNL     1       0.022   0.799  18.228  0.00  0.00    +0.000 HD
ENDBRANCH  18  20
ENDBRANCH  15  16
ENDBRANCH   3  15
TORSDOF 6
ENDMDL
MODEL 8
REMARK VINA RESULT:      -6.7      4.746      7.058
REMARK  Name = 
REMARK  7 active torsions:
REMARK  status: ('A' for Active; 'I' for Inactive)
REMARK    1  A    between atoms: C_1  and  C_2
REMARK    2  A    between atoms: C_3  and  O_4
REMARK    3  A    between atoms: O_4  and  C_5
REMARK    4  A    between atoms: C_8  and  C_9
REMARK    5  A    between atoms: N_11  and  C_12
REMARK    6  A    between atoms: C_12  and  C_13
REMARK    7  A    between atoms: N_15  and  O_16
REMARK                            x       y       z     vdW  Elec       q    Type
REMARK                         _______ _______ _______ _____ _____    ______ ____
ROOT
ATOM      1  C   UNL     1       6.662   4.441  14.182  0.00  0.00    +0.000 C 
ATOM      2  O   UNL     1       7.391   5.358  13.779  0.00  0.00    +0.000 OA
ATOM      3  N   UNL     1       6.196   3.470  13.317  0.00  0.00    +0.000 N 
ATOM      4  H   UNL     1       5.645   2.685  13.642  0.00  0.00    +0.000 HD
ENDROOT
BRANCH   1   8
ATOM      5  C   UNL     1       5.468   4.328  18.387  0.00  0.00    +0.000 A 
ATOM      6  C   UNL     1       4.577   3.994  17.357  0.00  0.00    +0.000 A 
ATOM      7  C   UNL     1       5.000   3.962  16.010  0.00  0.00    +0.000 A 
ATOM      8  C   UNL     1       6.300   4.348  15.648  0.00  0.00    +0.000 A 
ATOM      9  C   UNL     1       7.190   4.670  16.685  0.00  0.00    +0.000 A 
ATOM     10  C   UNL     1       6.776   4.665  18.036  0.00  0.00    +0.000 A 
BRANCH   5  11
ATOM     11  O   UNL     1       4.987   4.270  19.681  0.00  0.00    +0.000 OA
BRANCH  11  14
ATOM     12  C   UNL     1       0.871   3.903  20.212  0.00  0.00    +0.000 C 
ATOM     13  C   UNL     1       2.373   4.014  20.008  0.00  0.00    +0.000 C 
ATOM     14  C   UNL     1       3.662   4.109  19.834  0.00  0.00    +0.000 C 
ENDBRANCH  11  14
ENDBRANCH   5  11
ENDBRANCH   1   8
BRANCH   3  15
ATOM     15  C   UNL     1       6.529   3.458  11.892  0.00  0.00    +0.000 C 
BRANCH  15  16
ATOM     16  C   UNL     1       6.889   2.048  11.409  0.00  0.00    +0.000 C 
ATOM     17  O   UNL     1       7.964   1.776  10.875  0.00  0.00    +0.000 OA
ATOM     18  N   UNL     1       5.918   1.094  11.611  0.00  0.00    +0.000 N 
ATOM     19  H   UNL     1       5.014   1.248  12.048  0.00  0.00    +0.000 HD
BRANCH  18  20
ATOM     20  O   UNL     1       6.199  -0.222  11.182  0.00  0.00    +0.000 OA
ATOM     21  H   UNL     1       6.147  -0.743  12.011  0.00  0.00    +0.000 HD
ENDBRANCH  18  20
ENDBRANCH  15  16
ENDBRANCH   3  15
TORSDOF 6
ENDMDL
MODEL 9
REMARK VINA RESULT:      -6.6      4.391      6.692
REMARK  Name = 
REMARK  7 active torsions:
REMARK  status: ('A' for Active; 'I' for Inactive)
REMARK    1  A    between atoms: C_1  and  C_2
REMARK    2  A    between atoms: C_3  and  O_4
REMARK    3  A    between atoms: O_4  and  C_5
REMARK    4  A    between atoms: C_8  and  C_9
REMARK    5  A    between atoms: N_11  and  C_12
REMARK    6  A    between atoms: C_12  and  C_13
REMARK    7  A    between atoms: N_15  and  O_16
REMARK                            x       y       z     vdW  Elec       q    Type
REMARK                         _______ _______ _______ _____ _____    ______ ____
ROOT
ATOM      1  C   UNL     1       6.077   4.664  15.167  0.00  0.00    +0.000 C 
ATOM      2  O   UNL     1       7.308   4.753  15.274  0.00  0.00    +0.000 OA
ATOM      3  N   UNL     1       5.498   4.127  14.034  0.00  0.00    +0.000 N 
ATOM      4  H   UNL     1       4.497   3.997  13.956  0.00  0.00    +0.000 HD
ENDROOT
BRANCH   1   8
ATOM      5  C   UNL     1       3.328   5.841  18.358  0.00  0.00    +0.000 A 
ATOM      6  C   UNL     1       3.642   4.497  18.112  0.00  0.00    +0.000 A 
ATOM      7  C   UNL     1       4.589   4.138  17.128  0.00  0.00    +0.000 A 
ATOM      8  C   UNL     1       5.183   5.108  16.304  0.00  0.00    +0.000 A 
ATOM      9  C   UNL     1       4.873   6.452  16.563  0.00  0.00    +0.000 A 
ATOM     10  C   UNL     1       3.952   6.812  17.573  0.00  0.00    +0.000 A 
BRANCH   5  11
ATOM     11  O   UNL     1       2.439   6.105  19.382  0.00  0.00    +0.000 OA
BRANCH  11  14
ATOM     12  C   UNL     1       1.421   2.817  21.730  0.00  0.00    +0.000 C 
ATOM     13  C   UNL     1       1.780   4.032  20.889  0.00  0.00    +0.000 C 
ATOM     14  C   UNL     1       2.087   5.073  20.167  0.00  0.00    +0.000 C 
ENDBRANCH  11  14
ENDBRANCH   5  11
ENDBRANCH   1   8
BRANCH   3  15
ATOM     15  C   UNL     1       6.286   3.635  12.903  0.00  0.00    +0.000 C 
BRANCH  15  16
ATOM     16  C   UNL     1       5.406   2.916  11.874  0.00  0.00    +0.000 C 
ATOM     17  O   UNL     1       5.712   1.838  11.365  0.00  0.00    +0.000 OA
ATOM     18  N   UNL     1       4.238   3.567  11.546  0.00  0.00    +0.000 N 
ATOM     19  H   UNL     1       3.923   4.453  11.929  0.00  0.00    +0.000 HD
BRANCH  18  20
ATOM     20  O   UNL     1       3.392   2.948  10.599  0.00  0.00    +0.000 OA
ATOM     21  H   UNL     1       3.033   2.178  11.090  0.00  0.00    +0.000 HD
ENDBRANCH  18  20
ENDBRANCH  15  16
ENDBRANCH   3  15
TORSDOF 6
ENDMDL
