MODEL 1
REMARK VINA RESULT:      -8.2      0.000      0.000
REMARK  Name = 
REMARK  8 active torsions:
REMARK  status: ('A' for Active; 'I' for Inactive)
REMARK    1  A    between atoms: C_1  and  C_2
REMARK    2  A    between atoms: C_7  and  N_8
REMARK    3  A    between atoms: N_8  and  C_9
REMARK    4  A    between atoms: C_9  and  N_11
REMARK    5  A    between atoms: C_17  and  N_18
REMARK    6  A    between atoms: C_19  and  C_21
REMARK    7  A    between atoms: C_26  and  C_27
REMARK    8  A    between atoms: C_28  and  C_29
REMARK                            x       y       z     vdW  Elec       q    Type
REMARK                         _______ _______ _______ _____ _____    ______ ____
ROOT
ATOM      1  N   UNL     1       2.565   6.503  19.212  0.00  0.00    +0.000 N 
ATOM      2  C   UNL     1       1.964   7.151  18.022  0.00  0.00    +0.000 C 
ATOM      3  C   UNL     1       1.957   8.685  18.101  0.00  0.00    +0.000 C 
ATOM      4  C   UNL     1       1.533   9.167  19.457  0.00  0.00    +0.000 A 
ATOM      5  C   UNL     1       1.542   8.304  20.535  0.00  0.00    +0.000 A 
ATOM      6  S   UNL     1       1.064   9.094  21.965  0.00  0.00    +0.000 S 
ATOM      7  C   UNL     1       0.673  10.535  21.123  0.00  0.00    +0.000 A 
ATOM      8  C   UNL     1       1.096  10.512  19.800  0.00  0.00    +0.000 A 
ATOM      9  C   UNL     1       1.881   6.838  20.484  0.00  0.00    +0.000 C 
ENDROOT
BRANCH   8  10
ATOM     10  C   UNL     1       1.202  11.632  18.857  0.00  0.00    +0.000 C 
ATOM     11  N   UNL     1       0.091  12.004  18.172  0.00  0.00    +0.000 N 
ATOM     12  O   UNL     1       2.262  12.214  18.640  0.00  0.00    +0.000 OA
ATOM     13  H   UNL     1      -0.636  11.305  18.037  0.00  0.00    +0.000 HD
ATOM     14  H   UNL     1       0.247  12.638  17.404  0.00  0.00    +0.000 HD
ENDBRANCH   8  10
BRANCH   7  15
ATOM     15  N   UNL     1       0.046  11.464  21.947  0.00  0.00    +0.000 N 
ATOM     16  C   UNL     1      -1.218  11.939  21.627  0.00  0.00    +0.000 C 
ATOM     17  O   UNL     1      -1.816  11.683  20.584  0.00  0.00    +0.000 OA
ATOM     18  H   UNL     1       0.235  11.363  22.936  0.00  0.00    +0.000 HD
BRANCH  16  19
ATOM     19  C   UNL     1      -1.928  12.752  22.669  0.00  0.00    +0.000 A 
ATOM     20  C   UNL     1      -3.088  12.183  23.225  0.00  0.00    +0.000 A 
ATOM     21  C   UNL     1      -3.827  12.858  24.204  0.00  0.00    +0.000 A 
ATOM     22  C   UNL     1      -3.402  14.106  24.644  0.00  0.00    +0.000 A 
ATOM     23  C   UNL     1      -2.277  14.691  24.080  0.00  0.00    +0.000 A 
ATOM     24  C   UNL     1      -1.540  14.051  23.059  0.00  0.00    +0.000 A 
ATOM     25  C   UNL     1      -0.408  14.811  22.436  0.00  0.00    +0.000 C 
ENDBRANCH  16  19
ENDBRANCH   7  15
BRANCH   1  26
ATOM     26  C   UNL     1       3.028   5.162  19.107  0.00  0.00    +0.000 C 
ATOM     27  S   UNL     1       2.366   3.883  19.981  0.00  0.00    +0.000 S 
BRANCH  26  28
ATOM     28  N   UNL     1       4.022   5.037  18.127  0.00  0.00    +0.000 N 
ATOM     29  H   UNL     1       3.856   4.265  17.493  0.00  0.00    +0.000 HD
BRANCH  28  36
ATOM     30  C   UNL     1       5.058   6.798  15.928  0.00  0.00    +0.000 C 
ATOM     31  C   UNL     1       5.833   6.429  17.164  0.00  0.00    +0.000 A 
ATOM     32  C   UNL     1       7.123   6.986  17.304  0.00  0.00    +0.000 A 
ATOM     33  C   UNL     1       7.931   6.676  18.394  0.00  0.00    +0.000 A 
ATOM     34  C   UNL     1       7.459   5.811  19.370  0.00  0.00    +0.000 A 
ATOM     35  C   UNL     1       6.176   5.267  19.259  0.00  0.00    +0.000 A 
ATOM     36  C   UNL     1       5.346   5.557  18.165  0.00  0.00    +0.000 A 
ENDBRANCH  28  36
ENDBRANCH  26  28
ENDBRANCH   1  26
TORSDOF 6
ENDMDL
MODEL 2
REMARK VINA RESULT:      -7.8      2.252      3.812
REMARK  Name = 
REMARK  8 active torsions:
REMARK  status: ('A' for Active; 'I' for Inactive)
REMARK    1  A    between atoms: C_1  and  C_2
REMARK    2  A    between atoms: C_7  and  N_8
REMARK    3  A    between atoms: N_8  and  C_9
REMARK    4  A    between atoms: C_9  and  N_11
REMARK    5  A    between atoms: C_17  and  N_18
REMARK    6  A    between atoms: C_19  and  C_21
REMARK    7  A    between atoms: C_26  and  C_27
REMARK    8  A    between atoms: C_28  and  C_29
REMARK                            x       y       z     vdW  Elec       q    Type
REMARK                         _______ _______ _______ _____ _____    ______ ____
ROOT
ATOM      1  N   UNL     1       2.899   4.829  18.794  0.00  0.00    +0.000 N 
ATOM      2  C   UNL     1       2.941   4.950  20.272  0.00  0.00    +0.000 C 
ATOM      3  C   UNL     1       1.889   5.918  20.834  0.00  0.00    +0.000 C 
ATOM      4  C   UNL     1       1.809   7.179  20.024  0.00  0.00    +0.000 A 
ATOM      5  C   UNL     1       2.349   7.224  18.754  0.00  0.00    +0.000 A 
ATOM      6  S   UNL     1       2.093   8.740  18.025  0.00  0.00    +0.000 S 
ATOM      7  C   UNL     1       1.423   9.396  19.459  0.00  0.00    +0.000 A 
ATOM      8  C   UNL     1       1.188   8.430  20.430  0.00  0.00    +0.000 A 
ATOM      9  C   UNL     1       3.112   6.112  18.084  0.00  0.00    +0.000 C 
ENDROOT
BRANCH   8  10
ATOM     10  C   UNL     1       0.382   8.542  21.651  0.00  0.00    +0.000 C 
ATOM     11  N   UNL     1       0.916   9.188  22.719  0.00  0.00    +0.000 N 
ATOM     12  O   UNL     1      -0.736   8.041  21.754  0.00  0.00    +0.000 OA
ATOM     13  H   UNL     1       1.931   9.231  22.784  0.00  0.00    +0.000 HD
ATOM     14  H   UNL     1       0.419   9.076  23.588  0.00  0.00    +0.000 HD
ENDBRANCH   8  10
BRANCH   7  15
ATOM     15  N   UNL     1       1.205  10.766  19.353  0.00  0.00    +0.000 N 
ATOM     16  C   UNL     1      -0.081  11.258  19.185  0.00  0.00    +0.000 C 
ATOM     17  O   UNL     1      -1.077  10.559  19.008  0.00  0.00    +0.000 OA
ATOM     18  H   UNL     1       1.824  11.346  19.904  0.00  0.00    +0.000 HD
BRANCH  16  19
ATOM     19  C   UNL     1      -0.269  12.740  19.310  0.00  0.00    +0.000 A 
ATOM     20  C   UNL     1       0.572  13.548  18.524  0.00  0.00    +0.000 A 
ATOM     21  C   UNL     1       0.481  14.944  18.566  0.00  0.00    +0.000 A 
ATOM     22  C   UNL     1      -0.464  15.545  19.389  0.00  0.00    +0.000 A 
ATOM     23  C   UNL     1      -1.278  14.760  20.193  0.00  0.00    +0.000 A 
ATOM     24  C   UNL     1      -1.176  13.351  20.203  0.00  0.00    +0.000 A 
ATOM     25  C   UNL     1      -2.020  12.598  21.186  0.00  0.00    +0.000 C 
ENDBRANCH  16  19
ENDBRANCH   7  15
BRANCH   1  26
ATOM     26  C   UNL     1       3.489   3.689  18.180  0.00  0.00    +0.000 C 
ATOM     27  S   UNL     1       2.597   2.366  17.638  0.00  0.00    +0.000 S 
BRANCH  26  28
ATOM     28  N   UNL     1       4.869   3.856  18.004  0.00  0.00    +0.000 N 
ATOM     29  H   UNL     1       5.361   4.007  18.876  0.00  0.00    +0.000 HD
BRANCH  28  36
ATOM     30  C   UNL     1       7.637   5.010  18.104  0.00  0.00    +0.000 C 
ATOM     31  C   UNL     1       6.876   4.725  16.838  0.00  0.00    +0.000 A 
ATOM     32  C   UNL     1       7.534   4.992  15.618  0.00  0.00    +0.000 A 
ATOM     33  C   UNL     1       6.899   4.796  14.395  0.00  0.00    +0.000 A 
ATOM     34  C   UNL     1       5.597   4.321  14.370  0.00  0.00    +0.000 A 
ATOM     35  C   UNL     1       4.936   4.032  15.568  0.00  0.00    +0.000 A 
ATOM     36  C   UNL     1       5.551   4.229  16.814  0.00  0.00    +0.000 A 
ENDBRANCH  28  36
ENDBRANCH  26  28
ENDBRANCH   1  26
TORSDOF 6
ENDMDL
MODEL 3
REMARK VINA RESULT:      -7.7      1.554      1.918
REMARK  Name = 
REMARK  8 active torsions:
REMARK  status: ('A' for Active; 'I' for Inactive)
REMARK    1  A    between atoms: C_1  and  C_2
REMARK    2  A    between atoms: C_7  and  N_8
REMARK    3  A    between atoms: N_8  and  C_9
REMARK    4  A    between atoms: C_9  and  N_11
REMARK    5  A    between atoms: C_17  and  N_18
REMARK    6  A    between atoms: C_19  and  C_21
REMARK    7  A    between atoms: C_26  and  C_27
REMARK    8  A    between atoms: C_28  and  C_29
REMARK                            x       y       z     vdW  Elec       q    Type
REMARK                         _______ _______ _______ _____ _____    ______ ____
ROOT
ATOM      1  N   UNL     1       3.611   5.052  19.284  0.00  0.00    +0.000 N 
ATOM      2  C   UNL     1       3.095   5.444  17.950  0.00  0.00    +0.000 C 
ATOM      3  C   UNL     1       2.786   6.944  17.832  0.00  0.00    +0.000 C 
ATOM      4  C   UNL     1       2.069   7.458  19.045  0.00  0.00    +0.000 A 
ATOM      5  C   UNL     1       2.069   6.724  20.215  0.00  0.00    +0.000 A 
ATOM      6  S   UNL     1       1.230   7.533  21.455  0.00  0.00    +0.000 S 
ATOM      7  C   UNL     1       0.713   8.774  20.392  0.00  0.00    +0.000 A 
ATOM      8  C   UNL     1       1.338   8.710  19.153  0.00  0.00    +0.000 A 
ATOM      9  C   UNL     1       2.682   5.361  20.397  0.00  0.00    +0.000 C 
ENDROOT
BRANCH   8  10
ATOM     10  C   UNL     1       1.378   9.732  18.099  0.00  0.00    +0.000 C 
ATOM     11  N   UNL     1       0.206  10.270  17.678  0.00  0.00    +0.000 N 
ATOM     12  O   UNL     1       2.426  10.085  17.562  0.00  0.00    +0.000 OA
ATOM     13  H   UNL     1      -0.639   9.717  17.805  0.00  0.00    +0.000 HD
ATOM     14  H   UNL     1       0.257  10.816  16.832  0.00  0.00    +0.000 HD
ENDBRANCH   8  10
BRANCH   7  15
ATOM     15  N   UNL     1      -0.202   9.630  20.998  0.00  0.00    +0.000 N 
ATOM     16  C   UNL     1       0.188  10.902  21.393  0.00  0.00    +0.000 C 
ATOM     17  O   UNL     1       1.342  11.322  21.350  0.00  0.00    +0.000 OA
ATOM     18  H   UNL     1      -1.154   9.550  20.666  0.00  0.00    +0.000 HD
BRANCH  16  19
ATOM     19  C   UNL     1      -0.895  11.847  21.821  0.00  0.00    +0.000 A 
ATOM     20  C   UNL     1      -1.551  11.543  23.028  0.00  0.00    +0.000 A 
ATOM     21  C   UNL     1      -2.577  12.359  23.519  0.00  0.00    +0.000 A 
ATOM     22  C   UNL     1      -2.948  13.495  22.810  0.00  0.00    +0.000 A 
ATOM     23  C   UNL     1      -2.330  13.788  21.603  0.00  0.00    +0.000 A 
ATOM     24  C   UNL     1      -1.323  12.957  21.063  0.00  0.00    +0.000 A 
ATOM     25  C   UNL     1      -0.796  13.296  19.701  0.00  0.00    +0.000 C 
ENDBRANCH  16  19
ENDBRANCH   7  15
BRANCH   1  26
ATOM     26  C   UNL     1       4.329   3.831  19.413  0.00  0.00    +0.000 C 
ATOM     27  S   UNL     1       3.824   2.559  20.396  0.00  0.00    +0.000 S 
BRANCH  26  28
ATOM     28  N   UNL     1       5.438   3.794  18.556  0.00  0.00    +0.000 N 
ATOM     29  H   UNL     1       5.819   2.862  18.446  0.00  0.00    +0.000 HD
BRANCH  28  36
ATOM     30  C   UNL     1       5.578   4.741  15.712  0.00  0.00    +0.000 C 
ATOM     31  C   UNL     1       6.321   5.369  16.859  0.00  0.00    +0.000 A 
ATOM     32  C   UNL     1       7.109   6.505  16.570  0.00  0.00    +0.000 A 
ATOM     33  C   UNL     1       7.863   7.133  17.557  0.00  0.00    +0.000 A 
ATOM     34  C   UNL     1       7.834   6.643  18.854  0.00  0.00    +0.000 A 
ATOM     35  C   UNL     1       7.044   5.533  19.163  0.00  0.00    +0.000 A 
ATOM     36  C   UNL     1       6.282   4.876  18.184  0.00  0.00    +0.000 A 
ENDBRANCH  28  36
ENDBRANCH  26  28
ENDBRANCH   1  26
TORSDOF 6
ENDMDL
MODEL 4
REMARK VINA RESULT:      -7.7      0.673      1.188
REMARK  Name = 
REMARK  8 active torsions:
REMARK  status: ('A' for Active; 'I' for Inactive)
REMARK    1  A    between atoms: C_1  and  C_2
REMARK    2  A    between atoms: C_7  and  N_8
REMARK    3  A    between atoms: N_8  and  C_9
REMARK    4  A    between atoms: C_9  and  N_11
REMARK    5  A    between atoms: C_17  and  N_18
REMARK    6  A    between atoms: C_19  and  C_21
REMARK    7  A    between atoms: C_26  and  C_27
REMARK    8  A    between atoms: C_28  and  C_29
REMARK                            x       y       z     vdW  Elec       q    Type
REMARK                         _______ _______ _______ _____ _____    ______ ____
ROOT
ATOM      1  N   UNL     1       2.601   6.553  19.305  0.00  0.00    +0.000 N 
ATOM      2  C   UNL     1       2.087   7.145  18.046  0.00  0.00    +0.000 C 
ATOM      3  C   UNL     1       2.092   8.682  18.049  0.00  0.00    +0.000 C 
ATOM      4  C   UNL     1       1.584   9.233  19.349  0.00  0.00    +0.000 A 
ATOM      5  C   UNL     1       1.512   8.425  20.466  0.00  0.00    +0.000 A 
ATOM      6  S   UNL     1       0.949   9.288  21.821  0.00  0.00    +0.000 S 
ATOM      7  C   UNL     1       0.631  10.688  20.885  0.00  0.00    +0.000 A 
ATOM      8  C   UNL     1       1.141  10.596  19.596  0.00  0.00    +0.000 A 
ATOM      9  C   UNL     1       1.838   6.956  20.510  0.00  0.00    +0.000 C 
ENDROOT
BRANCH   8  10
ATOM     10  C   UNL     1       1.321  11.668  18.609  0.00  0.00    +0.000 C 
ATOM     11  N   UNL     1       0.215  12.210  18.038  0.00  0.00    +0.000 N 
ATOM     12  O   UNL     1       2.430  12.060  18.255  0.00  0.00    +0.000 OA
ATOM     13  H   UNL     1      -0.628  11.641  18.009  0.00  0.00    +0.000 HD
ATOM     14  H   UNL     1       0.384  12.797  17.236  0.00  0.00    +0.000 HD
ENDBRANCH   8  10
BRANCH   7  15
ATOM     15  N   UNL     1      -0.039  11.662  21.619  0.00  0.00    +0.000 N 
ATOM     16  C   UNL     1      -1.301  12.087  21.226  0.00  0.00    +0.000 C 
ATOM     17  O   UNL     1      -1.859  11.744  20.186  0.00  0.00    +0.000 OA
ATOM     18  H   UNL     1       0.119  11.637  22.618  0.00  0.00    +0.000 HD
BRANCH  16  19
ATOM     19  C   UNL     1      -2.058  12.959  22.183  0.00  0.00    +0.000 A 
ATOM     20  C   UNL     1      -1.322  13.504  23.251  0.00  0.00    +0.000 A 
ATOM     21  C   UNL     1      -1.932  14.331  24.202  0.00  0.00    +0.000 A 
ATOM     22  C   UNL     1      -3.284  14.630  24.085  0.00  0.00    +0.000 A 
ATOM     23  C   UNL     1      -4.027  14.073  23.054  0.00  0.00    +0.000 A 
ATOM     24  C   UNL     1      -3.446  13.200  22.107  0.00  0.00    +0.000 A 
ATOM     25  C   UNL     1      -4.353  12.561  21.099  0.00  0.00    +0.000 C 
ENDBRANCH  16  19
ENDBRANCH   7  15
BRANCH   1  26
ATOM     26  C   UNL     1       3.055   5.205  19.296  0.00  0.00    +0.000 C 
ATOM     27  S   UNL     1       2.398   4.001  20.275  0.00  0.00    +0.000 S 
BRANCH  26  28
ATOM     28  N   UNL     1       4.035   4.999  18.315  0.00  0.00    +0.000 N 
ATOM     29  H   UNL     1       3.858   4.178  17.748  0.00  0.00    +0.000 HD
BRANCH  28  36
ATOM     30  C   UNL     1       5.006   6.663  16.015  0.00  0.00    +0.000 C 
ATOM     31  C   UNL     1       5.817   6.346  17.241  0.00  0.00    +0.000 A 
ATOM     32  C   UNL     1       7.111   6.904  17.319  0.00  0.00    +0.000 A 
ATOM     33  C   UNL     1       7.951   6.639  18.396  0.00  0.00    +0.000 A 
ATOM     34  C   UNL     1       7.508   5.816  19.421  0.00  0.00    +0.000 A 
ATOM     35  C   UNL     1       6.222   5.271  19.371  0.00  0.00    +0.000 A 
ATOM     36  C   UNL     1       5.359   5.517  18.292  0.00  0.00    +0.000 A 
ENDBRANCH  28  36
ENDBRANCH  26  28
ENDBRANCH   1  26
TORSDOF 6
ENDMDL
MODEL 5
REMARK VINA RESULT:      -7.7      2.620      3.852
REMARK  Name = 
REMARK  8 active torsions:
REMARK  status: ('A' for Active; 'I' for Inactive)
REMARK    1  A    between atoms: C_1  and  C_2
REMARK    2  A    between atoms: C_7  and  N_8
REMARK    3  A    between atoms: N_8  and  C_9
REMARK    4  A    between atoms: C_9  and  N_11
REMARK    5  A    between atoms: C_17  and  N_18
REMARK    6  A    between atoms: C_19  and  C_21
REMARK    7  A    between atoms: C_26  and  C_27
REMARK    8  A    between atoms: C_28  and  C_29
REMARK                            x       y       z     vdW  Elec       q    Type
REMARK                         _______ _______ _______ _____ _____    ______ ____
ROOT
ATOM      1  N   UNL     1       2.919   4.776  18.789  0.00  0.00    +0.000 N 
ATOM      2  C   UNL     1       2.907   4.885  20.268  0.00  0.00    +0.000 C 
ATOM      3  C   UNL     1       1.865   5.883  20.798  0.00  0.00    +0.000 C 
ATOM      4  C   UNL     1       1.858   7.151  19.996  0.00  0.00    +0.000 A 
ATOM      5  C   UNL     1       2.449   7.188  18.748  0.00  0.00    +0.000 A 
ATOM      6  S   UNL     1       2.270   8.717  18.022  0.00  0.00    +0.000 S 
ATOM      7  C   UNL     1       1.566   9.384  19.435  0.00  0.00    +0.000 A 
ATOM      8  C   UNL     1       1.262   8.419  20.387  0.00  0.00    +0.000 A 
ATOM      9  C   UNL     1       3.200   6.057  18.099  0.00  0.00    +0.000 C 
ENDROOT
BRANCH   8  10
ATOM     10  C   UNL     1       0.413   8.549  21.578  0.00  0.00    +0.000 C 
ATOM     11  N   UNL     1       0.910   9.207  22.655  0.00  0.00    +0.000 N 
ATOM     12  O   UNL     1      -0.709   8.052  21.646  0.00  0.00    +0.000 OA
ATOM     13  H   UNL     1       1.922   9.248  22.757  0.00  0.00    +0.000 HD
ATOM     14  H   UNL     1       0.381   9.107  23.508  0.00  0.00    +0.000 HD
ENDBRANCH   8  10
BRANCH   7  15
ATOM     15  N   UNL     1       1.397  10.761  19.332  0.00  0.00    +0.000 N 
ATOM     16  C   UNL     1       0.144  11.293  19.063  0.00  0.00    +0.000 C 
ATOM     17  O   UNL     1      -0.852  10.626  18.792  0.00  0.00    +0.000 OA
ATOM     18  H   UNL     1       1.983  11.316  19.943  0.00  0.00    +0.000 HD
BRANCH  16  19
ATOM     19  C   UNL     1      -0.012  12.779  19.196  0.00  0.00    +0.000 A 
ATOM     20  C   UNL     1      -1.209  13.233  19.777  0.00  0.00    +0.000 A 
ATOM     21  C   UNL     1      -1.458  14.601  19.947  0.00  0.00    +0.000 A 
ATOM     22  C   UNL     1      -0.502  15.526  19.546  0.00  0.00    +0.000 A 
ATOM     23  C   UNL     1       0.670  15.091  18.942  0.00  0.00    +0.000 A 
ATOM     24  C   UNL     1       0.925  13.719  18.718  0.00  0.00    +0.000 A 
ATOM     25  C   UNL     1       2.165  13.356  17.959  0.00  0.00    +0.000 C 
ENDBRANCH  16  19
ENDBRANCH   7  15
BRANCH   1  26
ATOM     26  C   UNL     1       3.495   3.622  18.189  0.00  0.00    +0.000 C 
ATOM     27  S   UNL     1       2.588   2.299  17.670  0.00  0.00    +0.000 S 
BRANCH  26  28
ATOM     28  N   UNL     1       4.875   3.774  18.003  0.00  0.00    +0.000 N 
ATOM     29  H   UNL     1       5.379   3.890  18.874  0.00  0.00    +0.000 HD
BRANCH  28  36
ATOM     30  C   UNL     1       7.644   4.926  18.114  0.00  0.00    +0.000 C 
ATOM     31  C   UNL     1       6.875   4.671  16.847  0.00  0.00    +0.000 A 
ATOM     32  C   UNL     1       7.527   4.966  15.629  0.00  0.00    +0.000 A 
ATOM     33  C   UNL     1       6.885   4.798  14.406  0.00  0.00    +0.000 A 
ATOM     34  C   UNL     1       5.583   4.322  14.377  0.00  0.00    +0.000 A 
ATOM     35  C   UNL     1       4.929   4.006  15.571  0.00  0.00    +0.000 A 
ATOM     36  C   UNL     1       5.551   4.174  16.818  0.00  0.00    +0.000 A 
ENDBRANCH  28  36
ENDBRANCH  26  28
ENDBRANCH   1  26
TORSDOF 6
ENDMDL
MODEL 6
REMARK VINA RESULT:      -7.6      1.060      1.288
REMARK  Name = 
REMARK  8 active torsions:
REMARK  status: ('A' for Active; 'I' for Inactive)
REMARK    1  A    between atoms: C_1  and  C_2
REMARK    2  A    between atoms: C_7  and  N_8
REMARK    3  A    between atoms: N_8  and  C_9
REMARK    4  A    between atoms: C_9  and  N_11
REMARK    5  A    between atoms: C_17  and  N_18
REMARK    6  A    between atoms: C_19  and  C_21
REMARK    7  A    between atoms: C_26  and  C_27
REMARK    8  A    between atoms: C_28  and  C_29
REMARK                            x       y       z     vdW  Elec       q    Type
REMARK                         _______ _______ _______ _____ _____    ______ ____
ROOT
ATOM      1  N   UNL     1       2.545   6.746  19.461  0.00  0.00    +0.000 N 
ATOM      2  C   UNL     1       2.103   7.305  18.161  0.00  0.00    +0.000 C 
ATOM      3  C   UNL     1       2.033   8.840  18.149  0.00  0.00    +0.000 C 
ATOM      4  C   UNL     1       1.400   9.374  19.399  0.00  0.00    +0.000 A 
ATOM      5  C   UNL     1       1.280   8.570  20.516  0.00  0.00    +0.000 A 
ATOM      6  S   UNL     1       0.573   9.414  21.814  0.00  0.00    +0.000 S 
ATOM      7  C   UNL     1       0.261  10.791  20.843  0.00  0.00    +0.000 A 
ATOM      8  C   UNL     1       0.873  10.715  19.598  0.00  0.00    +0.000 A 
ATOM      9  C   UNL     1       1.671   7.119  20.600  0.00  0.00    +0.000 C 
ENDROOT
BRANCH   8  10
ATOM     10  C   UNL     1       1.078  11.788  18.617  0.00  0.00    +0.000 C 
ATOM     11  N   UNL     1      -0.007  12.289  17.974  0.00  0.00    +0.000 N 
ATOM     12  O   UNL     1       2.194  12.217  18.330  0.00  0.00    +0.000 OA
ATOM     13  H   UNL     1      -0.827  11.691  17.896  0.00  0.00    +0.000 HD
ATOM     14  H   UNL     1       0.191  12.878  17.180  0.00  0.00    +0.000 HD
ENDBRANCH   8  10
BRANCH   7  15
ATOM     15  N   UNL     1      -0.510  11.735  21.512  0.00  0.00    +0.000 N 
ATOM     16  C   UNL     1       0.020  12.981  21.817  0.00  0.00    +0.000 C 
ATOM     17  O   UNL     1       1.193  13.302  21.637  0.00  0.00    +0.000 OA
ATOM     18  H   UNL     1      -1.497  11.726  21.286  0.00  0.00    +0.000 HD
BRANCH  16  19
ATOM     19  C   UNL     1      -0.930  14.024  22.325  0.00  0.00    +0.000 A 
ATOM     20  C   UNL     1      -1.419  13.843  23.632  0.00  0.00    +0.000 A 
ATOM     21  C   UNL     1      -2.312  14.757  24.203  0.00  0.00    +0.000 A 
ATOM     22  C   UNL     1      -2.716  15.869  23.473  0.00  0.00    +0.000 A 
ATOM     23  C   UNL     1      -2.265  16.041  22.172  0.00  0.00    +0.000 A 
ATOM     24  C   UNL     1      -1.399  15.110  21.557  0.00  0.00    +0.000 A 
ATOM     25  C   UNL     1      -1.058  15.324  20.112  0.00  0.00    +0.000 C 
ENDBRANCH  16  19
ENDBRANCH   7  15
BRANCH   1  26
ATOM     26  C   UNL     1       3.062   5.421  19.501  0.00  0.00    +0.000 C 
ATOM     27  S   UNL     1       2.553   4.262  20.613  0.00  0.00    +0.000 S 
BRANCH  26  28
ATOM     28  N   UNL     1       3.962   5.190  18.453  0.00  0.00    +0.000 N 
ATOM     29  H   UNL     1       3.686   4.416  17.861  0.00  0.00    +0.000 HD
BRANCH  28  36
ATOM     30  C   UNL     1       4.979   6.705  16.070  0.00  0.00    +0.000 C 
ATOM     31  C   UNL     1       5.805   6.361  17.279  0.00  0.00    +0.000 A 
ATOM     32  C   UNL     1       7.140   6.819  17.297  0.00  0.00    +0.000 A 
ATOM     33  C   UNL     1       7.994   6.520  18.355  0.00  0.00    +0.000 A 
ATOM     34  C   UNL     1       7.524   5.766  19.419  0.00  0.00    +0.000 A 
ATOM     35  C   UNL     1       6.199   5.321  19.428  0.00  0.00    +0.000 A 
ATOM     36  C   UNL     1       5.321   5.602  18.370  0.00  0.00    +0.000 A 
ENDBRANCH  28  36
ENDBRANCH  26  28
ENDBRANCH   1  26
TORSDOF 6
ENDMDL
MODEL 7
REMARK VINA RESULT:      -7.6      1.632      2.136
REMARK  Name = 
REMARK  8 active torsions:
REMARK  status: ('A' for Active; 'I' for Inactive)
REMARK    1  A    between atoms: C_1  and  C_2
REMARK    2  A    between atoms: C_7  and  N_8
REMARK    3  A    between atoms: N_8  and  C_9
REMARK    4  A    between atoms: C_9  and  N_11
REMARK    5  A    between atoms: C_17  and  N_18
REMARK    6  A    between atoms: C_19  and  C_21
REMARK    7  A    between atoms: C_26  and  C_27
REMARK    8  A    between atoms: C_28  and  C_29
REMARK                            x       y       z     vdW  Elec       q    Type
REMARK                         _______ _______ _______ _____ _____    ______ ____
ROOT
ATOM      1  N   UNL     1       3.468   5.349  19.254  0.00  0.00    +0.000 N 
ATOM      2  C   UNL     1       2.911   5.765  17.944  0.00  0.00    +0.000 C 
ATOM      3  C   UNL     1       2.609   7.269  17.860  0.00  0.00    +0.000 C 
ATOM      4  C   UNL     1       1.934   7.767  19.105  0.00  0.00    +0.000 A 
ATOM      5  C   UNL     1       1.968   7.015  20.262  0.00  0.00    +0.000 A 
ATOM      6  S   UNL     1       1.176   7.809  21.542  0.00  0.00    +0.000 S 
ATOM      7  C   UNL     1       0.632   9.070  20.516  0.00  0.00    +0.000 A 
ATOM      8  C   UNL     1       1.216   9.023  19.256  0.00  0.00    +0.000 A 
ATOM      9  C   UNL     1       2.578   5.646  20.402  0.00  0.00    +0.000 C 
ENDROOT
BRANCH   8  10
ATOM     10  C   UNL     1       1.229  10.061  18.218  0.00  0.00    +0.000 C 
ATOM     11  N   UNL     1       0.040  10.526  17.758  0.00  0.00    +0.000 N 
ATOM     12  O   UNL     1       2.270  10.491  17.727  0.00  0.00    +0.000 OA
ATOM     13  H   UNL     1      -0.771   9.917  17.845  0.00  0.00    +0.000 HD
ATOM     14  H   UNL     1       0.087  11.087  16.921  0.00  0.00    +0.000 HD
ENDBRANCH   8  10
BRANCH   7  15
ATOM     15  N   UNL     1      -0.256   9.922  21.165  0.00  0.00    +0.000 N 
ATOM     16  C   UNL     1       0.146  11.196  21.541  0.00  0.00    +0.000 C 
ATOM     17  O   UNL     1       1.295  11.621  21.443  0.00  0.00    +0.000 OA
ATOM     18  H   UNL     1      -1.223   9.838  20.879  0.00  0.00    +0.000 HD
BRANCH  16  19
ATOM     19  C   UNL     1      -0.919  12.136  22.021  0.00  0.00    +0.000 A 
ATOM     20  C   UNL     1      -1.811  11.633  22.986  0.00  0.00    +0.000 A 
ATOM     21  C   UNL     1      -2.843  12.426  23.501  0.00  0.00    +0.000 A 
ATOM     22  C   UNL     1      -2.984  13.737  23.062  0.00  0.00    +0.000 A 
ATOM     23  C   UNL     1      -2.131  14.235  22.087  0.00  0.00    +0.000 A 
ATOM     24  C   UNL     1      -1.110  13.441  21.518  0.00  0.00    +0.000 A 
ATOM     25  C   UNL     1      -0.312  14.031  20.394  0.00  0.00    +0.000 C 
ENDBRANCH  16  19
ENDBRANCH   7  15
BRANCH   1  26
ATOM     26  C   UNL     1       4.182   4.122  19.340  0.00  0.00    +0.000 C 
ATOM     27  S   UNL     1       3.479   2.676  19.846  0.00  0.00    +0.000 S 
BRANCH  26  28
ATOM     28  N   UNL     1       5.493   4.256  18.865  0.00  0.00    +0.000 N 
ATOM     29  H   UNL     1       6.156   4.483  19.597  0.00  0.00    +0.000 HD
BRANCH  28  36
ATOM     30  C   UNL     1       7.578   6.328  18.256  0.00  0.00    +0.000 C 
ATOM     31  C   UNL     1       6.927   5.443  17.228  0.00  0.00    +0.000 A 
ATOM     32  C   UNL     1       7.362   5.583  15.892  0.00  0.00    +0.000 A 
ATOM     33  C   UNL     1       6.794   4.835  14.865  0.00  0.00    +0.000 A 
ATOM     34  C   UNL     1       5.788   3.926  15.156  0.00  0.00    +0.000 A 
ATOM     35  C   UNL     1       5.360   3.760  16.476  0.00  0.00    +0.000 A 
ATOM     36  C   UNL     1       5.910   4.507  17.529  0.00  0.00    +0.000 A 
ENDBRANCH  28  36
ENDBRANCH  26  28
ENDBRANCH   1  26
TORSDOF 6
ENDMDL
MODEL 8
REMARK VINA RESULT:      -7.6      1.361      1.781
REMARK  Name = 
REMARK  8 active torsions:
REMARK  status: ('A' for Active; 'I' for Inactive)
REMARK    1  A    between atoms: C_1  and  C_2
REMARK    2  A    between atoms: C_7  and  N_8
REMARK    3  A    between atoms: N_8  and  C_9
REMARK    4  A    between atoms: C_9  and  N_11
REMARK    5  A    between atoms: C_17  and  N_18
REMARK    6  A    between atoms: C_19  and  C_21
REMARK    7  A    between atoms: C_26  and  C_27
REMARK    8  A    between atoms: C_28  and  C_29
REMARK                            x       y       z     vdW  Elec       q    Type
REMARK                         _______ _______ _______ _____ _____    ______ ____
ROOT
ATOM      1  N   UNL     1       2.830   6.198  19.579  0.00  0.00    +0.000 N 
ATOM      2  C   UNL     1       2.620   6.818  18.248  0.00  0.00    +0.000 C 
ATOM      3  C   UNL     1       2.462   8.345  18.305  0.00  0.00    +0.000 C 
ATOM      4  C   UNL     1       1.563   8.766  19.429  0.00  0.00    +0.000 A 
ATOM      5  C   UNL     1       1.274   7.888  20.455  0.00  0.00    +0.000 A 
ATOM      6  S   UNL     1       0.275   8.610  21.628  0.00  0.00    +0.000 S 
ATOM      7  C   UNL     1       0.079  10.030  20.689  0.00  0.00    +0.000 A 
ATOM      8  C   UNL     1       0.928  10.065  19.590  0.00  0.00    +0.000 A 
ATOM      9  C   UNL     1       1.728   6.455  20.537  0.00  0.00    +0.000 C 
ENDROOT
BRANCH   8  10
ATOM     10  C   UNL     1       1.258  11.208  18.728  0.00  0.00    +0.000 C 
ATOM     11  N   UNL     1       2.078  10.999  17.667  0.00  0.00    +0.000 N 
ATOM     12  O   UNL     1       0.852  12.345  18.956  0.00  0.00    +0.000 OA
ATOM     13  H   UNL     1       2.717  10.207  17.714  0.00  0.00    +0.000 HD
ATOM     14  H   UNL     1       2.432  11.831  17.221  0.00  0.00    +0.000 HD
ENDBRANCH   8  10
BRANCH   7  15
ATOM     15  N   UNL     1      -0.865  10.892  21.239  0.00  0.00    +0.000 N 
ATOM     16  C   UNL     1      -0.827  11.196  22.593  0.00  0.00    +0.000 C 
ATOM     17  O   UNL     1      -0.068  10.670  23.404  0.00  0.00    +0.000 OA
ATOM     18  H   UNL     1      -1.171  11.642  20.633  0.00  0.00    +0.000 HD
BRANCH  16  19
ATOM     19  C   UNL     1      -1.720  12.302  23.071  0.00  0.00    +0.000 A 
ATOM     20  C   UNL     1      -2.980  11.920  23.566  0.00  0.00    +0.000 A 
ATOM     21  C   UNL     1      -3.892  12.873  24.036  0.00  0.00    +0.000 A 
ATOM     22  C   UNL     1      -3.544  14.218  24.026  0.00  0.00    +0.000 A 
ATOM     23  C   UNL     1      -2.316  14.610  23.511  0.00  0.00    +0.000 A 
ATOM     24  C   UNL     1      -1.397  13.673  22.989  0.00  0.00    +0.000 A 
ATOM     25  C   UNL     1      -0.147  14.203  22.353  0.00  0.00    +0.000 C 
ENDBRANCH  16  19
ENDBRANCH   7  15
BRANCH   1  26
ATOM     26  C   UNL     1       3.408   4.901  19.651  0.00  0.00    +0.000 C 
ATOM     27  S   UNL     1       2.505   3.497  19.880  0.00  0.00    +0.000 S 
BRANCH  26  28
ATOM     28  N   UNL     1       4.789   4.939  19.415  0.00  0.00    +0.000 N 
ATOM     29  H   UNL     1       5.297   5.440  20.134  0.00  0.00    +0.000 HD
BRANCH  28  36
ATOM     30  C   UNL     1       7.660   5.742  19.070  0.00  0.00    +0.000 C 
ATOM     31  C   UNL     1       6.829   5.067  18.013  0.00  0.00    +0.000 A 
ATOM     32  C   UNL     1       7.466   4.764  16.790  0.00  0.00    +0.000 A 
ATOM     33  C   UNL     1       6.771   4.174  15.739  0.00  0.00    +0.000 A 
ATOM     34  C   UNL     1       5.428   3.867  15.895  0.00  0.00    +0.000 A 
ATOM     35  C   UNL     1       4.786   4.141  17.106  0.00  0.00    +0.000 A 
ATOM     36  C   UNL     1       5.462   4.743  18.178  0.00  0.00    +0.000 A 
ENDBRANCH  28  36
ENDBRANCH  26  28
ENDBRANCH   1  26
TORSDOF 6
ENDMDL
MODEL 9
REMARK VINA RESULT:      -7.6      1.353      1.748
REMARK  Name = 
REMARK  8 active torsions:
REMARK  status: ('A' for Active; 'I' for Inactive)
REMARK    1  A    between atoms: C_1  and  C_2
REMARK    2  A    between atoms: C_7  and  N_8
REMARK    3  A    between atoms: N_8  and  C_9
REMARK    4  A    between atoms: C_9  and  N_11
REMARK    5  A    between atoms: C_17  and  N_18
REMARK    6  A    between atoms: C_19  and  C_21
REMARK    7  A    between atoms: C_26  and  C_27
REMARK    8  A    between atoms: C_28  and  C_29
REMARK                            x       y       z     vdW  Elec       q    Type
REMARK                         _______ _______ _______ _____ _____    ______ ____
ROOT
ATOM      1  N   UNL     1       2.911   6.765  19.417  0.00  0.00    +0.000 N 
ATOM      2  C   UNL     1       2.612   7.392  18.107  0.00  0.00    +0.000 C 
ATOM      3  C   UNL     1       2.260   8.884  18.211  0.00  0.00    +0.000 C 
ATOM      4  C   UNL     1       1.325   9.153  19.353  0.00  0.00    +0.000 A 
ATOM      5  C   UNL     1       1.160   8.215  20.352  0.00  0.00    +0.000 A 
ATOM      6  S   UNL     1       0.087   8.769  21.552  0.00  0.00    +0.000 S 
ATOM      7  C   UNL     1      -0.297  10.179  20.657  0.00  0.00    +0.000 A 
ATOM      8  C   UNL     1       0.531  10.355  19.555  0.00  0.00    +0.000 A 
ATOM      9  C   UNL     1       1.794   6.850  20.388  0.00  0.00    +0.000 C 
ENDROOT
BRANCH   8  10
ATOM     10  C   UNL     1       0.704  11.555  18.728  0.00  0.00    +0.000 C 
ATOM     11  N   UNL     1      -0.353  11.992  17.998  0.00  0.00    +0.000 N 
ATOM     12  O   UNL     1       1.776  12.150  18.643  0.00  0.00    +0.000 OA
ATOM     13  H   UNL     1      -1.067  11.311  17.747  0.00  0.00    +0.000 HD
ATOM     14  H   UNL     1      -0.142  12.692  17.303  0.00  0.00    +0.000 HD
ENDBRANCH   8  10
BRANCH   7  15
ATOM     15  N   UNL     1      -1.338  10.896  21.239  0.00  0.00    +0.000 N 
ATOM     16  C   UNL     1      -1.068  11.889  22.170  0.00  0.00    +0.000 C 
ATOM     17  O   UNL     1       0.047  12.132  22.625  0.00  0.00    +0.000 OA
ATOM     18  H   UNL     1      -2.133  11.069  20.637  0.00  0.00    +0.000 HD
BRANCH  16  19
ATOM     19  C   UNL     1      -2.209  12.773  22.578  0.00  0.00    +0.000 A 
ATOM     20  C   UNL     1      -3.012  12.310  23.636  0.00  0.00    +0.000 A 
ATOM     21  C   UNL     1      -4.103  13.057  24.096  0.00  0.00    +0.000 A 
ATOM     22  C   UNL     1      -4.393  14.281  23.507  0.00  0.00    +0.000 A 
ATOM     23  C   UNL     1      -3.628  14.733  22.441  0.00  0.00    +0.000 A 
ATOM     24  C   UNL     1      -2.549  13.978  21.929  0.00  0.00    +0.000 A 
ATOM     25  C   UNL     1      -1.853  14.497  20.706  0.00  0.00    +0.000 C 
ENDBRANCH  16  19
ENDBRANCH   7  15
BRANCH   1  26
ATOM     26  C   UNL     1       3.651   5.551  19.447  0.00  0.00    +0.000 C 
ATOM     27  S   UNL     1       2.989   4.076  19.923  0.00  0.00    +0.000 S 
BRANCH  26  28
ATOM     28  N   UNL     1       4.947   5.726  18.946  0.00  0.00    +0.000 N 
ATOM     29  H   UNL     1       5.471   6.434  19.447  0.00  0.00    +0.000 HD
BRANCH  28  36
ATOM     30  C   UNL     1       7.532   6.838  17.901  0.00  0.00    +0.000 C 
ATOM     31  C   UNL     1       6.677   5.837  17.174  0.00  0.00    +0.000 A 
ATOM     32  C   UNL     1       7.152   5.369  15.929  0.00  0.00    +0.000 A 
ATOM     33  C   UNL     1       6.415   4.471  15.164  0.00  0.00    +0.000 A 
ATOM     34  C   UNL     1       5.192   4.015  15.634  0.00  0.00    +0.000 A 
ATOM     35  C   UNL     1       4.716   4.452  16.874  0.00  0.00    +0.000 A 
ATOM     36  C   UNL     1       5.436   5.364  17.660  0.00  0.00    +0.000 A 
ENDBRANCH  28  36
ENDBRANCH  26  28
ENDBRANCH   1  26
TORSDOF 6
ENDMDL
