MODEL 1
REMARK VINA RESULT:      -8.3      0.000      0.000
REMARK  Name = 
REMARK  8 active torsions:
REMARK  status: ('A' for Active; 'I' for Inactive)
REMARK    1  A    between atoms: C_1  and  O_2
REMARK    2  A    between atoms: O_2  and  C_3
REMARK    3  A    between atoms: C_6  and  C_7
REMARK    4  A    between atoms: C_7  and  C_8
REMARK    5  A    between atoms: C_10  and  C_11
REMARK    6  A    between atoms: C_17  and  O_18
REMARK    7  A    between atoms: C_19  and  O_20
REMARK    8  A    between atoms: C_21  and  O_22
REMARK                            x       y       z     vdW  Elec       q    Type
REMARK                         _______ _______ _______ _____ _____    ______ ____
ROOT
ATOM      1  C   UNL     1       1.329   9.192  19.136  0.00  0.00    +0.000 A 
ATOM      2  C   UNL     1       1.925   8.258  18.264  0.00  0.00    +0.000 A 
ATOM      3  C   UNL     1       2.342   6.981  18.688  0.00  0.00    +0.000 A 
ATOM      4  C   UNL     1       2.111   6.642  20.028  0.00  0.00    +0.000 A 
ATOM      5  C   UNL     1       1.520   7.553  20.912  0.00  0.00    +0.000 A 
ATOM      6  C   UNL     1       1.131   8.819  20.473  0.00  0.00    +0.000 A 
ATOM      7 CL   UNL     1       0.346   9.857  21.608  0.00  0.00    +0.000 Cl
ENDROOT
BRANCH   3   8
ATOM      8  C   UNL     1       2.858   5.935  17.704  0.00  0.00    +0.000 C 
ATOM      9  O   UNL     1       2.258   4.633  17.826  0.00  0.00    +0.000 OA
ATOM     10  C   UNL     1       2.784   3.691  18.820  0.00  0.00    +0.000 C 
ATOM     11  C   UNL     1       2.145   2.278  18.755  0.00  0.00    +0.000 C 
ATOM     12  O   UNL     1       1.326   2.541  19.916  0.00  0.00    +0.000 OA
ATOM     13  C   UNL     1       2.111   3.724  20.214  0.00  0.00    +0.000 C 
ATOM     14  C   UNL     1       4.315   3.573  18.799  0.00  0.00    +0.000 C 
ATOM     15  C   UNL     1       4.980   4.953  18.710  0.00  0.00    +0.000 C 
ATOM     16  C   UNL     1       4.384   5.759  17.541  0.00  0.00    +0.000 C 
BRANCH  14  17
ATOM     17  O   UNL     1       4.727   2.751  17.692  0.00  0.00    +0.000 OA
ATOM     18  H   UNL     1       5.689   2.892  17.562  0.00  0.00    +0.000 HD
ENDBRANCH  14  17
BRANCH  15  19
ATOM     19  O   UNL     1       4.869   5.627  19.957  0.00  0.00    +0.000 OA
ATOM     20  H   UNL     1       5.768   5.740  20.314  0.00  0.00    +0.000 HD
ENDBRANCH  15  19
BRANCH  16  21
ATOM     21  O   UNL     1       4.678   5.047  16.315  0.00  0.00    +0.000 OA
ATOM     22  H   UNL     1       5.612   4.760  16.345  0.00  0.00    +0.000 HD
ENDBRANCH  16  21
ENDBRANCH   3   8
BRANCH   1  23
ATOM     23  C   UNL     1       0.880  10.523  18.568  0.00  0.00    +0.000 C 
BRANCH  23  27
ATOM     24  C   UNL     1      -3.399  10.796  17.906  0.00  0.00    +0.000 A 
ATOM     25  C   UNL     1      -2.653   9.827  17.239  0.00  0.00    +0.000 A 
ATOM     26  C   UNL     1      -1.272   9.741  17.427  0.00  0.00    +0.000 A 
ATOM     27  C   UNL     1      -0.602  10.645  18.263  0.00  0.00    +0.000 A 
ATOM     28  C   UNL     1      -1.360  11.638  18.904  0.00  0.00    +0.000 A 
ATOM     29  C   UNL     1      -2.747  11.717  18.723  0.00  0.00    +0.000 A 
BRANCH  24  31
ATOM     30  C   UNL     1      -5.306  12.007  17.238  0.00  0.00    +0.000 C 
ATOM     31  O   UNL     1      -4.745  10.770  17.664  0.00  0.00    +0.000 OA
ENDBRANCH  24  31
ENDBRANCH  23  27
ENDBRANCH   1  23
TORSDOF 7
ENDMDL
MODEL 2
REMARK VINA RESULT:      -8.3      0.429      1.004
REMARK  Name = 
REMARK  8 active torsions:
REMARK  status: ('A' for Active; 'I' for Inactive)
REMARK    1  A    between atoms: C_1  and  O_2
REMARK    2  A    between atoms: O_2  and  C_3
REMARK    3  A    between atoms: C_6  and  C_7
REMARK    4  A    between atoms: C_7  and  C_8
REMARK    5  A    between atoms: C_10  and  C_11
REMARK    6  A    between atoms: C_17  and  O_18
REMARK    7  A    between atoms: C_19  and  O_20
REMARK    8  A    between atoms: C_21  and  O_22
REMARK                            x       y       z     vdW  Elec       q    Type
REMARK                         _______ _______ _______ _____ _____    ______ ____
ROOT
ATOM      1  C   UNL     1       1.275   9.268  19.197  0.00  0.00    +0.000 A 
ATOM      2  C   UNL     1       1.887   8.367  18.301  0.00  0.00    +0.000 A 
ATOM      3  C   UNL     1       2.335   7.092  18.695  0.00  0.00    +0.000 A 
ATOM      4  C   UNL     1       2.122   6.719  20.029  0.00  0.00    +0.000 A 
ATOM      5  C   UNL     1       1.515   7.597  20.936  0.00  0.00    +0.000 A 
ATOM      6  C   UNL     1       1.095   8.863  20.526  0.00  0.00    +0.000 A 
ATOM      7 CL   UNL     1       0.294   9.859  21.689  0.00  0.00    +0.000 Cl
ENDROOT
BRANCH   3   8
ATOM      8  C   UNL     1       2.868   6.078  17.685  0.00  0.00    +0.000 C 
ATOM      9  O   UNL     1       2.163   4.825  17.647  0.00  0.00    +0.000 OA
ATOM     10  C   UNL     1       2.513   3.775  18.610  0.00  0.00    +0.000 C 
ATOM     11  C   UNL     1       1.780   2.428  18.372  0.00  0.00    +0.000 C 
ATOM     12  O   UNL     1       0.869   2.675  19.467  0.00  0.00    +0.000 OA
ATOM     13  C   UNL     1       1.706   3.765  19.931  0.00  0.00    +0.000 C 
ATOM     14  C   UNL     1       4.025   3.532  18.726  0.00  0.00    +0.000 C 
ATOM     15  C   UNL     1       4.797   4.856  18.810  0.00  0.00    +0.000 C 
ATOM     16  C   UNL     1       4.385   5.789  17.656  0.00  0.00    +0.000 C 
BRANCH  14  17
ATOM     17  O   UNL     1       4.484   2.760  17.602  0.00  0.00    +0.000 OA
ATOM     18  H   UNL     1       3.904   2.976  16.841  0.00  0.00    +0.000 HD
ENDBRANCH  14  17
BRANCH  15  19
ATOM     19  O   UNL     1       4.611   5.447  20.090  0.00  0.00    +0.000 OA
ATOM     20  H   UNL     1       5.321   5.122  20.672  0.00  0.00    +0.000 HD
ENDBRANCH  15  19
BRANCH  16  21
ATOM     21  O   UNL     1       4.748   5.144  16.411  0.00  0.00    +0.000 OA
ATOM     22  H   UNL     1       5.521   5.613  16.039  0.00  0.00    +0.000 HD
ENDBRANCH  16  21
ENDBRANCH   3   8
BRANCH   1  23
ATOM     23  C   UNL     1       0.792  10.601  18.659  0.00  0.00    +0.000 C 
BRANCH  23  27
ATOM     24  C   UNL     1      -3.418  10.971  17.677  0.00  0.00    +0.000 A 
ATOM     25  C   UNL     1      -2.853  11.804  18.639  0.00  0.00    +0.000 A 
ATOM     26  C   UNL     1      -1.504  11.682  18.980  0.00  0.00    +0.000 A 
ATOM     27  C   UNL     1      -0.698  10.701  18.387  0.00  0.00    +0.000 A 
ATOM     28  C   UNL     1      -1.287   9.845  17.442  0.00  0.00    +0.000 A 
ATOM     29  C   UNL     1      -2.637   9.974  17.093  0.00  0.00    +0.000 A 
BRANCH  24  31
ATOM     30  C   UNL     1      -5.643  10.783  18.426  0.00  0.00    +0.000 C 
ATOM     31  O   UNL     1      -4.739  11.196  17.407  0.00  0.00    +0.000 OA
ENDBRANCH  24  31
ENDBRANCH  23  27
ENDBRANCH   1  23
TORSDOF 7
ENDMDL
MODEL 3
REMARK VINA RESULT:      -8.0      5.321      7.628
REMARK  Name = 
REMARK  8 active torsions:
REMARK  status: ('A' for Active; 'I' for Inactive)
REMARK    1  A    between atoms: C_1  and  O_2
REMARK    2  A    between atoms: O_2  and  C_3
REMARK    3  A    between atoms: C_6  and  C_7
REMARK    4  A    between atoms: C_7  and  C_8
REMARK    5  A    between atoms: C_10  and  C_11
REMARK    6  A    between atoms: C_17  and  O_18
REMARK    7  A    between atoms: C_19  and  O_20
REMARK    8  A    between atoms: C_21  and  O_22
REMARK                            x       y       z     vdW  Elec       q    Type
REMARK                         _______ _______ _______ _____ _____    ______ ____
ROOT
ATOM      1  C   UNL     1       6.264   5.663  17.272  0.00  0.00    +0.000 A 
ATOM      2  C   UNL     1       4.902   5.299  17.239  0.00  0.00    +0.000 A 
ATOM      3  C   UNL     1       4.159   5.034  18.405  0.00  0.00    +0.000 A 
ATOM      4  C   UNL     1       4.817   5.178  19.634  0.00  0.00    +0.000 A 
ATOM      5  C   UNL     1       6.168   5.539  19.691  0.00  0.00    +0.000 A 
ATOM      6  C   UNL     1       6.890   5.780  18.521  0.00  0.00    +0.000 A 
ATOM      7 CL   UNL     1       8.533   6.287  18.681  0.00  0.00    +0.000 Cl
ENDROOT
BRANCH   3   8
ATOM      8  C   UNL     1       2.654   4.778  18.360  0.00  0.00    +0.000 C 
ATOM      9  O   UNL     1       2.054   4.437  19.622  0.00  0.00    +0.000 OA
ATOM     10  C   UNL     1       2.092   3.044  20.082  0.00  0.00    +0.000 C 
ATOM     11  C   UNL     1       1.291   2.785  21.384  0.00  0.00    +0.000 C 
ATOM     12  O   UNL     1       2.499   2.738  22.177  0.00  0.00    +0.000 OA
ATOM     13  C   UNL     1       3.298   2.653  20.970  0.00  0.00    +0.000 C 
ATOM     14  C   UNL     1       1.677   2.033  19.003  0.00  0.00    +0.000 C 
ATOM     15  C   UNL     1       2.337   2.352  17.656  0.00  0.00    +0.000 C 
ATOM     16  C   UNL     1       2.098   3.826  17.278  0.00  0.00    +0.000 C 
BRANCH  14  17
ATOM     17  O   UNL     1       0.244   2.027  18.865  0.00  0.00    +0.000 OA
ATOM     18  H   UNL     1       0.023   1.430  18.119  0.00  0.00    +0.000 HD
ENDBRANCH  14  17
BRANCH  15  19
ATOM     19  O   UNL     1       3.717   2.012  17.698  0.00  0.00    +0.000 OA
ATOM     20  H   UNL     1       3.786   1.043  17.619  0.00  0.00    +0.000 HD
ENDBRANCH  15  19
BRANCH  16  21
ATOM     21  O   UNL     1       0.670   4.019  17.127  0.00  0.00    +0.000 OA
ATOM     22  H   UNL     1       0.326   4.407  17.956  0.00  0.00    +0.000 HD
ENDBRANCH  16  21
ENDBRANCH   3   8
BRANCH   1  23
ATOM     23  C   UNL     1       6.961   5.966  15.960  0.00  0.00    +0.000 C 
BRANCH  23  27
ATOM     24  C   UNL     1       5.906   3.552  12.513  0.00  0.00    +0.000 A 
ATOM     25  C   UNL     1       5.047   3.613  13.608  0.00  0.00    +0.000 A 
ATOM     26  C   UNL     1       5.383   4.370  14.733  0.00  0.00    +0.000 A 
ATOM     27  C   UNL     1       6.603   5.057  14.799  0.00  0.00    +0.000 A 
ATOM     28  C   UNL     1       7.476   4.961  13.703  0.00  0.00    +0.000 A 
ATOM     29  C   UNL     1       7.133   4.210  12.570  0.00  0.00    +0.000 A 
BRANCH  24  31
ATOM     30  C   UNL     1       4.082   2.954  11.147  0.00  0.00    +0.000 C 
ATOM     31  O   UNL     1       5.462   2.801  11.461  0.00  0.00    +0.000 OA
ENDBRANCH  24  31
ENDBRANCH  23  27
ENDBRANCH   1  23
TORSDOF 7
ENDMDL
MODEL 4
REMARK VINA RESULT:      -7.7      2.705      4.929
REMARK  Name = 
REMARK  8 active torsions:
REMARK  status: ('A' for Active; 'I' for Inactive)
REMARK    1  A    between atoms: C_1  and  O_2
REMARK    2  A    between atoms: O_2  and  C_3
REMARK    3  A    between atoms: C_6  and  C_7
REMARK    4  A    between atoms: C_7  and  C_8
REMARK    5  A    between atoms: C_10  and  C_11
REMARK    6  A    between atoms: C_17  and  O_18
REMARK    7  A    between atoms: C_19  and  O_20
REMARK    8  A    between atoms: C_21  and  O_22
REMARK                            x       y       z     vdW  Elec       q    Type
REMARK                         _______ _______ _______ _____ _____    ______ ____
ROOT
ATOM      1  C   UNL     1       2.533   4.308  19.498  0.00  0.00    +0.000 A 
ATOM      2  C   UNL     1       3.741   4.376  18.775  0.00  0.00    +0.000 A 
ATOM      3  C   UNL     1       4.004   3.561  17.657  0.00  0.00    +0.000 A 
ATOM      4  C   UNL     1       2.992   2.680  17.252  0.00  0.00    +0.000 A 
ATOM      5  C   UNL     1       1.784   2.596  17.955  0.00  0.00    +0.000 A 
ATOM      6  C   UNL     1       1.553   3.402  19.070  0.00  0.00    +0.000 A 
ATOM      7 CL   UNL     1       0.011   3.287  19.840  0.00  0.00    +0.000 Cl
ENDROOT
BRANCH   3   8
ATOM      8  C   UNL     1       5.257   3.743  16.804  0.00  0.00    +0.000 C 
ATOM      9  O   UNL     1       6.471   3.969  17.541  0.00  0.00    +0.000 OA
ATOM     10  C   UNL     1       6.798   5.328  17.986  0.00  0.00    +0.000 C 
ATOM     11  C   UNL     1       8.197   5.459  18.645  0.00  0.00    +0.000 C 
ATOM     12  O   UNL     1       7.621   5.514  19.970  0.00  0.00    +0.000 OA
ATOM     13  C   UNL     1       6.304   5.720  19.399  0.00  0.00    +0.000 C 
ATOM     14  C   UNL     1       6.640   6.386  16.884  0.00  0.00    +0.000 C 
ATOM     15  C   UNL     1       5.330   6.191  16.108  0.00  0.00    +0.000 C 
ATOM     16  C   UNL     1       5.209   4.735  15.620  0.00  0.00    +0.000 C 
BRANCH  14  17
ATOM     17  O   UNL     1       7.762   6.328  15.985  0.00  0.00    +0.000 OA
ATOM     18  H   UNL     1       8.519   6.765  16.431  0.00  0.00    +0.000 HD
ENDBRANCH  14  17
BRANCH  15  19
ATOM     19  O   UNL     1       4.227   6.597  16.907  0.00  0.00    +0.000 OA
ATOM     20  H   UNL     1       3.422   6.510  16.367  0.00  0.00    +0.000 HD
ENDBRANCH  15  19
BRANCH  16  21
ATOM     21  O   UNL     1       6.305   4.479  14.709  0.00  0.00    +0.000 OA
ATOM     22  H   UNL     1       6.489   3.519  14.715  0.00  0.00    +0.000 HD
ENDBRANCH  16  21
ENDBRANCH   3   8
BRANCH   1  23
ATOM     23  C   UNL     1       2.336   5.260  20.661  0.00  0.00    +0.000 C 
BRANCH  23  27
ATOM     24  C   UNL     1       1.127   9.285  19.585  0.00  0.00    +0.000 A 
ATOM     25  C   UNL     1       1.889   8.528  18.699  0.00  0.00    +0.000 A 
ATOM     26  C   UNL     1       2.302   7.238  19.041  0.00  0.00    +0.000 A 
ATOM     27  C   UNL     1       1.988   6.690  20.292  0.00  0.00    +0.000 A 
ATOM     28  C   UNL     1       1.248   7.476  21.190  0.00  0.00    +0.000 A 
ATOM     29  C   UNL     1       0.825   8.766  20.843  0.00  0.00    +0.000 A 
BRANCH  24  31
ATOM     30  C   UNL     1      -0.551  10.601  18.584  0.00  0.00    +0.000 C 
ATOM     31  O   UNL     1       0.759  10.523  19.135  0.00  0.00    +0.000 OA
ENDBRANCH  24  31
ENDBRANCH  23  27
ENDBRANCH   1  23
TORSDOF 7
ENDMDL
MODEL 5
REMARK VINA RESULT:      -7.7      1.458      2.857
REMARK  Name = 
REMARK  8 active torsions:
REMARK  status: ('A' for Active; 'I' for Inactive)
REMARK    1  A    between atoms: C_1  and  O_2
REMARK    2  A    between atoms: O_2  and  C_3
REMARK    3  A    between atoms: C_6  and  C_7
REMARK    4  A    between atoms: C_7  and  C_8
REMARK    5  A    between atoms: C_10  and  C_11
REMARK    6  A    between atoms: C_17  and  O_18
REMARK    7  A    between atoms: C_19  and  O_20
REMARK    8  A    between atoms: C_21  and  O_22
REMARK                            x       y       z     vdW  Elec       q    Type
REMARK                         _______ _______ _______ _____ _____    ______ ____
ROOT
ATOM      1  C   UNL     1       1.274   8.976  19.687  0.00  0.00    +0.000 A 
ATOM      2  C   UNL     1       1.228   7.679  20.238  0.00  0.00    +0.000 A 
ATOM      3  C   UNL     1       1.919   6.589  19.675  0.00  0.00    +0.000 A 
ATOM      4  C   UNL     1       2.701   6.841  18.540  0.00  0.00    +0.000 A 
ATOM      5  C   UNL     1       2.763   8.121  17.975  0.00  0.00    +0.000 A 
ATOM      6  C   UNL     1       2.056   9.182  18.541  0.00  0.00    +0.000 A 
ATOM      7 CL   UNL     1       2.239  10.743  17.825  0.00  0.00    +0.000 Cl
ENDROOT
BRANCH   3   8
ATOM      8  C   UNL     1       1.970   5.227  20.361  0.00  0.00    +0.000 C 
ATOM      9  O   UNL     1       3.265   4.601  20.383  0.00  0.00    +0.000 OA
ATOM     10  C   UNL     1       3.707   3.826  19.219  0.00  0.00    +0.000 C 
ATOM     11  C   UNL     1       5.057   3.089  19.423  0.00  0.00    +0.000 C 
ATOM     12  O   UNL     1       5.768   4.069  18.633  0.00  0.00    +0.000 OA
ATOM     13  C   UNL     1       4.510   4.603  18.148  0.00  0.00    +0.000 C 
ATOM     14  C   UNL     1       2.647   2.841  18.702  0.00  0.00    +0.000 C 
ATOM     15  C   UNL     1       1.263   3.498  18.631  0.00  0.00    +0.000 C 
ATOM     16  C   UNL     1       0.917   4.164  19.976  0.00  0.00    +0.000 C 
BRANCH  14  17
ATOM     17  O   UNL     1       2.603   1.681  19.552  0.00  0.00    +0.000 OA
ATOM     18  H   UNL     1       2.254   0.937  19.017  0.00  0.00    +0.000 HD
ENDBRANCH  14  17
BRANCH  15  19
ATOM     19  O   UNL     1       1.211   4.406  17.538  0.00  0.00    +0.000 OA
ATOM     20  H   UNL     1       0.754   3.960  16.804  0.00  0.00    +0.000 HD
ENDBRANCH  15  19
BRANCH  16  21
ATOM     21  O   UNL     1       0.862   3.125  20.985  0.00  0.00    +0.000 OA
ATOM     22  H   UNL     1       1.329   2.339  20.638  0.00  0.00    +0.000 HD
ENDBRANCH  16  21
ENDBRANCH   3   8
BRANCH   1  23
ATOM     23  C   UNL     1       0.526  10.088  20.396  0.00  0.00    +0.000 C 
BRANCH  23  27
ATOM     24  C   UNL     1      -3.095  11.552  18.508  0.00  0.00    +0.000 A 
ATOM     25  C   UNL     1      -2.432  10.447  17.978  0.00  0.00    +0.000 A 
ATOM     26  C   UNL     1      -1.255   9.978  18.564  0.00  0.00    +0.000 A 
ATOM     27  C   UNL     1      -0.696  10.624  19.675  0.00  0.00    +0.000 A 
ATOM     28  C   UNL     1      -1.355  11.757  20.180  0.00  0.00    +0.000 A 
ATOM     29  C   UNL     1      -2.542  12.222  19.598  0.00  0.00    +0.000 A 
BRANCH  24  31
ATOM     30  C   UNL     1      -4.398  11.383  16.552  0.00  0.00    +0.000 C 
ATOM     31  O   UNL     1      -4.249  11.907  17.867  0.00  0.00    +0.000 OA
ENDBRANCH  24  31
ENDBRANCH  23  27
ENDBRANCH   1  23
TORSDOF 7
ENDMDL
MODEL 6
REMARK VINA RESULT:      -7.7      5.327      7.860
REMARK  Name = 
REMARK  8 active torsions:
REMARK  status: ('A' for Active; 'I' for Inactive)
REMARK    1  A    between atoms: C_1  and  O_2
REMARK    2  A    between atoms: O_2  and  C_3
REMARK    3  A    between atoms: C_6  and  C_7
REMARK    4  A    between atoms: C_7  and  C_8
REMARK    5  A    between atoms: C_10  and  C_11
REMARK    6  A    between atoms: C_17  and  O_18
REMARK    7  A    between atoms: C_19  and  O_20
REMARK    8  A    between atoms: C_21  and  O_22
REMARK                            x       y       z     vdW  Elec       q    Type
REMARK                         _______ _______ _______ _____ _____    ______ ____
ROOT
ATOM      1  C   UNL     1       6.281   5.706  17.230  0.00  0.00    +0.000 A 
ATOM      2  C   UNL     1       4.917   5.351  17.191  0.00  0.00    +0.000 A 
ATOM      3  C   UNL     1       4.181   5.036  18.350  0.00  0.00    +0.000 A 
ATOM      4  C   UNL     1       4.850   5.119  19.578  0.00  0.00    +0.000 A 
ATOM      5  C   UNL     1       6.204   5.470  19.641  0.00  0.00    +0.000 A 
ATOM      6  C   UNL     1       6.917   5.762  18.477  0.00  0.00    +0.000 A 
ATOM      7 CL   UNL     1       8.564   6.253  18.646  0.00  0.00    +0.000 Cl
ENDROOT
BRANCH   3   8
ATOM      8  C   UNL     1       2.675   4.788  18.305  0.00  0.00    +0.000 C 
ATOM      9  O   UNL     1       2.071   4.468  19.571  0.00  0.00    +0.000 OA
ATOM     10  C   UNL     1       2.099   3.081  20.049  0.00  0.00    +0.000 C 
ATOM     11  C   UNL     1       1.294   2.844  21.353  0.00  0.00    +0.000 C 
ATOM     12  O   UNL     1       2.500   2.799  22.148  0.00  0.00    +0.000 OA
ATOM     13  C   UNL     1       3.301   2.693  20.944  0.00  0.00    +0.000 C 
ATOM     14  C   UNL     1       1.678   2.059  18.982  0.00  0.00    +0.000 C 
ATOM     15  C   UNL     1       2.343   2.356  17.632  0.00  0.00    +0.000 C 
ATOM     16  C   UNL     1       2.114   3.827  17.235  0.00  0.00    +0.000 C 
BRANCH  14  17
ATOM     17  O   UNL     1       0.246   2.061  18.842  0.00  0.00    +0.000 OA
ATOM     18  H   UNL     1       0.041   1.850  17.906  0.00  0.00    +0.000 HD
ENDBRANCH  14  17
BRANCH  15  19
ATOM     19  O   UNL     1       3.720   2.007  17.681  0.00  0.00    +0.000 OA
ATOM     20  H   UNL     1       4.217   2.693  17.200  0.00  0.00    +0.000 HD
ENDBRANCH  15  19
BRANCH  16  21
ATOM     21  O   UNL     1       0.688   4.028  17.080  0.00  0.00    +0.000 OA
ATOM     22  H   UNL     1       0.363   4.523  17.858  0.00  0.00    +0.000 HD
ENDBRANCH  16  21
ENDBRANCH   3   8
BRANCH   1  23
ATOM     23  C   UNL     1       6.968   6.066  15.927  0.00  0.00    +0.000 C 
BRANCH  23  27
ATOM     24  C   UNL     1       6.040   3.390  12.641  0.00  0.00    +0.000 A 
ATOM     25  C   UNL     1       7.132   4.250  12.551  0.00  0.00    +0.000 A 
ATOM     26  C   UNL     1       7.430   5.131  13.593  0.00  0.00    +0.000 A 
ATOM     27  C   UNL     1       6.622   5.193  14.736  0.00  0.00    +0.000 A 
ATOM     28  C   UNL     1       5.504   4.345  14.801  0.00  0.00    +0.000 A 
ATOM     29  C   UNL     1       5.211   3.454  13.760  0.00  0.00    +0.000 A 
BRANCH  24  31
ATOM     30  C   UNL     1       6.981   1.744  11.243  0.00  0.00    +0.000 C 
ATOM     31  O   UNL     1       5.859   2.556  11.573  0.00  0.00    +0.000 OA
ENDBRANCH  24  31
ENDBRANCH  23  27
ENDBRANCH   1  23
TORSDOF 7
ENDMDL
MODEL 7
REMARK VINA RESULT:      -7.6      3.209      4.679
REMARK  Name = 
REMARK  8 active torsions:
REMARK  status: ('A' for Active; 'I' for Inactive)
REMARK    1  A    between atoms: C_1  and  O_2
REMARK    2  A    between atoms: O_2  and  C_3
REMARK    3  A    between atoms: C_6  and  C_7
REMARK    4  A    between atoms: C_7  and  C_8
REMARK    5  A    between atoms: C_10  and  C_11
REMARK    6  A    between atoms: C_17  and  O_18
REMARK    7  A    between atoms: C_19  and  O_20
REMARK    8  A    between atoms: C_21  and  O_22
REMARK                            x       y       z     vdW  Elec       q    Type
REMARK                         _______ _______ _______ _____ _____    ______ ____
ROOT
ATOM      1  C   UNL     1       2.365   5.647  19.597  0.00  0.00    +0.000 A 
ATOM      2  C   UNL     1       3.410   6.274  18.888  0.00  0.00    +0.000 A 
ATOM      3  C   UNL     1       4.002   5.701  17.746  0.00  0.00    +0.000 A 
ATOM      4  C   UNL     1       3.490   4.475  17.303  0.00  0.00    +0.000 A 
ATOM      5  C   UNL     1       2.453   3.834  17.990  0.00  0.00    +0.000 A 
ATOM      6  C   UNL     1       1.892   4.413  19.130  0.00  0.00    +0.000 A 
ATOM      7 CL   UNL     1       0.571   3.592  19.881  0.00  0.00    +0.000 Cl
ENDROOT
BRANCH   3   8
ATOM      8  C   UNL     1       5.035   6.455  16.911  0.00  0.00    +0.000 C 
ATOM      9  O   UNL     1       5.130   6.040  15.537  0.00  0.00    +0.000 OA
ATOM     10  C   UNL     1       5.966   4.884  15.193  0.00  0.00    +0.000 C 
ATOM     11  C   UNL     1       6.096   4.628  13.668  0.00  0.00    +0.000 C 
ATOM     12  O   UNL     1       5.162   3.525  13.725  0.00  0.00    +0.000 OA
ATOM     13  C   UNL     1       5.253   3.510  15.172  0.00  0.00    +0.000 C 
ATOM     14  C   UNL     1       7.360   4.926  15.836  0.00  0.00    +0.000 C 
ATOM     15  C   UNL     1       7.281   5.327  17.314  0.00  0.00    +0.000 C 
ATOM     16  C   UNL     1       6.463   6.622  17.474  0.00  0.00    +0.000 C 
BRANCH  14  17
ATOM     17  O   UNL     1       8.203   5.844  15.116  0.00  0.00    +0.000 OA
ATOM     18  H   UNL     1       9.051   5.909  15.604  0.00  0.00    +0.000 HD
ENDBRANCH  14  17
BRANCH  15  19
ATOM     19  O   UNL     1       6.761   4.250  18.083  0.00  0.00    +0.000 OA
ATOM     20  H   UNL     1       5.902   3.999  17.699  0.00  0.00    +0.000 HD
ENDBRANCH  15  19
BRANCH  16  21
ATOM     21  O   UNL     1       7.160   7.677  16.766  0.00  0.00    +0.000 OA
ATOM     22  H   UNL     1       6.587   7.983  16.035  0.00  0.00    +0.000 HD
ENDBRANCH  16  21
ENDBRANCH   3   8
BRANCH   1  23
ATOM     23  C   UNL     1       1.770   6.369  20.790  0.00  0.00    +0.000 C 
BRANCH  23  27
ATOM     24  C   UNL     1       0.770  10.560  20.279  0.00  0.00    +0.000 A 
ATOM     25  C   UNL     1       1.131   9.792  19.175  0.00  0.00    +0.000 A 
ATOM     26  C   UNL     1       1.475   8.447  19.328  0.00  0.00    +0.000 A 
ATOM     27  C   UNL     1       1.496   7.849  20.595  0.00  0.00    +0.000 A 
ATOM     28  C   UNL     1       1.162   8.642  21.705  0.00  0.00    +0.000 A 
ATOM     29  C   UNL     1       0.806   9.989  21.550  0.00  0.00    +0.000 A 
BRANCH  24  31
ATOM     30  C   UNL     1       1.224  12.494  19.013  0.00  0.00    +0.000 C 
ATOM     31  O   UNL     1       0.430  11.856  20.007  0.00  0.00    +0.000 OA
ENDBRANCH  24  31
ENDBRANCH  23  27
ENDBRANCH   1  23
TORSDOF 7
ENDMDL
MODEL 8
REMARK VINA RESULT:      -7.5      3.221      4.749
REMARK  Name = 
REMARK  8 active torsions:
REMARK  status: ('A' for Active; 'I' for Inactive)
REMARK    1  A    between atoms: C_1  and  O_2
REMARK    2  A    between atoms: O_2  and  C_3
REMARK    3  A    between atoms: C_6  and  C_7
REMARK    4  A    between atoms: C_7  and  C_8
REMARK    5  A    between atoms: C_10  and  C_11
REMARK    6  A    between atoms: C_17  and  O_18
REMARK    7  A    between atoms: C_19  and  O_20
REMARK    8  A    between atoms: C_21  and  O_22
REMARK                            x       y       z     vdW  Elec       q    Type
REMARK                         _______ _______ _______ _____ _____    ______ ____
ROOT
ATOM      1  C   UNL     1       2.420   5.644  19.625  0.00  0.00    +0.000 A 
ATOM      2  C   UNL     1       3.467   6.263  18.911  0.00  0.00    +0.000 A 
ATOM      3  C   UNL     1       4.020   5.708  17.740  0.00  0.00    +0.000 A 
ATOM      4  C   UNL     1       3.464   4.510  17.273  0.00  0.00    +0.000 A 
ATOM      5  C   UNL     1       2.423   3.878  17.964  0.00  0.00    +0.000 A 
ATOM      6  C   UNL     1       1.904   4.438  19.132  0.00  0.00    +0.000 A 
ATOM      7 CL   UNL     1       0.576   3.632  19.887  0.00  0.00    +0.000 Cl
ENDROOT
BRANCH   3   8
ATOM      8  C   UNL     1       5.055   6.457  16.905  0.00  0.00    +0.000 C 
ATOM      9  O   UNL     1       5.134   6.057  15.526  0.00  0.00    +0.000 OA
ATOM     10  C   UNL     1       5.951   4.894  15.162  0.00  0.00    +0.000 C 
ATOM     11  C   UNL     1       6.066   4.653  13.634  0.00  0.00    +0.000 C 
ATOM     12  O   UNL     1       5.118   3.562  13.686  0.00  0.00    +0.000 OA
ATOM     13  C   UNL     1       5.221   3.529  15.132  0.00  0.00    +0.000 C 
ATOM     14  C   UNL     1       7.352   4.910  15.794  0.00  0.00    +0.000 C 
ATOM     15  C   UNL     1       7.289   5.295  17.278  0.00  0.00    +0.000 C 
ATOM     16  C   UNL     1       6.490   6.600  17.459  0.00  0.00    +0.000 C 
BRANCH  14  17
ATOM     17  O   UNL     1       8.200   5.825  15.078  0.00  0.00    +0.000 OA
ATOM     18  H   UNL     1       9.027   5.347  14.856  0.00  0.00    +0.000 HD
ENDBRANCH  14  17
BRANCH  15  19
ATOM     19  O   UNL     1       6.761   4.216  18.039  0.00  0.00    +0.000 OA
ATOM     20  H   UNL     1       7.363   4.060  18.788  0.00  0.00    +0.000 HD
ENDBRANCH  15  19
BRANCH  16  21
ATOM     21  O   UNL     1       7.195   7.653  16.757  0.00  0.00    +0.000 OA
ATOM     22  H   UNL     1       7.294   8.412  17.366  0.00  0.00    +0.000 HD
ENDBRANCH  16  21
ENDBRANCH   3   8
BRANCH   1  23
ATOM     23  C   UNL     1       1.871   6.347  20.850  0.00  0.00    +0.000 C 
BRANCH  23  27
ATOM     24  C   UNL     1       0.785  10.499  20.213  0.00  0.00    +0.000 A 
ATOM     25  C   UNL     1       0.694   9.944  21.487  0.00  0.00    +0.000 A 
ATOM     26  C   UNL     1       1.021   8.603  21.703  0.00  0.00    +0.000 A 
ATOM     27  C   UNL     1       1.416   7.779  20.640  0.00  0.00    +0.000 A 
ATOM     28  C   UNL     1       1.472   8.341  19.355  0.00  0.00    +0.000 A 
ATOM     29  C   UNL     1       1.154   9.689  19.141  0.00  0.00    +0.000 A 
BRANCH  24  31
ATOM     30  C   UNL     1       0.134  12.450  21.361  0.00  0.00    +0.000 C 
ATOM     31  O   UNL     1       0.463  11.825  20.125  0.00  0.00    +0.000 OA
ENDBRANCH  24  31
ENDBRANCH  23  27
ENDBRANCH   1  23
TORSDOF 7
ENDMDL
MODEL 9
REMARK VINA RESULT:      -7.4      5.050      8.068
REMARK  Name = 
REMARK  8 active torsions:
REMARK  status: ('A' for Active; 'I' for Inactive)
REMARK    1  A    between atoms: C_1  and  O_2
REMARK    2  A    between atoms: O_2  and  C_3
REMARK    3  A    between atoms: C_6  and  C_7
REMARK    4  A    between atoms: C_7  and  C_8
REMARK    5  A    between atoms: C_10  and  C_11
REMARK    6  A    between atoms: C_17  and  O_18
REMARK    7  A    between atoms: C_19  and  O_20
REMARK    8  A    between atoms: C_21  and  O_22
REMARK                            x       y       z     vdW  Elec       q    Type
REMARK                         _______ _______ _______ _____ _____    ______ ____
ROOT
ATOM      1  C   UNL     1       5.637   5.522  16.946  0.00  0.00    +0.000 A 
ATOM      2  C   UNL     1       4.847   4.522  17.550  0.00  0.00    +0.000 A 
ATOM      3  C   UNL     1       5.045   4.096  18.877  0.00  0.00    +0.000 A 
ATOM      4  C   UNL     1       6.054   4.731  19.612  0.00  0.00    +0.000 A 
ATOM      5  C   UNL     1       6.851   5.727  19.034  0.00  0.00    +0.000 A 
ATOM      6  C   UNL     1       6.647   6.121  17.711  0.00  0.00    +0.000 A 
ATOM      7 CL   UNL     1       7.627   7.403  17.095  0.00  0.00    +0.000 Cl
ENDROOT
BRANCH   3   8
ATOM      8  C   UNL     1       4.094   3.114  19.558  0.00  0.00    +0.000 C 
ATOM      9  O   UNL     1       2.918   2.778  18.801  0.00  0.00    +0.000 OA
ATOM     10  C   UNL     1       1.750   3.664  18.859  0.00  0.00    +0.000 C 
ATOM     11  C   UNL     1       0.504   3.119  18.114  0.00  0.00    +0.000 C 
ATOM     12  O   UNL     1       0.719   4.012  16.998  0.00  0.00    +0.000 OA
ATOM     13  C   UNL     1       1.679   4.769  17.777  0.00  0.00    +0.000 C 
ATOM     14  C   UNL     1       1.366   4.076  20.288  0.00  0.00    +0.000 C 
ATOM     15  C   UNL     1       2.601   4.479  21.103  0.00  0.00    +0.000 C 
ATOM     16  C   UNL     1       3.678   3.380  21.022  0.00  0.00    +0.000 C 
BRANCH  14  17
ATOM     17  O   UNL     1       0.672   2.995  20.938  0.00  0.00    +0.000 OA
ATOM     18  H   UNL     1       0.809   3.096  21.904  0.00  0.00    +0.000 HD
ENDBRANCH  14  17
BRANCH  15  19
ATOM     19  O   UNL     1       3.076   5.748  20.673  0.00  0.00    +0.000 OA
ATOM     20  H   UNL     1       4.042   5.685  20.575  0.00  0.00    +0.000 HD
ENDBRANCH  15  19
BRANCH  16  21
ATOM     21  O   UNL     1       3.130   2.177  21.613  0.00  0.00    +0.000 OA
ATOM     22  H   UNL     1       2.224   2.374  21.924  0.00  0.00    +0.000 HD
ENDBRANCH  16  21
ENDBRANCH   3   8
BRANCH   1  23
ATOM     23  C   UNL     1       5.313   5.936  15.525  0.00  0.00    +0.000 C 
BRANCH  23  27
ATOM     24  C   UNL     1       6.860   3.526  12.266  0.00  0.00    +0.000 A 
ATOM     25  C   UNL     1       5.576   3.295  12.752  0.00  0.00    +0.000 A 
ATOM     26  C   UNL     1       5.072   4.050  13.814  0.00  0.00    +0.000 A 
ATOM     27  C   UNL     1       5.857   5.031  14.434  0.00  0.00    +0.000 A 
ATOM     28  C   UNL     1       7.162   5.232  13.957  0.00  0.00    +0.000 A 
ATOM     29  C   UNL     1       7.663   4.482  12.885  0.00  0.00    +0.000 A 
BRANCH  24  31
ATOM     30  C   UNL     1       6.584   1.482  11.127  0.00  0.00    +0.000 C 
ATOM     31  O   UNL     1       7.238   2.744  11.210  0.00  0.00    +0.000 OA
ENDBRANCH  24  31
ENDBRANCH  23  27
ENDBRANCH   1  23
TORSDOF 7
ENDMDL
