MODEL 1
REMARK VINA RESULT:      -7.3      0.000      0.000
REMARK  Name = 
REMARK  6 active torsions:
REMARK  status: ('A' for Active; 'I' for Inactive)
REMARK    1  A    between atoms: C_1  and  C_2
REMARK    2  A    between atoms: C_2  and  C_3
REMARK    3  A    between atoms: C_2  and  C_4
REMARK    4  A    between atoms: C_6  and  C_7
REMARK    5  A    between atoms: N_9  and  C_10
REMARK    6  A    between atoms: C_10  and  C_11
REMARK                            x       y       z     vdW  Elec       q    Type
REMARK                         _______ _______ _______ _____ _____    ______ ____
ROOT
ATOM      1  C   UNL     1       6.033   4.780  17.748  0.00  0.00    +0.000 C 
ATOM      2  O   UNL     1       6.830   4.455  18.627  0.00  0.00    +0.000 OA
ATOM      3  N   UNL     1       4.754   5.206  18.026  0.00  0.00    +0.000 N 
ATOM      4  H   UNL     1       4.198   5.576  17.262  0.00  0.00    +0.000 HD
ENDROOT
BRANCH   1   7
ATOM      5  C   UNL     1       6.491   4.122  14.199  0.00  0.00    +0.000 A 
ATOM      6  C   UNL     1       5.989   3.712  15.409  0.00  0.00    +0.000 A 
ATOM      7  C   UNL     1       6.386   4.715  16.330  0.00  0.00    +0.000 A 
ATOM      8  N   UNL     1       7.135   5.650  15.717  0.00  0.00    +0.000 NA
ATOM      9  O   UNL     1       7.199   5.271  14.383  0.00  0.00    +0.000 OA
BRANCH   5  11
ATOM     10  C   UNL     1       4.904   3.594  12.358  0.00  0.00    +0.000 C 
ATOM     11  C   UNL     1       6.364   3.594  12.811  0.00  0.00    +0.000 C 
ATOM     12  C   UNL     1       7.240   4.363  11.825  0.00  0.00    +0.000 C 
ENDBRANCH   5  11
ENDBRANCH   1   7
BRANCH   3  13
ATOM     13  C   UNL     1       4.316   5.401  19.384  0.00  0.00    +0.000 C 
BRANCH  13  14
ATOM     14  C   UNL     1       3.009   4.734  19.595  0.00  0.00    +0.000 A 
ATOM     15  C   UNL     1       2.113   4.729  20.645  0.00  0.00    +0.000 A 
ATOM     16  C   UNL     1       1.012   3.945  20.229  0.00  0.00    +0.000 A 
ATOM     17  C   UNL     1       1.307   3.514  18.957  0.00  0.00    +0.000 A 
ATOM     18  O   UNL     1       2.518   3.987  18.562  0.00  0.00    +0.000 OA
ENDBRANCH  13  14
ENDBRANCH   3  13
TORSDOF 4
ENDMDL
MODEL 2
REMARK VINA RESULT:      -7.2      1.617      2.226
REMARK  Name = 
REMARK  6 active torsions:
REMARK  status: ('A' for Active; 'I' for Inactive)
REMARK    1  A    between atoms: C_1  and  C_2
REMARK    2  A    between atoms: C_2  and  C_3
REMARK    3  A    between atoms: C_2  and  C_4
REMARK    4  A    between atoms: C_6  and  C_7
REMARK    5  A    between atoms: N_9  and  C_10
REMARK    6  A    between atoms: C_10  and  C_11
REMARK                            x       y       z     vdW  Elec       q    Type
REMARK                         _______ _______ _______ _____ _____    ______ ____
ROOT
ATOM      1  C   UNL     1       6.892   5.299  16.059  0.00  0.00    +0.000 C 
ATOM      2  O   UNL     1       7.516   6.301  16.404  0.00  0.00    +0.000 OA
ATOM      3  N   UNL     1       6.177   4.528  16.947  0.00  0.00    +0.000 N 
ATOM      4  H   UNL     1       5.586   3.793  16.573  0.00  0.00    +0.000 HD
ENDROOT
BRANCH   1   7
ATOM      5  C   UNL     1       6.325   3.843  12.774  0.00  0.00    +0.000 A 
ATOM      6  C   UNL     1       6.005   3.877  14.108  0.00  0.00    +0.000 A 
ATOM      7  C   UNL     1       6.883   4.840  14.670  0.00  0.00    +0.000 A 
ATOM      8  N   UNL     1       7.723   5.318  13.734  0.00  0.00    +0.000 NA
ATOM      9  O   UNL     1       7.369   4.687  12.549  0.00  0.00    +0.000 OA
BRANCH   5  11
ATOM     10  C   UNL     1       6.137   1.656  11.603  0.00  0.00    +0.000 C 
ATOM     11  C   UNL     1       5.737   3.132  11.602  0.00  0.00    +0.000 C 
ATOM     12  C   UNL     1       4.220   3.285  11.543  0.00  0.00    +0.000 C 
ENDBRANCH   5  11
ENDBRANCH   1   7
BRANCH   3  13
ATOM     13  C   UNL     1       6.032   4.925  18.325  0.00  0.00    +0.000 C 
BRANCH  13  14
ATOM     14  C   UNL     1       4.865   4.239  18.929  0.00  0.00    +0.000 A 
ATOM     15  C   UNL     1       3.516   4.526  18.958  0.00  0.00    +0.000 A 
ATOM     16  C   UNL     1       2.892   3.460  19.646  0.00  0.00    +0.000 A 
ATOM     17  C   UNL     1       3.899   2.593  20.000  0.00  0.00    +0.000 A 
ATOM     18  O   UNL     1       5.102   3.056  19.571  0.00  0.00    +0.000 OA
ENDBRANCH  13  14
ENDBRANCH   3  13
TORSDOF 4
ENDMDL
MODEL 3
REMARK VINA RESULT:      -7.2      1.100      1.346
REMARK  Name = 
REMARK  6 active torsions:
REMARK  status: ('A' for Active; 'I' for Inactive)
REMARK    1  A    between atoms: C_1  and  C_2
REMARK    2  A    between atoms: C_2  and  C_3
REMARK    3  A    between atoms: C_2  and  C_4
REMARK    4  A    between atoms: C_6  and  C_7
REMARK    5  A    between atoms: N_9  and  C_10
REMARK    6  A    between atoms: C_10  and  C_11
REMARK                            x       y       z     vdW  Elec       q    Type
REMARK                         _______ _______ _______ _____ _____    ______ ____
ROOT
ATOM      1  C   UNL     1       5.673   4.786  17.608  0.00  0.00    +0.000 C 
ATOM      2  O   UNL     1       5.534   5.849  18.211  0.00  0.00    +0.000 OA
ATOM      3  N   UNL     1       5.317   3.572  18.152  0.00  0.00    +0.000 N 
ATOM      4  H   UNL     1       5.341   2.755  17.551  0.00  0.00    +0.000 HD
ENDROOT
BRANCH   1   7
ATOM      5  C   UNL     1       6.640   4.224  14.147  0.00  0.00    +0.000 A 
ATOM      6  C   UNL     1       5.893   3.834  15.230  0.00  0.00    +0.000 A 
ATOM      7  C   UNL     1       6.250   4.734  16.266  0.00  0.00    +0.000 A 
ATOM      8  N   UNL     1       7.203   5.586  15.844  0.00  0.00    +0.000 NA
ATOM      9  O   UNL     1       7.444   5.259  14.516  0.00  0.00    +0.000 OA
BRANCH   5  11
ATOM     10  C   UNL     1       5.283   3.460  12.208  0.00  0.00    +0.000 C 
ATOM     11  C   UNL     1       6.686   3.778  12.725  0.00  0.00    +0.000 C 
ATOM     12  C   UNL     1       7.379   4.799  11.827  0.00  0.00    +0.000 C 
ENDBRANCH   5  11
ENDBRANCH   1   7
BRANCH   3  13
ATOM     13  C   UNL     1       4.653   3.497  19.429  0.00  0.00    +0.000 C 
BRANCH  13  14
ATOM     14  C   UNL     1       3.217   3.182  19.236  0.00  0.00    +0.000 A 
ATOM     15  C   UNL     1       2.554   2.076  18.745  0.00  0.00    +0.000 A 
ATOM     16  C   UNL     1       1.172   2.351  18.864  0.00  0.00    +0.000 A 
ATOM     17  C   UNL     1       1.078   3.609  19.411  0.00  0.00    +0.000 A 
ATOM     18  O   UNL     1       2.314   4.124  19.640  0.00  0.00    +0.000 OA
ENDBRANCH  13  14
ENDBRANCH   3  13
TORSDOF 4
ENDMDL
MODEL 4
REMARK VINA RESULT:      -7.1      1.418      1.888
REMARK  Name = 
REMARK  6 active torsions:
REMARK  status: ('A' for Active; 'I' for Inactive)
REMARK    1  A    between atoms: C_1  and  C_2
REMARK    2  A    between atoms: C_2  and  C_3
REMARK    3  A    between atoms: C_2  and  C_4
REMARK    4  A    between atoms: C_6  and  C_7
REMARK    5  A    between atoms: N_9  and  C_10
REMARK    6  A    between atoms: C_10  and  C_11
REMARK                            x       y       z     vdW  Elec       q    Type
REMARK                         _______ _______ _______ _____ _____    ______ ____
ROOT
ATOM      1  C   UNL     1       5.735   4.439  18.427  0.00  0.00    +0.000 C 
ATOM      2  O   UNL     1       5.773   5.265  19.337  0.00  0.00    +0.000 OA
ATOM      3  N   UNL     1       5.163   3.196  18.576  0.00  0.00    +0.000 N 
ATOM      4  H   UNL     1       5.056   2.617  17.750  0.00  0.00    +0.000 HD
ENDROOT
BRANCH   1   7
ATOM      5  C   UNL     1       6.659   4.828  14.930  0.00  0.00    +0.000 A 
ATOM      6  C   UNL     1       5.841   4.244  15.865  0.00  0.00    +0.000 A 
ATOM      7  C   UNL     1       6.320   4.715  17.115  0.00  0.00    +0.000 A 
ATOM      8  N   UNL     1       7.403   5.495  16.944  0.00  0.00    +0.000 NA
ATOM      9  O   UNL     1       7.611   5.560  15.573  0.00  0.00    +0.000 OA
BRANCH   5  11
ATOM     10  C   UNL     1       8.025   5.253  12.895  0.00  0.00    +0.000 C 
ATOM     11  C   UNL     1       6.657   4.840  13.439  0.00  0.00    +0.000 C 
ATOM     12  C   UNL     1       6.221   3.499  12.856  0.00  0.00    +0.000 C 
ENDBRANCH   5  11
ENDBRANCH   1   7
BRANCH   3  13
ATOM     13  C   UNL     1       4.473   2.837  19.790  0.00  0.00    +0.000 C 
BRANCH  13  14
ATOM     14  C   UNL     1       3.010   2.820  19.554  0.00  0.00    +0.000 A 
ATOM     15  C   UNL     1       2.219   2.227  18.591  0.00  0.00    +0.000 A 
ATOM     16  C   UNL     1       0.880   2.528  18.930  0.00  0.00    +0.000 A 
ATOM     17  C   UNL     1       0.937   3.291  20.073  0.00  0.00    +0.000 A 
ATOM     18  O   UNL     1       2.226   3.475  20.460  0.00  0.00    +0.000 OA
ENDBRANCH  13  14
ENDBRANCH   3  13
TORSDOF 4
ENDMDL
MODEL 5
REMARK VINA RESULT:      -7.1      1.377      6.692
REMARK  Name = 
REMARK  6 active torsions:
REMARK  status: ('A' for Active; 'I' for Inactive)
REMARK    1  A    between atoms: C_1  and  C_2
REMARK    2  A    between atoms: C_2  and  C_3
REMARK    3  A    between atoms: C_2  and  C_4
REMARK    4  A    between atoms: C_6  and  C_7
REMARK    5  A    between atoms: N_9  and  C_10
REMARK    6  A    between atoms: C_10  and  C_11
REMARK                            x       y       z     vdW  Elec       q    Type
REMARK                         _______ _______ _______ _____ _____    ______ ____
ROOT
ATOM      1  C   UNL     1       6.035   4.743  18.511  0.00  0.00    +0.000 C 
ATOM      2  O   UNL     1       7.058   5.076  19.107  0.00  0.00    +0.000 OA
ATOM      3  N   UNL     1       5.849   4.977  17.167  0.00  0.00    +0.000 N 
ATOM      4  H   UNL     1       5.039   4.564  16.718  0.00  0.00    +0.000 HD
ENDROOT
BRANCH   1   7
ATOM      5  C   UNL     1       2.916   3.601  19.993  0.00  0.00    +0.000 A 
ATOM      6  C   UNL     1       3.613   4.600  19.363  0.00  0.00    +0.000 A 
ATOM      7  C   UNL     1       4.925   4.086  19.200  0.00  0.00    +0.000 A 
ATOM      8  N   UNL     1       5.026   2.863  19.753  0.00  0.00    +0.000 NA
ATOM      9  O   UNL     1       3.764   2.566  20.250  0.00  0.00    +0.000 OA
BRANCH   5  11
ATOM     10  C   UNL     1       0.698   2.743  19.262  0.00  0.00    +0.000 C 
ATOM     11  C   UNL     1       1.483   3.440  20.374  0.00  0.00    +0.000 C 
ATOM     12  C   UNL     1       1.323   2.701  21.699  0.00  0.00    +0.000 C 
ENDBRANCH   5  11
ENDBRANCH   1   7
BRANCH   3  13
ATOM     13  C   UNL     1       6.904   5.534  16.358  0.00  0.00    +0.000 C 
BRANCH  13  14
ATOM     14  C   UNL     1       6.862   4.947  14.998  0.00  0.00    +0.000 A 
ATOM     15  C   UNL     1       6.062   3.987  14.412  0.00  0.00    +0.000 A 
ATOM     16  C   UNL     1       6.470   3.895  13.061  0.00  0.00    +0.000 A 
ATOM     17  C   UNL     1       7.497   4.797  12.909  0.00  0.00    +0.000 A 
ATOM     18  O   UNL     1       7.743   5.442  14.079  0.00  0.00    +0.000 OA
ENDBRANCH  13  14
ENDBRANCH   3  13
TORSDOF 4
ENDMDL
MODEL 6
REMARK VINA RESULT:      -7.1      0.826      1.166
REMARK  Name = 
REMARK  6 active torsions:
REMARK  status: ('A' for Active; 'I' for Inactive)
REMARK    1  A    between atoms: C_1  and  C_2
REMARK    2  A    between atoms: C_2  and  C_3
REMARK    3  A    between atoms: C_2  and  C_4
REMARK    4  A    between atoms: C_6  and  C_7
REMARK    5  A    between atoms: N_9  and  C_10
REMARK    6  A    between atoms: C_10  and  C_11
REMARK                            x       y       z     vdW  Elec       q    Type
REMARK                         _______ _______ _______ _____ _____    ______ ____
ROOT
ATOM      1  C   UNL     1       6.441   4.369  17.496  0.00  0.00    +0.000 C 
ATOM      2  O   UNL     1       7.273   4.741  18.322  0.00  0.00    +0.000 OA
ATOM      3  N   UNL     1       5.240   3.802  17.857  0.00  0.00    +0.000 N 
ATOM      4  H   UNL     1       4.552   3.637  17.129  0.00  0.00    +0.000 HD
ENDROOT
BRANCH   1   7
ATOM      5  C   UNL     1       6.532   4.254  13.861  0.00  0.00    +0.000 A 
ATOM      6  C   UNL     1       6.043   3.738  15.035  0.00  0.00    +0.000 A 
ATOM      7  C   UNL     1       6.681   4.485  16.058  0.00  0.00    +0.000 A 
ATOM      8  N   UNL     1       7.550   5.366  15.528  0.00  0.00    +0.000 NA
ATOM      9  O   UNL     1       7.453   5.214  14.152  0.00  0.00    +0.000 OA
BRANCH   5  11
ATOM     10  C   UNL     1       7.280   3.110  11.783  0.00  0.00    +0.000 C 
ATOM     11  C   UNL     1       6.217   4.000  12.426  0.00  0.00    +0.000 C 
ATOM     12  C   UNL     1       4.824   3.405  12.243  0.00  0.00    +0.000 C 
ENDBRANCH   5  11
ENDBRANCH   1   7
BRANCH   3  13
ATOM     13  C   UNL     1       4.845   3.716  19.240  0.00  0.00    +0.000 C 
BRANCH  13  14
ATOM     14  C   UNL     1       3.368   3.770  19.349  0.00  0.00    +0.000 A 
ATOM     15  C   UNL     1       2.510   3.982  20.409  0.00  0.00    +0.000 A 
ATOM     16  C   UNL     1       1.201   3.974  19.874  0.00  0.00    +0.000 A 
ATOM     17  C   UNL     1       1.341   3.751  18.524  0.00  0.00    +0.000 A 
ATOM     18  O   UNL     1       2.653   3.624  18.194  0.00  0.00    +0.000 OA
ENDBRANCH  13  14
ENDBRANCH   3  13
TORSDOF 4
ENDMDL
MODEL 7
REMARK VINA RESULT:      -7.1      1.683      2.379
REMARK  Name = 
REMARK  6 active torsions:
REMARK  status: ('A' for Active; 'I' for Inactive)
REMARK    1  A    between atoms: C_1  and  C_2
REMARK    2  A    between atoms: C_2  and  C_3
REMARK    3  A    between atoms: C_2  and  C_4
REMARK    4  A    between atoms: C_6  and  C_7
REMARK    5  A    between atoms: N_9  and  C_10
REMARK    6  A    between atoms: C_10  and  C_11
REMARK                            x       y       z     vdW  Elec       q    Type
REMARK                         _______ _______ _______ _____ _____    ______ ____
ROOT
ATOM      1  C   UNL     1       6.817   5.272  16.088  0.00  0.00    +0.000 C 
ATOM      2  O   UNL     1       6.808   6.468  16.378  0.00  0.00    +0.000 OA
ATOM      3  N   UNL     1       6.820   4.277  17.039  0.00  0.00    +0.000 N 
ATOM      4  H   UNL     1       6.699   3.319  16.728  0.00  0.00    +0.000 HD
ENDROOT
BRANCH   1   7
ATOM      5  C   UNL     1       6.336   3.838  12.780  0.00  0.00    +0.000 A 
ATOM      6  C   UNL     1       5.977   3.868  14.104  0.00  0.00    +0.000 A 
ATOM      7  C   UNL     1       6.845   4.821  14.697  0.00  0.00    +0.000 A 
ATOM      8  N   UNL     1       7.716   5.297  13.789  0.00  0.00    +0.000 NA
ATOM      9  O   UNL     1       7.393   4.676  12.590  0.00  0.00    +0.000 OA
BRANCH   5  11
ATOM     10  C   UNL     1       6.190   1.665  11.577  0.00  0.00    +0.000 C 
ATOM     11  C   UNL     1       5.777   3.137  11.588  0.00  0.00    +0.000 C 
ATOM     12  C   UNL     1       4.260   3.279  11.500  0.00  0.00    +0.000 C 
ENDBRANCH   5  11
ENDBRANCH   1   7
BRANCH   3  13
ATOM     13  C   UNL     1       6.701   4.590  18.441  0.00  0.00    +0.000 C 
BRANCH  13  14
ATOM     14  C   UNL     1       5.292   4.436  18.875  0.00  0.00    +0.000 A 
ATOM     15  C   UNL     1       4.410   3.374  18.852  0.00  0.00    +0.000 A 
ATOM     16  C   UNL     1       3.219   3.829  19.463  0.00  0.00    +0.000 A 
ATOM     17  C   UNL     1       3.444   5.139  19.814  0.00  0.00    +0.000 A 
ATOM     18  O   UNL     1       4.699   5.519  19.461  0.00  0.00    +0.000 OA
ENDBRANCH  13  14
ENDBRANCH   3  13
TORSDOF 4
ENDMDL
MODEL 8
REMARK VINA RESULT:      -7.0      1.093      1.093
REMARK  Name = 
REMARK  6 active torsions:
REMARK  status: ('A' for Active; 'I' for Inactive)
REMARK    1  A    between atoms: C_1  and  C_2
REMARK    2  A    between atoms: C_2  and  C_3
REMARK    3  A    between atoms: C_2  and  C_4
REMARK    4  A    between atoms: C_6  and  C_7
REMARK    5  A    between atoms: N_9  and  C_10
REMARK    6  A    between atoms: C_10  and  C_11
REMARK                            x       y       z     vdW  Elec       q    Type
REMARK                         _______ _______ _______ _____ _____    ______ ____
ROOT
ATOM      1  C   UNL     1       5.075   5.987  17.302  0.00  0.00    +0.000 C 
ATOM      2  O   UNL     1       4.681   7.151  17.355  0.00  0.00    +0.000 OA
ATOM      3  N   UNL     1       4.842   5.079  18.310  0.00  0.00    +0.000 N 
ATOM      4  H   UNL     1       5.085   4.108  18.143  0.00  0.00    +0.000 HD
ENDROOT
BRANCH   1   7
ATOM      5  C   UNL     1       6.419   4.484  14.274  0.00  0.00    +0.000 A 
ATOM      6  C   UNL     1       5.381   4.589  15.166  0.00  0.00    +0.000 A 
ATOM      7  C   UNL     1       5.842   5.487  16.162  0.00  0.00    +0.000 A 
ATOM      8  N   UNL     1       7.111   5.859  15.912  0.00  0.00    +0.000 NA
ATOM      9  O   UNL     1       7.467   5.225  14.729  0.00  0.00    +0.000 OA
BRANCH   5  11
ATOM     10  C   UNL     1       5.207   3.413  12.384  0.00  0.00    +0.000 C 
ATOM     11  C   UNL     1       6.571   3.791  12.963  0.00  0.00    +0.000 C 
ATOM     12  C   UNL     1       7.374   4.622  11.967  0.00  0.00    +0.000 C 
ENDBRANCH   5  11
ENDBRANCH   1   7
BRANCH   3  13
ATOM     13  C   UNL     1       4.021   5.422  19.443  0.00  0.00    +0.000 C 
BRANCH  13  14
ATOM     14  C   UNL     1       2.823   4.549  19.482  0.00  0.00    +0.000 A 
ATOM     15  C   UNL     1       1.961   4.179  20.495  0.00  0.00    +0.000 A 
ATOM     16  C   UNL     1       0.969   3.366  19.900  0.00  0.00    +0.000 A 
ATOM     17  C   UNL     1       1.290   3.285  18.565  0.00  0.00    +0.000 A 
ATOM     18  O   UNL     1       2.415   3.999  18.300  0.00  0.00    +0.000 OA
ENDBRANCH  13  14
ENDBRANCH   3  13
TORSDOF 4
ENDMDL
MODEL 9
REMARK VINA RESULT:      -7.0      0.894      1.236
REMARK  Name = 
REMARK  6 active torsions:
REMARK  status: ('A' for Active; 'I' for Inactive)
REMARK    1  A    between atoms: C_1  and  C_2
REMARK    2  A    between atoms: C_2  and  C_3
REMARK    3  A    between atoms: C_2  and  C_4
REMARK    4  A    between atoms: C_6  and  C_7
REMARK    5  A    between atoms: N_9  and  C_10
REMARK    6  A    between atoms: C_10  and  C_11
REMARK                            x       y       z     vdW  Elec       q    Type
REMARK                         _______ _______ _______ _____ _____    ______ ____
ROOT
ATOM      1  C   UNL     1       5.572   4.660  18.279  0.00  0.00    +0.000 C 
ATOM      2  O   UNL     1       6.063   4.074  19.243  0.00  0.00    +0.000 OA
ATOM      3  N   UNL     1       4.376   5.338  18.353  0.00  0.00    +0.000 N 
ATOM      4  H   UNL     1       4.097   5.901  17.557  0.00  0.00    +0.000 HD
ENDROOT
BRANCH   1   7
ATOM      5  C   UNL     1       6.581   4.661  14.784  0.00  0.00    +0.000 A 
ATOM      6  C   UNL     1       5.580   4.514  15.712  0.00  0.00    +0.000 A 
ATOM      7  C   UNL     1       6.221   4.660  16.969  0.00  0.00    +0.000 A 
ATOM      8  N   UNL     1       7.547   4.830  16.807  0.00  0.00    +0.000 NA
ATOM      9  O   UNL     1       7.765   4.827  15.436  0.00  0.00    +0.000 OA
BRANCH   5  11
ATOM     10  C   UNL     1       7.956   5.163  12.773  0.00  0.00    +0.000 C 
ATOM     11  C   UNL     1       6.590   4.717  13.294  0.00  0.00    +0.000 C 
ATOM     12  C   UNL     1       6.175   3.388  12.669  0.00  0.00    +0.000 C 
ENDBRANCH   5  11
ENDBRANCH   1   7
BRANCH   3  13
ATOM     13  C   UNL     1       3.685   5.489  19.609  0.00  0.00    +0.000 C 
BRANCH  13  14
ATOM     14  C   UNL     1       2.572   4.513  19.695  0.00  0.00    +0.000 A 
ATOM     15  C   UNL     1       1.717   4.149  20.715  0.00  0.00    +0.000 A 
ATOM     16  C   UNL     1       0.823   3.199  20.169  0.00  0.00    +0.000 A 
ATOM     17  C   UNL     1       1.192   3.038  18.854  0.00  0.00    +0.000 A 
ATOM     18  O   UNL     1       2.254   3.831  18.555  0.00  0.00    +0.000 OA
ENDBRANCH  13  14
ENDBRANCH   3  13
TORSDOF 4
ENDMDL
