MODEL 1
REMARK VINA RESULT:      -7.8      0.000      0.000
REMARK  Name = 
REMARK  9 active torsions:
REMARK  status: ('A' for Active; 'I' for Inactive)
REMARK    1  A    between atoms: C_1  and  O_2
REMARK    2  A    between atoms: O_2  and  C_3
REMARK    3  A    between atoms: C_5  and  O_6
REMARK    4  A    between atoms: O_6  and  C_7
REMARK    5  A    between atoms: C_9  and  C_10
REMARK    6  A    between atoms: N_12  and  C_13
REMARK    7  A    between atoms: C_13  and  N_15
REMARK    8  A    between atoms: N_15  and  C_16
REMARK    9  A    between atoms: C_21  and  O_22
REMARK                            x       y       z     vdW  Elec       q    Type
REMARK                         _______ _______ _______ _____ _____    ______ ____
ROOT
ATOM      1  C   UNL     1       2.910   5.115  19.990  0.00  0.00    +0.000 C 
ATOM      2  S   UNL     1       2.307   3.598  19.643  0.00  0.00    +0.000 S 
ENDROOT
BRANCH   1   5
ATOM      3  C   UNL     1       2.206   7.468  19.509  0.00  0.00    +0.000 C 
ATOM      4  O   UNL     1       2.741   7.587  18.411  0.00  0.00    +0.000 OA
ATOM      5  N   UNL     1       2.190   6.280  20.224  0.00  0.00    +0.000 N 
ATOM      6  H   UNL     1       1.586   6.219  21.026  0.00  0.00    +0.000 HD
BRANCH   3  11
ATOM      7  C   UNL     1       0.378   9.973  21.784  0.00  0.00    +0.000 A 
ATOM      8  C   UNL     1      -0.048  10.880  20.807  0.00  0.00    +0.000 A 
ATOM      9  C   UNL     1       0.245  10.676  19.461  0.00  0.00    +0.000 A 
ATOM     10  C   UNL     1       0.988   9.560  19.097  0.00  0.00    +0.000 A 
ATOM     11  C   UNL     1       1.425   8.629  20.055  0.00  0.00    +0.000 A 
ATOM     12  C   UNL     1       1.114   8.841  21.409  0.00  0.00    +0.000 A 
BRANCH   7  14
ATOM     13  C   UNL     1      -1.196  11.064  23.214  0.00  0.00    +0.000 C 
ATOM     14  O   UNL     1      -0.002  10.312  23.055  0.00  0.00    +0.000 OA
ENDBRANCH   7  14
BRANCH   9  15
ATOM     15  O   UNL     1      -0.244  11.617  18.597  0.00  0.00    +0.000 OA
ATOM     16  C   UNL     1      -0.917  12.725  19.188  0.00  0.00    +0.000 C 
ENDBRANCH   9  15
ENDBRANCH   3  11
ENDBRANCH   1   5
BRANCH   1  17
ATOM     17  N   UNL     1       4.277   5.296  19.955  0.00  0.00    +0.000 N 
ATOM     18  H   UNL     1       4.679   5.695  20.798  0.00  0.00    +0.000 HD
BRANCH  17  19
ATOM     19  C   UNL     1       5.118   5.200  18.826  0.00  0.00    +0.000 A 
ATOM     20  C   UNL     1       6.479   5.471  18.994  0.00  0.00    +0.000 A 
ATOM     21  C   UNL     1       7.388   5.327  17.939  0.00  0.00    +0.000 A 
ATOM     22  C   UNL     1       6.864   4.925  16.710  0.00  0.00    +0.000 A 
ATOM     23  N   UNL     1       7.437   4.665  15.491  0.00  0.00    +0.000 N 
ATOM     24  C   UNL     1       6.437   4.307  14.627  0.00  0.00    +0.000 A 
ATOM     25  N   UNL     1       5.263   4.334  15.200  0.00  0.00    +0.000 NA
ATOM     26  C   UNL     1       5.508   4.705  16.496  0.00  0.00    +0.000 A 
ATOM     27  C   UNL     1       4.614   4.863  17.561  0.00  0.00    +0.000 A 
ATOM     28  H   UNL     1       8.420   4.725  15.276  0.00  0.00    +0.000 HD
BRANCH  24  29
ATOM     29  O   UNL     1       6.616   3.967  13.364  0.00  0.00    +0.000 OA
ATOM     30  H   UNL     1       7.042   3.100  13.321  0.00  0.00    +0.000 HD
ENDBRANCH  24  29
ENDBRANCH  17  19
ENDBRANCH   1  17
TORSDOF 7
ENDMDL
MODEL 2
REMARK VINA RESULT:      -7.8      3.545      8.511
REMARK  Name = 
REMARK  9 active torsions:
REMARK  status: ('A' for Active; 'I' for Inactive)
REMARK    1  A    between atoms: C_1  and  O_2
REMARK    2  A    between atoms: O_2  and  C_3
REMARK    3  A    between atoms: C_5  and  O_6
REMARK    4  A    between atoms: O_6  and  C_7
REMARK    5  A    between atoms: C_9  and  C_10
REMARK    6  A    between atoms: N_12  and  C_13
REMARK    7  A    between atoms: C_13  and  N_15
REMARK    8  A    between atoms: N_15  and  C_16
REMARK    9  A    between atoms: C_21  and  O_22
REMARK                            x       y       z     vdW  Elec       q    Type
REMARK                         _______ _______ _______ _____ _____    ______ ____
ROOT
ATOM      1  C   UNL     1       1.171   9.036  20.409  0.00  0.00    +0.000 C 
ATOM      2  S   UNL     1       0.730   9.200  22.009  0.00  0.00    +0.000 S 
ENDROOT
BRANCH   1   5
ATOM      3  C   UNL     1       2.422   7.884  18.573  0.00  0.00    +0.000 C 
ATOM      4  O   UNL     1       2.681   8.873  17.894  0.00  0.00    +0.000 OA
ATOM      5  N   UNL     1       1.797   7.951  19.809  0.00  0.00    +0.000 N 
ATOM      6  H   UNL     1       1.779   7.120  20.374  0.00  0.00    +0.000 HD
BRANCH   3  11
ATOM      7  C   UNL     1       4.511   4.973  17.176  0.00  0.00    +0.000 A 
ATOM      8  C   UNL     1       3.560   3.952  17.289  0.00  0.00    +0.000 A 
ATOM      9  C   UNL     1       2.288   4.208  17.794  0.00  0.00    +0.000 A 
ATOM     10  C   UNL     1       1.976   5.497  18.205  0.00  0.00    +0.000 A 
ATOM     11  C   UNL     1       2.908   6.544  18.101  0.00  0.00    +0.000 A 
ATOM     12  C   UNL     1       4.186   6.275  17.579  0.00  0.00    +0.000 A 
BRANCH   7  14
ATOM     13  C   UNL     1       6.898   5.084  17.215  0.00  0.00    +0.000 C 
ATOM     14  O   UNL     1       5.706   4.559  16.651  0.00  0.00    +0.000 OA
ENDBRANCH   7  14
BRANCH   9  15
ATOM     15  O   UNL     1       1.438   3.137  17.834  0.00  0.00    +0.000 OA
ATOM     16  C   UNL     1       1.102   2.647  19.129  0.00  0.00    +0.000 C 
ENDBRANCH   9  15
ENDBRANCH   3  11
ENDBRANCH   1   5
BRANCH   1  17
ATOM     17  N   UNL     1       0.998  10.119  19.571  0.00  0.00    +0.000 N 
ATOM     18  H   UNL     1       1.768  10.781  19.561  0.00  0.00    +0.000 HD
BRANCH  17  19
ATOM     19  C   UNL     1      -0.192  10.507  18.921  0.00  0.00    +0.000 A 
ATOM     20  C   UNL     1      -0.878  11.622  19.413  0.00  0.00    +0.000 A 
ATOM     21  C   UNL     1      -2.025  12.112  18.778  0.00  0.00    +0.000 A 
ATOM     22  C   UNL     1      -2.463  11.418  17.649  0.00  0.00    +0.000 A 
ATOM     23  N   UNL     1      -3.508  11.612  16.782  0.00  0.00    +0.000 N 
ATOM     24  C   UNL     1      -3.465  10.613  15.847  0.00  0.00    +0.000 A 
ATOM     25  N   UNL     1      -2.478   9.782  16.063  0.00  0.00    +0.000 NA
ATOM     26  C   UNL     1      -1.839  10.272  17.172  0.00  0.00    +0.000 A 
ATOM     27  C   UNL     1      -0.698   9.793  17.824  0.00  0.00    +0.000 A 
ATOM     28  H   UNL     1      -4.181  12.361  16.826  0.00  0.00    +0.000 HD
BRANCH  24  29
ATOM     29  O   UNL     1      -4.307  10.484  14.838  0.00  0.00    +0.000 OA
ATOM     30  H   UNL     1      -3.874  10.765  14.020  0.00  0.00    +0.000 HD
ENDBRANCH  24  29
ENDBRANCH  17  19
ENDBRANCH   1  17
TORSDOF 7
ENDMDL
MODEL 3
REMARK VINA RESULT:      -7.8      3.540      8.484
REMARK  Name = 
REMARK  9 active torsions:
REMARK  status: ('A' for Active; 'I' for Inactive)
REMARK    1  A    between atoms: C_1  and  O_2
REMARK    2  A    between atoms: O_2  and  C_3
REMARK    3  A    between atoms: C_5  and  O_6
REMARK    4  A    between atoms: O_6  and  C_7
REMARK    5  A    between atoms: C_9  and  C_10
REMARK    6  A    between atoms: N_12  and  C_13
REMARK    7  A    between atoms: C_13  and  N_15
REMARK    8  A    between atoms: N_15  and  C_16
REMARK    9  A    between atoms: C_21  and  O_22
REMARK                            x       y       z     vdW  Elec       q    Type
REMARK                         _______ _______ _______ _____ _____    ______ ____
ROOT
ATOM      1  C   UNL     1       1.028   8.852  20.690  0.00  0.00    +0.000 C 
ATOM      2  S   UNL     1       0.093   9.190  22.029  0.00  0.00    +0.000 S 
ENDROOT
BRANCH   1   5
ATOM      3  C   UNL     1       2.356   7.241  19.310  0.00  0.00    +0.000 C 
ATOM      4  O   UNL     1       2.247   7.810  18.228  0.00  0.00    +0.000 OA
ATOM      5  N   UNL     1       1.873   7.766  20.499  0.00  0.00    +0.000 N 
ATOM      6  H   UNL     1       2.154   7.326  21.359  0.00  0.00    +0.000 HD
BRANCH   3  11
ATOM      7  C   UNL     1       5.112   4.570  19.056  0.00  0.00    +0.000 A 
ATOM      8  C   UNL     1       4.414   3.488  19.604  0.00  0.00    +0.000 A 
ATOM      9  C   UNL     1       3.096   3.625  20.032  0.00  0.00    +0.000 A 
ATOM     10  C   UNL     1       2.481   4.867  19.924  0.00  0.00    +0.000 A 
ATOM     11  C   UNL     1       3.155   5.971  19.374  0.00  0.00    +0.000 A 
ATOM     12  C   UNL     1       4.482   5.816  18.936  0.00  0.00    +0.000 A 
BRANCH   7  14
ATOM     13  C   UNL     1       6.835   4.727  17.407  0.00  0.00    +0.000 C 
ATOM     14  O   UNL     1       6.391   4.266  18.675  0.00  0.00    +0.000 OA
ENDBRANCH   7  14
BRANCH   9  15
ATOM     15  O   UNL     1       2.511   2.493  20.528  0.00  0.00    +0.000 OA
ATOM     16  C   UNL     1       1.480   2.687  21.492  0.00  0.00    +0.000 C 
ENDBRANCH   9  15
ENDBRANCH   3  11
ENDBRANCH   1   5
BRANCH   1  17
ATOM     17  N   UNL     1       1.069   9.782  19.672  0.00  0.00    +0.000 N 
ATOM     18  H   UNL     1       1.971  10.228  19.535  0.00  0.00    +0.000 HD
BRANCH  17  19
ATOM     19  C   UNL     1      -0.029  10.325  18.974  0.00  0.00    +0.000 A 
ATOM     20  C   UNL     1      -0.410  11.639  19.266  0.00  0.00    +0.000 A 
ATOM     21  C   UNL     1      -1.444  12.272  18.564  0.00  0.00    +0.000 A 
ATOM     22  C   UNL     1      -2.089  11.519  17.582  0.00  0.00    +0.000 A 
ATOM     23  N   UNL     1      -3.102  11.805  16.703  0.00  0.00    +0.000 N 
ATOM     24  C   UNL     1      -3.341  10.680  15.961  0.00  0.00    +0.000 A 
ATOM     25  N   UNL     1      -2.565   9.688  16.313  0.00  0.00    +0.000 NA
ATOM     26  C   UNL     1      -1.773  10.194  17.310  0.00  0.00    +0.000 A 
ATOM     27  C   UNL     1      -0.743   9.575  18.027  0.00  0.00    +0.000 A 
ATOM     28  H   UNL     1      -3.580  12.689  16.619  0.00  0.00    +0.000 HD
BRANCH  24  29
ATOM     29  O   UNL     1      -4.241  10.586  14.999  0.00  0.00    +0.000 OA
ATOM     30  H   UNL     1      -5.072  10.257  15.368  0.00  0.00    +0.000 HD
ENDBRANCH  24  29
ENDBRANCH  17  19
ENDBRANCH   1  17
TORSDOF 7
ENDMDL
MODEL 4
REMARK VINA RESULT:      -7.7      1.571      1.866
REMARK  Name = 
REMARK  9 active torsions:
REMARK  status: ('A' for Active; 'I' for Inactive)
REMARK    1  A    between atoms: C_1  and  O_2
REMARK    2  A    between atoms: O_2  and  C_3
REMARK    3  A    between atoms: C_5  and  O_6
REMARK    4  A    between atoms: O_6  and  C_7
REMARK    5  A    between atoms: C_9  and  C_10
REMARK    6  A    between atoms: N_12  and  C_13
REMARK    7  A    between atoms: C_13  and  N_15
REMARK    8  A    between atoms: N_15  and  C_16
REMARK    9  A    between atoms: C_21  and  O_22
REMARK                            x       y       z     vdW  Elec       q    Type
REMARK                         _______ _______ _______ _____ _____    ______ ____
ROOT
ATOM      1  C   UNL     1       2.213   3.603  18.952  0.00  0.00    +0.000 C 
ATOM      2  S   UNL     1       1.063   2.417  18.717  0.00  0.00    +0.000 S 
ENDROOT
BRANCH   1   5
ATOM      3  C   UNL     1       2.093   5.734  20.258  0.00  0.00    +0.000 C 
ATOM      4  O   UNL     1       2.577   5.321  21.307  0.00  0.00    +0.000 OA
ATOM      5  N   UNL     1       2.003   4.967  19.106  0.00  0.00    +0.000 N 
ATOM      6  H   UNL     1       1.756   5.431  18.249  0.00  0.00    +0.000 HD
BRANCH   3  11
ATOM      7  C   UNL     1       0.664   9.234  20.967  0.00  0.00    +0.000 A 
ATOM      8  C   UNL     1       1.042   9.866  19.777  0.00  0.00    +0.000 A 
ATOM      9  C   UNL     1       1.727   9.173  18.783  0.00  0.00    +0.000 A 
ATOM     10  C   UNL     1       2.053   7.839  18.995  0.00  0.00    +0.000 A 
ATOM     11  C   UNL     1       1.684   7.177  20.178  0.00  0.00    +0.000 A 
ATOM     12  C   UNL     1       0.982   7.884  21.170  0.00  0.00    +0.000 A 
BRANCH   7  14
ATOM     13  C   UNL     1      -0.232   9.578  23.156  0.00  0.00    +0.000 C 
ATOM     14  O   UNL     1      -0.012  10.049  21.835  0.00  0.00    +0.000 OA
ENDBRANCH   7  14
BRANCH   9  15
ATOM     15  O   UNL     1       2.021   9.889  17.654  0.00  0.00    +0.000 OA
ATOM     16  C   UNL     1       2.351  11.262  17.847  0.00  0.00    +0.000 C 
ENDBRANCH   9  15
ENDBRANCH   3  11
ENDBRANCH   1   5
BRANCH   1  17
ATOM     17  N   UNL     1       3.543   3.241  18.895  0.00  0.00    +0.000 N 
ATOM     18  H   UNL     1       3.835   2.571  19.600  0.00  0.00    +0.000 HD
BRANCH  17  19
ATOM     19  C   UNL     1       4.558   3.855  18.132  0.00  0.00    +0.000 A 
ATOM     20  C   UNL     1       5.593   4.504  18.812  0.00  0.00    +0.000 A 
ATOM     21  C   UNL     1       6.673   5.073  18.126  0.00  0.00    +0.000 A 
ATOM     22  C   UNL     1       6.650   4.982  16.734  0.00  0.00    +0.000 A 
ATOM     23  N   UNL     1       7.522   5.393  15.758  0.00  0.00    +0.000 N 
ATOM     24  C   UNL     1       6.988   5.044  14.547  0.00  0.00    +0.000 A 
ATOM     25  N   UNL     1       5.829   4.454  14.675  0.00  0.00    +0.000 NA
ATOM     26  C   UNL     1       5.608   4.397  16.027  0.00  0.00    +0.000 A 
ATOM     27  C   UNL     1       4.532   3.841  16.729  0.00  0.00    +0.000 A 
ATOM     28  H   UNL     1       8.401   5.864  15.911  0.00  0.00    +0.000 HD
BRANCH  24  29
ATOM     29  O   UNL     1       7.559   5.265  13.377  0.00  0.00    +0.000 OA
ATOM     30  H   UNL     1       7.820   6.194  13.317  0.00  0.00    +0.000 HD
ENDBRANCH  24  29
ENDBRANCH  17  19
ENDBRANCH   1  17
TORSDOF 7
ENDMDL
MODEL 5
REMARK VINA RESULT:      -7.7      1.163      1.270
REMARK  Name = 
REMARK  9 active torsions:
REMARK  status: ('A' for Active; 'I' for Inactive)
REMARK    1  A    between atoms: C_1  and  O_2
REMARK    2  A    between atoms: O_2  and  C_3
REMARK    3  A    between atoms: C_5  and  O_6
REMARK    4  A    between atoms: O_6  and  C_7
REMARK    5  A    between atoms: C_9  and  C_10
REMARK    6  A    between atoms: N_12  and  C_13
REMARK    7  A    between atoms: C_13  and  N_15
REMARK    8  A    between atoms: N_15  and  C_16
REMARK    9  A    between atoms: C_21  and  O_22
REMARK                            x       y       z     vdW  Elec       q    Type
REMARK                         _______ _______ _______ _____ _____    ______ ____
ROOT
ATOM      1  C   UNL     1       3.914   4.166  19.843  0.00  0.00    +0.000 C 
ATOM      2  S   UNL     1       3.380   2.588  19.755  0.00  0.00    +0.000 S 
ENDROOT
BRANCH   1   5
ATOM      3  C   UNL     1       2.678   6.244  19.197  0.00  0.00    +0.000 C 
ATOM      4  O   UNL     1       2.698   6.085  17.980  0.00  0.00    +0.000 OA
ATOM      5  N   UNL     1       3.158   5.304  20.096  0.00  0.00    +0.000 N 
ATOM      6  H   UNL     1       2.948   5.432  21.071  0.00  0.00    +0.000 HD
BRANCH   3  11
ATOM      7  C   UNL     1       0.911   8.809  21.453  0.00  0.00    +0.000 A 
ATOM      8  C   UNL     1       0.747   9.839  20.520  0.00  0.00    +0.000 A 
ATOM      9  C   UNL     1       1.189   9.697  19.207  0.00  0.00    +0.000 A 
ATOM     10  C   UNL     1       1.818   8.515  18.835  0.00  0.00    +0.000 A 
ATOM     11  C   UNL     1       1.994   7.461  19.748  0.00  0.00    +0.000 A 
ATOM     12  C   UNL     1       1.533   7.613  21.068  0.00  0.00    +0.000 A 
BRANCH   7  14
ATOM     13  C   UNL     1      -0.420  10.247  22.822  0.00  0.00    +0.000 C 
ATOM     14  O   UNL     1       0.411   9.102  22.693  0.00  0.00    +0.000 OA
ENDBRANCH   7  14
BRANCH   9  15
ATOM     15  O   UNL     1       0.952  10.761  18.382  0.00  0.00    +0.000 OA
ATOM     16  C   UNL     1       0.752  12.020  19.018  0.00  0.00    +0.000 C 
ENDBRANCH   9  15
ENDBRANCH   3  11
ENDBRANCH   1   5
BRANCH   1  17
ATOM     17  N   UNL     1       5.235   4.424  19.541  0.00  0.00    +0.000 N 
ATOM     18  H   UNL     1       5.843   4.550  20.345  0.00  0.00    +0.000 HD
BRANCH  17  19
ATOM     19  C   UNL     1       5.770   4.746  18.276  0.00  0.00    +0.000 A 
ATOM     20  C   UNL     1       6.661   5.821  18.192  0.00  0.00    +0.000 A 
ATOM     21  C   UNL     1       7.288   6.156  16.986  0.00  0.00    +0.000 A 
ATOM     22  C   UNL     1       6.960   5.383  15.871  0.00  0.00    +0.000 A 
ATOM     23  N   UNL     1       7.381   5.402  14.566  0.00  0.00    +0.000 N 
ATOM     24  C   UNL     1       6.717   4.408  13.899  0.00  0.00    +0.000 A 
ATOM     25  N   UNL     1       5.889   3.763  14.679  0.00  0.00    +0.000 NA
ATOM     26  C   UNL     1       6.034   4.348  15.910  0.00  0.00    +0.000 A 
ATOM     27  C   UNL     1       5.411   4.033  17.122  0.00  0.00    +0.000 A 
ATOM     28  H   UNL     1       8.060   6.035  14.173  0.00  0.00    +0.000 HD
BRANCH  24  29
ATOM     29  O   UNL     1       6.880   4.116  12.622  0.00  0.00    +0.000 OA
ATOM     30  H   UNL     1       6.970   4.934  12.113  0.00  0.00    +0.000 HD
ENDBRANCH  24  29
ENDBRANCH  17  19
ENDBRANCH   1  17
TORSDOF 7
ENDMDL
MODEL 6
REMARK VINA RESULT:      -7.7      3.534      8.934
REMARK  Name = 
REMARK  9 active torsions:
REMARK  status: ('A' for Active; 'I' for Inactive)
REMARK    1  A    between atoms: C_1  and  O_2
REMARK    2  A    between atoms: O_2  and  C_3
REMARK    3  A    between atoms: C_5  and  O_6
REMARK    4  A    between atoms: O_6  and  C_7
REMARK    5  A    between atoms: C_9  and  C_10
REMARK    6  A    between atoms: N_12  and  C_13
REMARK    7  A    between atoms: C_13  and  N_15
REMARK    8  A    between atoms: N_15  and  C_16
REMARK    9  A    between atoms: C_21  and  O_22
REMARK                            x       y       z     vdW  Elec       q    Type
REMARK                         _______ _______ _______ _____ _____    ______ ____
ROOT
ATOM      1  C   UNL     1       1.321   8.938  20.220  0.00  0.00    +0.000 C 
ATOM      2  S   UNL     1       1.006   9.141  21.846  0.00  0.00    +0.000 S 
ENDROOT
BRANCH   1   5
ATOM      3  C   UNL     1       2.423   7.769  18.301  0.00  0.00    +0.000 C 
ATOM      4  O   UNL     1       2.461   8.716  17.521  0.00  0.00    +0.000 OA
ATOM      5  N   UNL     1       1.980   7.878  19.611  0.00  0.00    +0.000 N 
ATOM      6  H   UNL     1       2.144   7.103  20.230  0.00  0.00    +0.000 HD
BRANCH   3  11
ATOM      7  C   UNL     1       3.001   4.051  17.509  0.00  0.00    +0.000 A 
ATOM      8  C   UNL     1       4.281   4.145  16.951  0.00  0.00    +0.000 A 
ATOM      9  C   UNL     1       4.929   5.373  16.845  0.00  0.00    +0.000 A 
ATOM     10  C   UNL     1       4.277   6.517  17.288  0.00  0.00    +0.000 A 
ATOM     11  C   UNL     1       2.993   6.453  17.857  0.00  0.00    +0.000 A 
ATOM     12  C   UNL     1       2.354   5.206  17.968  0.00  0.00    +0.000 A 
BRANCH   7  14
ATOM     13  C   UNL     1       3.291   1.781  18.201  0.00  0.00    +0.000 C 
ATOM     14  O   UNL     1       2.510   2.773  17.551  0.00  0.00    +0.000 OA
ENDBRANCH   7  14
BRANCH   9  15
ATOM     15  O   UNL     1       6.185   5.338  16.305  0.00  0.00    +0.000 OA
ATOM     16  C   UNL     1       7.184   4.675  17.075  0.00  0.00    +0.000 C 
ENDBRANCH   9  15
ENDBRANCH   3  11
ENDBRANCH   1   5
BRANCH   1  17
ATOM     17  N   UNL     1       0.992   9.965  19.359  0.00  0.00    +0.000 N 
ATOM     18  H   UNL     1       1.783  10.462  18.961  0.00  0.00    +0.000 HD
BRANCH  17  19
ATOM     19  C   UNL     1      -0.287  10.525  19.157  0.00  0.00    +0.000 A 
ATOM     20  C   UNL     1      -0.658  11.621  19.944  0.00  0.00    +0.000 A 
ATOM     21  C   UNL     1      -1.880  12.276  19.752  0.00  0.00    +0.000 A 
ATOM     22  C   UNL     1      -2.717  11.766  18.759  0.00  0.00    +0.000 A 
ATOM     23  N   UNL     1      -3.947  12.151  18.287  0.00  0.00    +0.000 N 
ATOM     24  C   UNL     1      -4.305  11.277  17.296  0.00  0.00    +0.000 A 
ATOM     25  N   UNL     1      -3.401  10.350  17.110  0.00  0.00    +0.000 NA
ATOM     26  C   UNL     1      -2.403  10.644  18.002  0.00  0.00    +0.000 A 
ATOM     27  C   UNL     1      -1.181   9.997  18.213  0.00  0.00    +0.000 A 
ATOM     28  H   UNL     1      -4.484  12.939  18.612  0.00  0.00    +0.000 HD
BRANCH  24  29
ATOM     29  O   UNL     1      -5.423  11.344  16.597  0.00  0.00    +0.000 OA
ATOM     30  H   UNL     1      -5.984  10.587  16.814  0.00  0.00    +0.000 HD
ENDBRANCH  24  29
ENDBRANCH  17  19
ENDBRANCH   1  17
TORSDOF 7
ENDMDL
MODEL 7
REMARK VINA RESULT:      -7.7      3.474      8.762
REMARK  Name = 
REMARK  9 active torsions:
REMARK  status: ('A' for Active; 'I' for Inactive)
REMARK    1  A    between atoms: C_1  and  O_2
REMARK    2  A    between atoms: O_2  and  C_3
REMARK    3  A    between atoms: C_5  and  O_6
REMARK    4  A    between atoms: O_6  and  C_7
REMARK    5  A    between atoms: C_9  and  C_10
REMARK    6  A    between atoms: N_12  and  C_13
REMARK    7  A    between atoms: C_13  and  N_15
REMARK    8  A    between atoms: N_15  and  C_16
REMARK    9  A    between atoms: C_21  and  O_22
REMARK                            x       y       z     vdW  Elec       q    Type
REMARK                         _______ _______ _______ _____ _____    ______ ____
ROOT
ATOM      1  C   UNL     1       1.288   8.775  20.013  0.00  0.00    +0.000 C 
ATOM      2  S   UNL     1       0.511   8.586  21.478  0.00  0.00    +0.000 S 
ENDROOT
BRANCH   1   5
ATOM      3  C   UNL     1       2.662   7.901  18.114  0.00  0.00    +0.000 C 
ATOM      4  O   UNL     1       2.456   8.813  17.318  0.00  0.00    +0.000 OA
ATOM      5  N   UNL     1       2.201   7.913  19.421  0.00  0.00    +0.000 N 
ATOM      6  H   UNL     1       2.558   7.217  20.054  0.00  0.00    +0.000 HD
BRANCH   3  11
ATOM      7  C   UNL     1       5.419   5.742  16.524  0.00  0.00    +0.000 A 
ATOM      8  C   UNL     1       5.058   4.501  17.061  0.00  0.00    +0.000 A 
ATOM      9  C   UNL     1       3.955   4.376  17.901  0.00  0.00    +0.000 A 
ATOM     10  C   UNL     1       3.220   5.512  18.219  0.00  0.00    +0.000 A 
ATOM     11  C   UNL     1       3.556   6.771  17.691  0.00  0.00    +0.000 A 
ATOM     12  C   UNL     1       4.666   6.882  16.835  0.00  0.00    +0.000 A 
BRANCH   7  14
ATOM     13  C   UNL     1       6.666   4.562  14.861  0.00  0.00    +0.000 C 
ATOM     14  O   UNL     1       6.518   5.692  15.708  0.00  0.00    +0.000 OA
ENDBRANCH   7  14
BRANCH   9  15
ATOM     15  O   UNL     1       3.686   3.111  18.345  0.00  0.00    +0.000 OA
ATOM     16  C   UNL     1       2.597   2.441  17.717  0.00  0.00    +0.000 C 
ENDBRANCH   9  15
ENDBRANCH   3  11
ENDBRANCH   1   5
BRANCH   1  17
ATOM     17  N   UNL     1       1.102   9.956  19.325  0.00  0.00    +0.000 N 
ATOM     18  H   UNL     1       1.878  10.609  19.375  0.00  0.00    +0.000 HD
BRANCH  17  19
ATOM     19  C   UNL     1      -0.103  10.432  18.765  0.00  0.00    +0.000 A 
ATOM     20  C   UNL     1      -0.635  11.625  19.265  0.00  0.00    +0.000 A 
ATOM     21  C   UNL     1      -1.787  12.197  18.712  0.00  0.00    +0.000 A 
ATOM     22  C   UNL     1      -2.388  11.507  17.659  0.00  0.00    +0.000 A 
ATOM     23  N   UNL     1      -3.486  11.768  16.879  0.00  0.00    +0.000 N 
ATOM     24  C   UNL     1      -3.621  10.736  15.990  0.00  0.00    +0.000 A 
ATOM     25  N   UNL     1      -2.699   9.824  16.155  0.00  0.00    +0.000 NA
ATOM     26  C   UNL     1      -1.918  10.291  17.180  0.00  0.00    +0.000 A 
ATOM     27  C   UNL     1      -0.770   9.729  17.751  0.00  0.00    +0.000 A 
ATOM     28  H   UNL     1      -4.082  12.578  16.949  0.00  0.00    +0.000 HD
BRANCH  24  29
ATOM     29  O   UNL     1      -4.560  10.651  15.066  0.00  0.00    +0.000 OA
ATOM     30  H   UNL     1      -4.220  10.996  14.229  0.00  0.00    +0.000 HD
ENDBRANCH  24  29
ENDBRANCH  17  19
ENDBRANCH   1  17
TORSDOF 7
ENDMDL
MODEL 8
REMARK VINA RESULT:      -7.6      2.265      8.262
REMARK  Name = 
REMARK  9 active torsions:
REMARK  status: ('A' for Active; 'I' for Inactive)
REMARK    1  A    between atoms: C_1  and  O_2
REMARK    2  A    between atoms: O_2  and  C_3
REMARK    3  A    between atoms: C_5  and  O_6
REMARK    4  A    between atoms: O_6  and  C_7
REMARK    5  A    between atoms: C_9  and  C_10
REMARK    6  A    between atoms: N_12  and  C_13
REMARK    7  A    between atoms: C_13  and  N_15
REMARK    8  A    between atoms: N_15  and  C_16
REMARK    9  A    between atoms: C_21  and  O_22
REMARK                            x       y       z     vdW  Elec       q    Type
REMARK                         _______ _______ _______ _____ _____    ______ ____
ROOT
ATOM      1  C   UNL     1       2.325   5.116  20.002  0.00  0.00    +0.000 C 
ATOM      2  S   UNL     1       1.456   3.861  20.677  0.00  0.00    +0.000 S 
ENDROOT
BRANCH   1   5
ATOM      3  C   UNL     1       4.392   4.341  18.823  0.00  0.00    +0.000 C 
ATOM      4  O   UNL     1       4.735   3.478  19.625  0.00  0.00    +0.000 OA
ATOM      5  N   UNL     1       3.208   5.056  18.932  0.00  0.00    +0.000 N 
ATOM      6  H   UNL     1       2.920   5.615  18.148  0.00  0.00    +0.000 HD
BRANCH   3  11
ATOM      7  C   UNL     1       6.077   4.053  15.378  0.00  0.00    +0.000 A 
ATOM      8  C   UNL     1       6.905   5.179  15.448  0.00  0.00    +0.000 A 
ATOM      9  C   UNL     1       6.916   5.993  16.578  0.00  0.00    +0.000 A 
ATOM     10  C   UNL     1       6.073   5.682  17.638  0.00  0.00    +0.000 A 
ATOM     11  C   UNL     1       5.234   4.555  17.598  0.00  0.00    +0.000 A 
ATOM     12  C   UNL     1       5.240   3.735  16.456  0.00  0.00    +0.000 A 
BRANCH   7  14
ATOM     13  C   UNL     1       6.611   4.062  13.048  0.00  0.00    +0.000 C 
ATOM     14  O   UNL     1       6.194   3.354  14.206  0.00  0.00    +0.000 OA
ENDBRANCH   7  14
BRANCH   9  15
ATOM     15  O   UNL     1       7.783   7.050  16.540  0.00  0.00    +0.000 OA
ATOM     16  C   UNL     1       7.768   7.917  17.671  0.00  0.00    +0.000 C 
ENDBRANCH   9  15
ENDBRANCH   3  11
ENDBRANCH   1   5
BRANCH   1  17
ATOM     17  N   UNL     1       2.259   6.354  20.608  0.00  0.00    +0.000 N 
ATOM     18  H   UNL     1       2.312   6.338  21.622  0.00  0.00    +0.000 HD
BRANCH  17  19
ATOM     19  C   UNL     1       1.911   7.578  20.002  0.00  0.00    +0.000 A 
ATOM     20  C   UNL     1       2.316   7.798  18.681  0.00  0.00    +0.000 A 
ATOM     21  C   UNL     1       1.947   8.957  17.987  0.00  0.00    +0.000 A 
ATOM     22  C   UNL     1       1.180   9.890  18.687  0.00  0.00    +0.000 A 
ATOM     23  N   UNL     1       0.631  11.097  18.336  0.00  0.00    +0.000 N 
ATOM     24  C   UNL     1      -0.026  11.590  19.431  0.00  0.00    +0.000 A 
ATOM     25  N   UNL     1       0.076  10.794  20.463  0.00  0.00    +0.000 NA
ATOM     26  C   UNL     1       0.813   9.728  20.017  0.00  0.00    +0.000 A 
ATOM     27  C   UNL     1       1.198   8.567  20.696  0.00  0.00    +0.000 A 
ATOM     28  H   UNL     1       0.698  11.536  17.431  0.00  0.00    +0.000 HD
BRANCH  24  29
ATOM     29  O   UNL     1      -0.692  12.730  19.463  0.00  0.00    +0.000 OA
ATOM     30  H   UNL     1      -0.259  13.372  18.883  0.00  0.00    +0.000 HD
ENDBRANCH  24  29
ENDBRANCH  17  19
ENDBRANCH   1  17
TORSDOF 7
ENDMDL
MODEL 9
REMARK VINA RESULT:      -7.6      0.842      2.469
REMARK  Name = 
REMARK  9 active torsions:
REMARK  status: ('A' for Active; 'I' for Inactive)
REMARK    1  A    between atoms: C_1  and  O_2
REMARK    2  A    between atoms: O_2  and  C_3
REMARK    3  A    between atoms: C_5  and  O_6
REMARK    4  A    between atoms: O_6  and  C_7
REMARK    5  A    between atoms: C_9  and  C_10
REMARK    6  A    between atoms: N_12  and  C_13
REMARK    7  A    between atoms: C_13  and  N_15
REMARK    8  A    between atoms: N_15  and  C_16
REMARK    9  A    between atoms: C_21  and  O_22
REMARK                            x       y       z     vdW  Elec       q    Type
REMARK                         _______ _______ _______ _____ _____    ______ ____
ROOT
ATOM      1  C   UNL     1       2.641   5.303  20.422  0.00  0.00    +0.000 C 
ATOM      2  S   UNL     1       1.959   3.806  20.702  0.00  0.00    +0.000 S 
ENDROOT
BRANCH   1   5
ATOM      3  C   UNL     1       2.020   7.550  19.512  0.00  0.00    +0.000 C 
ATOM      4  O   UNL     1       2.447   7.398  18.371  0.00  0.00    +0.000 OA
ATOM      5  N   UNL     1       2.013   6.541  20.463  0.00  0.00    +0.000 N 
ATOM      6  H   UNL     1       1.491   6.694  21.309  0.00  0.00    +0.000 HD
BRANCH   3  11
ATOM      7  C   UNL     1       0.474  11.071  19.426  0.00  0.00    +0.000 A 
ATOM      8  C   UNL     1       0.128  11.187  20.777  0.00  0.00    +0.000 A 
ATOM      9  C   UNL     1       0.396  10.160  21.678  0.00  0.00    +0.000 A 
ATOM     10  C   UNL     1       1.001   8.999  21.212  0.00  0.00    +0.000 A 
ATOM     11  C   UNL     1       1.363   8.854  19.862  0.00  0.00    +0.000 A 
ATOM     12  C   UNL     1       1.097   9.903  18.965  0.00  0.00    +0.000 A 
BRANCH   7  14
ATOM     13  C   UNL     1      -1.221  12.431  18.431  0.00  0.00    +0.000 C 
ATOM     14  O   UNL     1       0.153  12.171  18.677  0.00  0.00    +0.000 OA
ENDBRANCH   7  14
BRANCH   9  15
ATOM     15  O   UNL     1       0.034  10.398  22.976  0.00  0.00    +0.000 OA
ATOM     16  C   UNL     1      -1.247  10.989  23.174  0.00  0.00    +0.000 C 
ENDBRANCH   9  15
ENDBRANCH   3  11
ENDBRANCH   1   5
BRANCH   1  17
ATOM     17  N   UNL     1       3.955   5.353  20.004  0.00  0.00    +0.000 N 
ATOM     18  H   UNL     1       4.585   5.846  20.629  0.00  0.00    +0.000 HD
BRANCH  17  19
ATOM     19  C   UNL     1       4.455   4.999  18.734  0.00  0.00    +0.000 A 
ATOM     20  C   UNL     1       3.766   4.027  18.002  0.00  0.00    +0.000 A 
ATOM     21  C   UNL     1       4.159   3.675  16.705  0.00  0.00    +0.000 A 
ATOM     22  C   UNL     1       5.284   4.323  16.192  0.00  0.00    +0.000 A 
ATOM     23  N   UNL     1       5.931   4.253  14.985  0.00  0.00    +0.000 N 
ATOM     24  C   UNL     1       6.993   5.116  15.030  0.00  0.00    +0.000 A 
ATOM     25  N   UNL     1       7.083   5.721  16.186  0.00  0.00    +0.000 NA
ATOM     26  C   UNL     1       6.024   5.249  16.917  0.00  0.00    +0.000 A 
ATOM     27  C   UNL     1       5.622   5.581  18.215  0.00  0.00    +0.000 A 
ATOM     28  H   UNL     1       5.665   3.672  14.205  0.00  0.00    +0.000 HD
BRANCH  24  29
ATOM     29  O   UNL     1       7.837   5.329  14.037  0.00  0.00    +0.000 OA
ATOM     30  H   UNL     1       8.722   5.044  14.301  0.00  0.00    +0.000 HD
ENDBRANCH  24  29
ENDBRANCH  17  19
ENDBRANCH   1  17
TORSDOF 7
ENDMDL
