MODEL 1
REMARK VINA RESULT:      -7.5      0.000      0.000
REMARK  Name = 
REMARK  3 active torsions:
REMARK  status: ('A' for Active; 'I' for Inactive)
REMARK    1  A    between atoms: C_1  and  C_2
REMARK    2  A    between atoms: N_10  and  S_11
REMARK    3  A    between atoms: S_11  and  C_14
REMARK                            x       y       z     vdW  Elec       q    Type
REMARK                         _______ _______ _______ _____ _____    ______ ____
ROOT
ATOM      1  C   UNL     1       2.921   5.786  17.939  0.00  0.00    +0.000 C 
ATOM      2  C   UNL     1       3.794   4.802  18.728  0.00  0.00    +0.000 C 
ATOM      3  C   UNL     1       2.929   4.070  19.723  0.00  0.00    +0.000 A 
ATOM      4  C   UNL     1       2.286   4.535  20.859  0.00  0.00    +0.000 A 
ATOM      5  C   UNL     1       1.507   3.474  21.379  0.00  0.00    +0.000 A 
ATOM      6  C   UNL     1       1.713   2.379  20.570  0.00  0.00    +0.000 A 
ATOM      7  N   UNL     1       2.593   2.747  19.589  0.00  0.00    +0.000 N 
ATOM      8  C   UNL     1       3.131   1.885  18.559  0.00  0.00    +0.000 C 
ATOM      9  C   UNL     1       3.677   2.690  17.384  0.00  0.00    +0.000 C 
ATOM     10  N   UNL     1       4.530   3.826  17.850  0.00  0.00    +0.000 NA
ENDROOT
BRANCH  10  11
ATOM     11  S   UNL     1       5.485   4.561  16.633  0.00  0.00    +0.000 S 
ATOM     12  O   UNL     1       6.406   3.564  16.128  0.00  0.00    +0.000 OA
ATOM     13  O   UNL     1       4.610   5.291  15.740  0.00  0.00    +0.000 OA
BRANCH  11  14
ATOM     14  C   UNL     1       6.450   5.799  17.486  0.00  0.00    +0.000 A 
ATOM     15  C   UNL     1       7.300   5.435  18.536  0.00  0.00    +0.000 A 
ATOM     16  C   UNL     1       8.179   6.381  19.070  0.00  0.00    +0.000 A 
ATOM     17  C   UNL     1       8.221   7.670  18.536  0.00  0.00    +0.000 A 
ATOM     18  F   UNL     1       9.089   8.561  19.028  0.00  0.00    +0.000 F 
ATOM     19  C   UNL     1       7.394   8.031  17.479  0.00  0.00    +0.000 A 
ATOM     20  C   UNL     1       6.503   7.093  16.951  0.00  0.00    +0.000 A 
ENDBRANCH  11  14
ENDBRANCH  10  11
TORSDOF 2
ENDMDL
MODEL 2
REMARK VINA RESULT:      -7.3      0.327      1.131
REMARK  Name = 
REMARK  3 active torsions:
REMARK  status: ('A' for Active; 'I' for Inactive)
REMARK    1  A    between atoms: C_1  and  C_2
REMARK    2  A    between atoms: N_10  and  S_11
REMARK    3  A    between atoms: S_11  and  C_14
REMARK                            x       y       z     vdW  Elec       q    Type
REMARK                         _______ _______ _______ _____ _____    ______ ____
ROOT
ATOM      1  C   UNL     1       2.850   5.618  17.830  0.00  0.00    +0.000 C 
ATOM      2  C   UNL     1       3.811   4.733  18.636  0.00  0.00    +0.000 C 
ATOM      3  C   UNL     1       3.043   4.066  19.749  0.00  0.00    +0.000 A 
ATOM      4  C   UNL     1       2.462   4.610  20.884  0.00  0.00    +0.000 A 
ATOM      5  C   UNL     1       1.760   3.576  21.548  0.00  0.00    +0.000 A 
ATOM      6  C   UNL     1       1.950   2.421  20.823  0.00  0.00    +0.000 A 
ATOM      7  N   UNL     1       2.746   2.727  19.753  0.00  0.00    +0.000 N 
ATOM      8  C   UNL     1       3.243   1.794  18.765  0.00  0.00    +0.000 C 
ATOM      9  C   UNL     1       3.678   2.509  17.490  0.00  0.00    +0.000 C 
ATOM     10  N   UNL     1       4.520   3.707  17.794  0.00  0.00    +0.000 NA
ENDROOT
BRANCH  10  11
ATOM     11  S   UNL     1       5.361   4.361  16.454  0.00  0.00    +0.000 S 
ATOM     12  O   UNL     1       6.091   3.283  15.819  0.00  0.00    +0.000 OA
ATOM     13  O   UNL     1       4.448   5.193  15.699  0.00  0.00    +0.000 OA
BRANCH  11  14
ATOM     14  C   UNL     1       6.563   5.477  17.162  0.00  0.00    +0.000 A 
ATOM     15  C   UNL     1       6.653   6.798  16.713  0.00  0.00    +0.000 A 
ATOM     16  C   UNL     1       7.469   7.704  17.396  0.00  0.00    +0.000 A 
ATOM     17  C   UNL     1       8.164   7.291  18.534  0.00  0.00    +0.000 A 
ATOM     18  F   UNL     1       8.915   8.172  19.205  0.00  0.00    +0.000 F 
ATOM     19  C   UNL     1       8.061   5.985  18.998  0.00  0.00    +0.000 A 
ATOM     20  C   UNL     1       7.259   5.072  18.310  0.00  0.00    +0.000 A 
ENDBRANCH  11  14
ENDBRANCH  10  11
TORSDOF 2
ENDMDL
MODEL 3
REMARK VINA RESULT:      -7.1      3.512      4.328
REMARK  Name = 
REMARK  3 active torsions:
REMARK  status: ('A' for Active; 'I' for Inactive)
REMARK    1  A    between atoms: C_1  and  C_2
REMARK    2  A    between atoms: N_10  and  S_11
REMARK    3  A    between atoms: S_11  and  C_14
REMARK                            x       y       z     vdW  Elec       q    Type
REMARK                         _______ _______ _______ _____ _____    ______ ____
ROOT
ATOM      1  C   UNL     1       6.289   5.092  19.501  0.00  0.00    +0.000 C 
ATOM      2  C   UNL     1       5.538   4.215  18.491  0.00  0.00    +0.000 C 
ATOM      3  C   UNL     1       4.273   3.703  19.134  0.00  0.00    +0.000 A 
ATOM      4  C   UNL     1       4.102   2.799  20.170  0.00  0.00    +0.000 A 
ATOM      5  C   UNL     1       2.720   2.748  20.475  0.00  0.00    +0.000 A 
ATOM      6  C   UNL     1       2.077   3.598  19.602  0.00  0.00    +0.000 A 
ATOM      7  N   UNL     1       3.025   4.148  18.783  0.00  0.00    +0.000 N 
ATOM      8  C   UNL     1       2.778   5.051  17.680  0.00  0.00    +0.000 C 
ATOM      9  C   UNL     1       4.035   5.828  17.300  0.00  0.00    +0.000 C 
ATOM     10  N   UNL     1       5.224   4.927  17.203  0.00  0.00    +0.000 NA
ENDROOT
BRANCH  10  11
ATOM     11  S   UNL     1       6.591   5.613  16.433  0.00  0.00    +0.000 S 
ATOM     12  O   UNL     1       6.397   7.048  16.379  0.00  0.00    +0.000 OA
ATOM     13  O   UNL     1       7.785   5.041  17.018  0.00  0.00    +0.000 OA
BRANCH  11  14
ATOM     14  C   UNL     1       6.532   5.003  14.754  0.00  0.00    +0.000 A 
ATOM     15  C   UNL     1       7.572   5.280  13.863  0.00  0.00    +0.000 A 
ATOM     16  C   UNL     1       7.598   4.648  12.616  0.00  0.00    +0.000 A 
ATOM     17  C   UNL     1       6.604   3.727  12.284  0.00  0.00    +0.000 A 
ATOM     18  F   UNL     1       6.654   3.099  11.104  0.00  0.00    +0.000 F 
ATOM     19  C   UNL     1       5.578   3.432  13.174  0.00  0.00    +0.000 A 
ATOM     20  C   UNL     1       5.540   4.071  14.415  0.00  0.00    +0.000 A 
ENDBRANCH  11  14
ENDBRANCH  10  11
TORSDOF 2
ENDMDL
MODEL 4
REMARK VINA RESULT:      -7.0      1.044      1.100
REMARK  Name = 
REMARK  3 active torsions:
REMARK  status: ('A' for Active; 'I' for Inactive)
REMARK    1  A    between atoms: C_1  and  C_2
REMARK    2  A    between atoms: N_10  and  S_11
REMARK    3  A    between atoms: S_11  and  C_14
REMARK                            x       y       z     vdW  Elec       q    Type
REMARK                         _______ _______ _______ _____ _____    ______ ____
ROOT
ATOM      1  C   UNL     1       3.509   6.920  17.548  0.00  0.00    +0.000 C 
ATOM      2  C   UNL     1       4.107   5.731  18.313  0.00  0.00    +0.000 C 
ATOM      3  C   UNL     1       3.020   5.077  19.128  0.00  0.00    +0.000 A 
ATOM      4  C   UNL     1       2.329   5.546  20.234  0.00  0.00    +0.000 A 
ATOM      5  C   UNL     1       1.328   4.595  20.552  0.00  0.00    +0.000 A 
ATOM      6  C   UNL     1       1.449   3.557  19.655  0.00  0.00    +0.000 A 
ATOM      7  N   UNL     1       2.490   3.851  18.817  0.00  0.00    +0.000 N 
ATOM      8  C   UNL     1       3.000   3.003  17.762  0.00  0.00    +0.000 C 
ATOM      9  C   UNL     1       3.809   3.800  16.744  0.00  0.00    +0.000 C 
ATOM     10  N   UNL     1       4.775   4.723  17.416  0.00  0.00    +0.000 NA
ENDROOT
BRANCH  10  11
ATOM     11  S   UNL     1       5.977   5.385  16.393  0.00  0.00    +0.000 S 
ATOM     12  O   UNL     1       6.899   4.323  16.047  0.00  0.00    +0.000 OA
ATOM     13  O   UNL     1       5.326   6.174  15.368  0.00  0.00    +0.000 OA
BRANCH  11  14
ATOM     14  C   UNL     1       6.864   6.553  17.414  0.00  0.00    +0.000 A 
ATOM     15  C   UNL     1       7.626   6.108  18.500  0.00  0.00    +0.000 A 
ATOM     16  C   UNL     1       8.454   7.010  19.175  0.00  0.00    +0.000 A 
ATOM     17  C   UNL     1       8.534   8.335  18.745  0.00  0.00    +0.000 A 
ATOM     18  F   UNL     1       9.355   9.184  19.373  0.00  0.00    +0.000 F 
ATOM     19  C   UNL     1       7.795   8.777  17.654  0.00  0.00    +0.000 A 
ATOM     20  C   UNL     1       6.955   7.884  16.985  0.00  0.00    +0.000 A 
ENDBRANCH  11  14
ENDBRANCH  10  11
TORSDOF 2
ENDMDL
MODEL 5
REMARK VINA RESULT:      -6.9      0.983      1.598
REMARK  Name = 
REMARK  3 active torsions:
REMARK  status: ('A' for Active; 'I' for Inactive)
REMARK    1  A    between atoms: C_1  and  C_2
REMARK    2  A    between atoms: N_10  and  S_11
REMARK    3  A    between atoms: S_11  and  C_14
REMARK                            x       y       z     vdW  Elec       q    Type
REMARK                         _______ _______ _______ _____ _____    ______ ____
ROOT
ATOM      1  C   UNL     1       2.452   3.223  17.027  0.00  0.00    +0.000 C 
ATOM      2  C   UNL     1       2.924   4.110  18.186  0.00  0.00    +0.000 C 
ATOM      3  C   UNL     1       2.293   3.619  19.465  0.00  0.00    +0.000 A 
ATOM      4  C   UNL     1       0.970   3.647  19.876  0.00  0.00    +0.000 A 
ATOM      5  C   UNL     1       0.885   2.955  21.108  0.00  0.00    +0.000 A 
ATOM      6  C   UNL     1       2.158   2.546  21.436  0.00  0.00    +0.000 A 
ATOM      7  N   UNL     1       3.001   2.975  20.447  0.00  0.00    +0.000 N 
ATOM      8  C   UNL     1       4.438   2.813  20.423  0.00  0.00    +0.000 C 
ATOM      9  C   UNL     1       4.994   2.963  19.010  0.00  0.00    +0.000 C 
ATOM     10  N   UNL     1       4.422   4.161  18.323  0.00  0.00    +0.000 NA
ENDROOT
BRANCH  10  11
ATOM     11  S   UNL     1       5.239   4.635  16.895  0.00  0.00    +0.000 S 
ATOM     12  O   UNL     1       5.882   3.462  16.340  0.00  0.00    +0.000 OA
ATOM     13  O   UNL     1       4.340   5.443  16.097  0.00  0.00    +0.000 OA
BRANCH  11  14
ATOM     14  C   UNL     1       6.529   5.743  17.444  0.00  0.00    +0.000 A 
ATOM     15  C   UNL     1       6.659   7.015  16.878  0.00  0.00    +0.000 A 
ATOM     16  C   UNL     1       7.553   7.931  17.441  0.00  0.00    +0.000 A 
ATOM     17  C   UNL     1       8.285   7.579  18.575  0.00  0.00    +0.000 A 
ATOM     18  F   UNL     1       9.112   8.472  19.131  0.00  0.00    +0.000 F 
ATOM     19  C   UNL     1       8.144   6.323  19.155  0.00  0.00    +0.000 A 
ATOM     20  C   UNL     1       7.263   5.399  18.588  0.00  0.00    +0.000 A 
ENDBRANCH  11  14
ENDBRANCH  10  11
TORSDOF 2
ENDMDL
MODEL 6
REMARK VINA RESULT:      -6.8      2.852      3.470
REMARK  Name = 
REMARK  3 active torsions:
REMARK  status: ('A' for Active; 'I' for Inactive)
REMARK    1  A    between atoms: C_1  and  C_2
REMARK    2  A    between atoms: N_10  and  S_11
REMARK    3  A    between atoms: S_11  and  C_14
REMARK                            x       y       z     vdW  Elec       q    Type
REMARK                         _______ _______ _______ _____ _____    ______ ____
ROOT
ATOM      1  C   UNL     1       2.430   5.623  17.921  0.00  0.00    +0.000 C 
ATOM      2  C   UNL     1       3.303   5.466  19.173  0.00  0.00    +0.000 C 
ATOM      3  C   UNL     1       2.690   4.418  20.068  0.00  0.00    +0.000 A 
ATOM      4  C   UNL     1       1.511   4.445  20.795  0.00  0.00    +0.000 A 
ATOM      5  C   UNL     1       1.333   3.166  21.377  0.00  0.00    +0.000 A 
ATOM      6  C   UNL     1       2.419   2.399  21.018  0.00  0.00    +0.000 A 
ATOM      7  N   UNL     1       3.241   3.176  20.248  0.00  0.00    +0.000 N 
ATOM      8  C   UNL     1       4.525   2.783  19.709  0.00  0.00    +0.000 C 
ATOM      9  C   UNL     1       4.937   3.674  18.541  0.00  0.00    +0.000 C 
ATOM     10  N   UNL     1       4.734   5.121  18.859  0.00  0.00    +0.000 NA
ENDROOT
BRANCH  10  11
ATOM     11  S   UNL     1       5.498   6.213  17.785  0.00  0.00    +0.000 S 
ATOM     12  O   UNL     1       4.533   7.234  17.429  0.00  0.00    +0.000 OA
ATOM     13  O   UNL     1       6.793   6.565  18.328  0.00  0.00    +0.000 OA
BRANCH  11  14
ATOM     14  C   UNL     1       5.833   5.257  16.313  0.00  0.00    +0.000 A 
ATOM     15  C   UNL     1       4.781   4.757  15.538  0.00  0.00    +0.000 A 
ATOM     16  C   UNL     1       5.056   4.169  14.300  0.00  0.00    +0.000 A 
ATOM     17  C   UNL     1       6.371   4.112  13.836  0.00  0.00    +0.000 A 
ATOM     18  F   UNL     1       6.624   3.581  12.634  0.00  0.00    +0.000 F 
ATOM     19  C   UNL     1       7.418   4.626  14.592  0.00  0.00    +0.000 A 
ATOM     20  C   UNL     1       7.150   5.201  15.836  0.00  0.00    +0.000 A 
ENDBRANCH  11  14
ENDBRANCH  10  11
TORSDOF 2
ENDMDL
MODEL 7
REMARK VINA RESULT:      -6.8      2.870      3.465
REMARK  Name = 
REMARK  3 active torsions:
REMARK  status: ('A' for Active; 'I' for Inactive)
REMARK    1  A    between atoms: C_1  and  C_2
REMARK    2  A    between atoms: N_10  and  S_11
REMARK    3  A    between atoms: S_11  and  C_14
REMARK                            x       y       z     vdW  Elec       q    Type
REMARK                         _______ _______ _______ _____ _____    ______ ____
ROOT
ATOM      1  C   UNL     1       2.826   6.445  19.476  0.00  0.00    +0.000 C 
ATOM      2  C   UNL     1       3.608   5.126  19.520  0.00  0.00    +0.000 C 
ATOM      3  C   UNL     1       2.718   4.049  20.090  0.00  0.00    +0.000 A 
ATOM      4  C   UNL     1       2.219   3.890  21.373  0.00  0.00    +0.000 A 
ATOM      5  C   UNL     1       1.340   2.781  21.359  0.00  0.00    +0.000 A 
ATOM      6  C   UNL     1       1.344   2.271  20.080  0.00  0.00    +0.000 A 
ATOM      7  N   UNL     1       2.199   3.032  19.332  0.00  0.00    +0.000 N 
ATOM      8  C   UNL     1       2.548   2.808  17.946  0.00  0.00    +0.000 C 
ATOM      9  C   UNL     1       3.120   4.067  17.302  0.00  0.00    +0.000 C 
ATOM     10  N   UNL     1       4.147   4.710  18.178  0.00  0.00    +0.000 NA
ENDROOT
BRANCH  10  11
ATOM     11  S   UNL     1       5.110   5.899  17.412  0.00  0.00    +0.000 S 
ATOM     12  O   UNL     1       4.236   6.974  16.989  0.00  0.00    +0.000 OA
ATOM     13  O   UNL     1       6.268   6.160  18.242  0.00  0.00    +0.000 OA
BRANCH  11  14
ATOM     14  C   UNL     1       5.738   5.108  15.937  0.00  0.00    +0.000 A 
ATOM     15  C   UNL     1       4.862   4.502  15.032  0.00  0.00    +0.000 A 
ATOM     16  C   UNL     1       5.348   4.049  13.802  0.00  0.00    +0.000 A 
ATOM     17  C   UNL     1       6.693   4.230  13.477  0.00  0.00    +0.000 A 
ATOM     18  F   UNL     1       7.145   3.827  12.284  0.00  0.00    +0.000 F 
ATOM     19  C   UNL     1       7.564   4.852  14.365  0.00  0.00    +0.000 A 
ATOM     20  C   UNL     1       7.087   5.293  15.601  0.00  0.00    +0.000 A 
ENDBRANCH  11  14
ENDBRANCH  10  11
TORSDOF 2
ENDMDL
MODEL 8
REMARK VINA RESULT:      -6.7      0.976      1.759
REMARK  Name = 
REMARK  3 active torsions:
REMARK  status: ('A' for Active; 'I' for Inactive)
REMARK    1  A    between atoms: C_1  and  C_2
REMARK    2  A    between atoms: N_10  and  S_11
REMARK    3  A    between atoms: S_11  and  C_14
REMARK                            x       y       z     vdW  Elec       q    Type
REMARK                         _______ _______ _______ _____ _____    ______ ____
ROOT
ATOM      1  C   UNL     1       5.189   3.416  19.168  0.00  0.00    +0.000 C 
ATOM      2  C   UNL     1       3.967   3.561  18.251  0.00  0.00    +0.000 C 
ATOM      3  C   UNL     1       2.717   3.521  19.094  0.00  0.00    +0.000 A 
ATOM      4  C   UNL     1       2.156   2.476  19.811  0.00  0.00    +0.000 A 
ATOM      5  C   UNL     1       1.047   2.989  20.526  0.00  0.00    +0.000 A 
ATOM      6  C   UNL     1       0.937   4.324  20.209  0.00  0.00    +0.000 A 
ATOM      7  N   UNL     1       1.937   4.625  19.325  0.00  0.00    +0.000 N 
ATOM      8  C   UNL     1       2.153   5.906  18.687  0.00  0.00    +0.000 C 
ATOM      9  C   UNL     1       3.579   6.035  18.161  0.00  0.00    +0.000 C 
ATOM     10  N   UNL     1       3.999   4.811  17.413  0.00  0.00    +0.000 NA
ENDROOT
BRANCH  10  11
ATOM     11  S   UNL     1       5.419   4.987  16.474  0.00  0.00    +0.000 S 
ATOM     12  O   UNL     1       6.104   3.710  16.460  0.00  0.00    +0.000 OA
ATOM     13  O   UNL     1       5.076   5.664  15.241  0.00  0.00    +0.000 OA
BRANCH  11  14
ATOM     14  C   UNL     1       6.441   6.132  17.389  0.00  0.00    +0.000 A 
ATOM     15  C   UNL     1       7.300   5.670  18.391  0.00  0.00    +0.000 A 
ATOM     16  C   UNL     1       8.219   6.549  18.970  0.00  0.00    +0.000 A 
ATOM     17  C   UNL     1       8.291   7.870  18.526  0.00  0.00    +0.000 A 
ATOM     18  F   UNL     1       9.197   8.698  19.059  0.00  0.00    +0.000 F 
ATOM     19  C   UNL     1       7.454   8.330  17.516  0.00  0.00    +0.000 A 
ATOM     20  C   UNL     1       6.524   7.459  16.944  0.00  0.00    +0.000 A 
ENDBRANCH  11  14
ENDBRANCH  10  11
TORSDOF 2
ENDMDL
MODEL 9
REMARK VINA RESULT:      -6.6      1.010      2.117
REMARK  Name = 
REMARK  3 active torsions:
REMARK  status: ('A' for Active; 'I' for Inactive)
REMARK    1  A    between atoms: C_1  and  C_2
REMARK    2  A    between atoms: N_10  and  S_11
REMARK    3  A    between atoms: S_11  and  C_14
REMARK                            x       y       z     vdW  Elec       q    Type
REMARK                         _______ _______ _______ _____ _____    ______ ____
ROOT
ATOM      1  C   UNL     1       4.987   3.140  18.957  0.00  0.00    +0.000 C 
ATOM      2  C   UNL     1       3.753   3.574  18.156  0.00  0.00    +0.000 C 
ATOM      3  C   UNL     1       2.592   3.748  19.103  0.00  0.00    +0.000 A 
ATOM      4  C   UNL     1       1.886   2.805  19.833  0.00  0.00    +0.000 A 
ATOM      5  C   UNL     1       0.967   3.497  20.658  0.00  0.00    +0.000 A 
ATOM      6  C   UNL     1       1.110   4.841  20.393  0.00  0.00    +0.000 A 
ATOM      7  N   UNL     1       2.077   4.975  19.435  0.00  0.00    +0.000 N 
ATOM      8  C   UNL     1       2.502   6.214  18.820  0.00  0.00    +0.000 C 
ATOM      9  C   UNL     1       3.878   6.077  18.176  0.00  0.00    +0.000 C 
ATOM     10  N   UNL     1       3.976   4.830  17.357  0.00  0.00    +0.000 NA
ENDROOT
BRANCH  10  11
ATOM     11  S   UNL     1       5.323   4.759  16.304  0.00  0.00    +0.000 S 
ATOM     12  O   UNL     1       5.822   3.399  16.311  0.00  0.00    +0.000 OA
ATOM     13  O   UNL     1       4.975   5.421  15.064  0.00  0.00    +0.000 OA
BRANCH  11  14
ATOM     14  C   UNL     1       6.566   5.789  17.072  0.00  0.00    +0.000 A 
ATOM     15  C   UNL     1       6.725   7.120  16.676  0.00  0.00    +0.000 A 
ATOM     16  C   UNL     1       7.573   7.959  17.406  0.00  0.00    +0.000 A 
ATOM     17  C   UNL     1       8.229   7.469  18.536  0.00  0.00    +0.000 A 
ATOM     18  F   UNL     1       9.011   8.286  19.251  0.00  0.00    +0.000 F 
ATOM     19  C   UNL     1       8.058   6.152  18.946  0.00  0.00    +0.000 A 
ATOM     20  C   UNL     1       7.224   5.306  18.212  0.00  0.00    +0.000 A 
ENDBRANCH  11  14
ENDBRANCH  10  11
TORSDOF 2
ENDMDL
