MODEL 1
REMARK VINA RESULT:      -8.2      0.000      0.000
REMARK  Name = 
REMARK  4 active torsions:
REMARK  status: ('A' for Active; 'I' for Inactive)
REMARK    1  A    between atoms: C_1  and  O_2
REMARK    2  A    between atoms: O_2  and  C_3
REMARK    3  A    between atoms: C_6  and  C_7
REMARK    4  A    between atoms: N_15  and  C_16
REMARK                            x       y       z     vdW  Elec       q    Type
REMARK                         _______ _______ _______ _____ _____    ______ ____
ROOT
ATOM      1  C   UNL     1       3.907   6.431  17.735  0.00  0.00    +0.000 A 
ATOM      2  N   UNL     1       4.837   6.959  16.961  0.00  0.00    +0.000 NA
ATOM      3  C   UNL     1       5.317   5.939  16.206  0.00  0.00    +0.000 A 
ATOM      4  C   UNL     1       6.245   6.024  15.159  0.00  0.00    +0.000 A 
ATOM      5  C   UNL     1       6.584   4.869  14.469  0.00  0.00    +0.000 A 
ATOM      6  C   UNL     1       6.017   3.644  14.828  0.00  0.00    +0.000 A 
ATOM      7  C   UNL     1       5.120   3.535  15.905  0.00  0.00    +0.000 A 
ATOM      8  C   UNL     1       4.757   4.713  16.577  0.00  0.00    +0.000 A 
ATOM      9  N   UNL     1       3.948   5.027  17.673  0.00  0.00    +0.000 N 
ENDROOT
BRANCH   9  10
ATOM     10  C   UNL     1       3.229   4.147  18.544  0.00  0.00    +0.000 A 
ATOM     11  C   UNL     1       3.925   3.511  19.591  0.00  0.00    +0.000 A 
ATOM     12  C   UNL     1       3.235   2.946  20.663  0.00  0.00    +0.000 A 
ATOM     13  C   UNL     1       1.846   2.958  20.665  0.00  0.00    +0.000 A 
ATOM     14 CL   UNL     1       0.991   2.400  22.049  0.00  0.00    +0.000 Cl
ATOM     15  C   UNL     1       1.147   3.465  19.567  0.00  0.00    +0.000 A 
ATOM     16  C   UNL     1       1.835   4.054  18.496  0.00  0.00    +0.000 A 
ENDBRANCH   9  10
BRANCH   1  20
ATOM     17  C   UNL     1       1.071   8.940  19.755  0.00  0.00    +0.000 A 
ATOM     18  C   UNL     1       1.615   7.845  20.421  0.00  0.00    +0.000 A 
ATOM     19  C   UNL     1       2.531   7.007  19.780  0.00  0.00    +0.000 A 
ATOM     20  C   UNL     1       2.948   7.277  18.468  0.00  0.00    +0.000 A 
ATOM     21  C   UNL     1       2.369   8.361  17.799  0.00  0.00    +0.000 A 
ATOM     22  C   UNL     1       1.429   9.183  18.431  0.00  0.00    +0.000 A 
BRANCH  17  24
ATOM     23  C   UNL     1      -0.090   9.208  21.796  0.00  0.00    +0.000 C 
ATOM     24  O   UNL     1       0.174   9.675  20.478  0.00  0.00    +0.000 OA
ENDBRANCH  17  24
ENDBRANCH   1  20
TORSDOF 3
ENDMDL
MODEL 2
REMARK VINA RESULT:      -8.1      0.491      1.127
REMARK  Name = 
REMARK  4 active torsions:
REMARK  status: ('A' for Active; 'I' for Inactive)
REMARK    1  A    between atoms: C_1  and  O_2
REMARK    2  A    between atoms: O_2  and  C_3
REMARK    3  A    between atoms: C_6  and  C_7
REMARK    4  A    between atoms: N_15  and  C_16
REMARK                            x       y       z     vdW  Elec       q    Type
REMARK                         _______ _______ _______ _____ _____    ______ ____
ROOT
ATOM      1  C   UNL     1       3.875   6.489  17.639  0.00  0.00    +0.000 A 
ATOM      2  N   UNL     1       4.810   7.015  16.870  0.00  0.00    +0.000 NA
ATOM      3  C   UNL     1       5.321   5.985  16.148  0.00  0.00    +0.000 A 
ATOM      4  C   UNL     1       6.267   6.063  15.116  0.00  0.00    +0.000 A 
ATOM      5  C   UNL     1       6.637   4.897  14.459  0.00  0.00    +0.000 A 
ATOM      6  C   UNL     1       6.083   3.672  14.836  0.00  0.00    +0.000 A 
ATOM      7  C   UNL     1       5.168   3.572  15.899  0.00  0.00    +0.000 A 
ATOM      8  C   UNL     1       4.774   4.760  16.537  0.00  0.00    +0.000 A 
ATOM      9  N   UNL     1       3.940   5.085  17.610  0.00  0.00    +0.000 N 
ENDROOT
BRANCH   9  10
ATOM     10  C   UNL     1       3.219   4.214  18.489  0.00  0.00    +0.000 A 
ATOM     11  C   UNL     1       3.917   3.571  19.530  0.00  0.00    +0.000 A 
ATOM     12  C   UNL     1       3.230   3.014  20.609  0.00  0.00    +0.000 A 
ATOM     13  C   UNL     1       1.841   3.041  20.622  0.00  0.00    +0.000 A 
ATOM     14 CL   UNL     1       0.992   2.494  22.014  0.00  0.00    +0.000 Cl
ATOM     15  C   UNL     1       1.138   3.554  19.530  0.00  0.00    +0.000 A 
ATOM     16  C   UNL     1       1.823   4.135  18.452  0.00  0.00    +0.000 A 
ENDBRANCH   9  10
BRANCH   1  20
ATOM     17  C   UNL     1       1.048   8.911  19.776  0.00  0.00    +0.000 A 
ATOM     18  C   UNL     1       1.334   9.202  18.444  0.00  0.00    +0.000 A 
ATOM     19  C   UNL     1       2.258   8.435  17.732  0.00  0.00    +0.000 A 
ATOM     20  C   UNL     1       2.888   7.335  18.334  0.00  0.00    +0.000 A 
ATOM     21  C   UNL     1       2.617   7.074  19.682  0.00  0.00    +0.000 A 
ATOM     22  C   UNL     1       1.713   7.860  20.404  0.00  0.00    +0.000 A 
BRANCH  17  24
ATOM     23  C   UNL     1      -0.748  10.420  19.493  0.00  0.00    +0.000 C 
ATOM     24  O   UNL     1       0.141   9.741  20.372  0.00  0.00    +0.000 OA
ENDBRANCH  17  24
ENDBRANCH   1  20
TORSDOF 3
ENDMDL
MODEL 3
REMARK VINA RESULT:      -8.0      1.262      1.639
REMARK  Name = 
REMARK  4 active torsions:
REMARK  status: ('A' for Active; 'I' for Inactive)
REMARK    1  A    between atoms: C_1  and  O_2
REMARK    2  A    between atoms: O_2  and  C_3
REMARK    3  A    between atoms: C_6  and  C_7
REMARK    4  A    between atoms: N_15  and  C_16
REMARK                            x       y       z     vdW  Elec       q    Type
REMARK                         _______ _______ _______ _____ _____    ______ ____
ROOT
ATOM      1  C   UNL     1       3.155   7.121  18.057  0.00  0.00    +0.000 A 
ATOM      2  N   UNL     1       4.092   7.486  17.201  0.00  0.00    +0.000 NA
ATOM      3  C   UNL     1       4.588   6.336  16.678  0.00  0.00    +0.000 A 
ATOM      4  C   UNL     1       5.529   6.212  15.647  0.00  0.00    +0.000 A 
ATOM      5  C   UNL     1       5.883   4.942  15.214  0.00  0.00    +0.000 A 
ATOM      6  C   UNL     1       5.318   3.812  15.810  0.00  0.00    +0.000 A 
ATOM      7  C   UNL     1       4.408   3.920  16.876  0.00  0.00    +0.000 A 
ATOM      8  C   UNL     1       4.029   5.209  17.287  0.00  0.00    +0.000 A 
ATOM      9  N   UNL     1       3.204   5.734  18.285  0.00  0.00    +0.000 N 
ENDROOT
BRANCH   9  10
ATOM     10  C   UNL     1       2.479   5.047  19.311  0.00  0.00    +0.000 A 
ATOM     11  C   UNL     1       1.466   4.143  18.935  0.00  0.00    +0.000 A 
ATOM     12  C   UNL     1       0.984   3.198  19.842  0.00  0.00    +0.000 A 
ATOM     13  C   UNL     1       1.466   3.193  21.144  0.00  0.00    +0.000 A 
ATOM     14 CL   UNL     1       0.992   1.940  22.222  0.00  0.00    +0.000 Cl
ATOM     15  C   UNL     1       2.370   4.172  21.562  0.00  0.00    +0.000 A 
ATOM     16  C   UNL     1       2.875   5.111  20.650  0.00  0.00    +0.000 A 
ENDBRANCH   9  10
BRANCH   1  20
ATOM     17  C   UNL     1       0.269   9.959  19.485  0.00  0.00    +0.000 A 
ATOM     18  C   UNL     1       0.906   9.113  20.390  0.00  0.00    +0.000 A 
ATOM     19  C   UNL     1       1.840   8.173  19.947  0.00  0.00    +0.000 A 
ATOM     20  C   UNL     1       2.181   8.091  18.588  0.00  0.00    +0.000 A 
ATOM     21  C   UNL     1       1.510   8.925  17.686  0.00  0.00    +0.000 A 
ATOM     22  C   UNL     1       0.553   9.846  18.126  0.00  0.00    +0.000 A 
BRANCH  17  24
ATOM     23  C   UNL     1      -1.536  11.439  19.119  0.00  0.00    +0.000 C 
ATOM     24  O   UNL     1      -0.636  10.823  20.034  0.00  0.00    +0.000 OA
ENDBRANCH  17  24
ENDBRANCH   1  20
TORSDOF 3
ENDMDL
MODEL 4
REMARK VINA RESULT:      -7.3      3.229      5.687
REMARK  Name = 
REMARK  4 active torsions:
REMARK  status: ('A' for Active; 'I' for Inactive)
REMARK    1  A    between atoms: C_1  and  O_2
REMARK    2  A    between atoms: O_2  and  C_3
REMARK    3  A    between atoms: C_6  and  C_7
REMARK    4  A    between atoms: N_15  and  C_16
REMARK                            x       y       z     vdW  Elec       q    Type
REMARK                         _______ _______ _______ _____ _____    ______ ____
ROOT
ATOM      1  C   UNL     1       4.461   4.987  18.738  0.00  0.00    +0.000 A 
ATOM      2  N   UNL     1       4.640   3.681  18.704  0.00  0.00    +0.000 NA
ATOM      3  C   UNL     1       3.399   3.132  18.735  0.00  0.00    +0.000 A 
ATOM      4  C   UNL     1       3.070   1.776  18.611  0.00  0.00    +0.000 A 
ATOM      5  C   UNL     1       1.731   1.408  18.622  0.00  0.00    +0.000 A 
ATOM      6  C   UNL     1       0.738   2.378  18.771  0.00  0.00    +0.000 A 
ATOM      7  C   UNL     1       1.054   3.737  18.943  0.00  0.00    +0.000 A 
ATOM      8  C   UNL     1       2.409   4.105  18.897  0.00  0.00    +0.000 A 
ATOM      9  N   UNL     1       3.124   5.297  19.044  0.00  0.00    +0.000 N 
ENDROOT
BRANCH   9  10
ATOM     10  C   UNL     1       2.639   6.605  19.369  0.00  0.00    +0.000 A 
ATOM     11  C   UNL     1       2.483   7.547  18.334  0.00  0.00    +0.000 A 
ATOM     12  C   UNL     1       1.696   8.684  18.520  0.00  0.00    +0.000 A 
ATOM     13  C   UNL     1       1.114   8.917  19.759  0.00  0.00    +0.000 A 
ATOM     14 CL   UNL     1       0.023  10.232  19.953  0.00  0.00    +0.000 Cl
ATOM     15  C   UNL     1       1.375   8.059  20.830  0.00  0.00    +0.000 A 
ATOM     16  C   UNL     1       2.147   6.902  20.644  0.00  0.00    +0.000 A 
ENDBRANCH   9  10
BRANCH   1  20
ATOM     17  C   UNL     1       7.723   7.625  17.830  0.00  0.00    +0.000 A 
ATOM     18  C   UNL     1       6.528   7.743  17.125  0.00  0.00    +0.000 A 
ATOM     19  C   UNL     1       5.457   6.888  17.395  0.00  0.00    +0.000 A 
ATOM     20  C   UNL     1       5.552   5.921  18.407  0.00  0.00    +0.000 A 
ATOM     21  C   UNL     1       6.769   5.791  19.085  0.00  0.00    +0.000 A 
ATOM     22  C   UNL     1       7.852   6.628  18.795  0.00  0.00    +0.000 A 
BRANCH  17  24
ATOM     23  C   UNL     1       8.742   9.726  18.196  0.00  0.00    +0.000 C 
ATOM     24  O   UNL     1       8.703   8.504  17.467  0.00  0.00    +0.000 OA
ENDBRANCH  17  24
ENDBRANCH   1  20
TORSDOF 3
ENDMDL
MODEL 5
REMARK VINA RESULT:      -7.2      3.484      5.236
REMARK  Name = 
REMARK  4 active torsions:
REMARK  status: ('A' for Active; 'I' for Inactive)
REMARK    1  A    between atoms: C_1  and  O_2
REMARK    2  A    between atoms: O_2  and  C_3
REMARK    3  A    between atoms: C_6  and  C_7
REMARK    4  A    between atoms: N_15  and  C_16
REMARK                            x       y       z     vdW  Elec       q    Type
REMARK                         _______ _______ _______ _____ _____    ______ ____
ROOT
ATOM      1  C   UNL     1       4.887   4.647  16.424  0.00  0.00    +0.000 A 
ATOM      2  N   UNL     1       4.500   4.008  15.336  0.00  0.00    +0.000 NA
ATOM      3  C   UNL     1       5.497   4.174  14.430  0.00  0.00    +0.000 A 
ATOM      4  C   UNL     1       5.593   3.591  13.160  0.00  0.00    +0.000 A 
ATOM      5  C   UNL     1       6.719   3.847  12.389  0.00  0.00    +0.000 A 
ATOM      6  C   UNL     1       7.726   4.685  12.873  0.00  0.00    +0.000 A 
ATOM      7  C   UNL     1       7.622   5.314  14.125  0.00  0.00    +0.000 A 
ATOM      8  C   UNL     1       6.496   5.024  14.913  0.00  0.00    +0.000 A 
ATOM      9  N   UNL     1       6.016   5.442  16.157  0.00  0.00    +0.000 N 
ENDROOT
BRANCH   9  10
ATOM     10  C   UNL     1       6.557   6.422  17.051  0.00  0.00    +0.000 A 
ATOM     11  C   UNL     1       7.475   6.007  18.036  0.00  0.00    +0.000 A 
ATOM     12  C   UNL     1       8.292   6.935  18.682  0.00  0.00    +0.000 A 
ATOM     13  C   UNL     1       8.152   8.286  18.392  0.00  0.00    +0.000 A 
ATOM     14 CL   UNL     1       9.255   9.420  19.069  0.00  0.00    +0.000 Cl
ATOM     15  C   UNL     1       7.153   8.718  17.518  0.00  0.00    +0.000 A 
ATOM     16  C   UNL     1       6.343   7.788  16.849  0.00  0.00    +0.000 A 
ENDBRANCH   9  10
BRANCH   1  20
ATOM     17  C   UNL     1       2.827   4.079  20.146  0.00  0.00    +0.000 A 
ATOM     18  C   UNL     1       3.969   3.331  19.872  0.00  0.00    +0.000 A 
ATOM     19  C   UNL     1       4.650   3.491  18.663  0.00  0.00    +0.000 A 
ATOM     20  C   UNL     1       4.216   4.433  17.718  0.00  0.00    +0.000 A 
ATOM     21  C   UNL     1       3.048   5.155  17.992  0.00  0.00    +0.000 A 
ATOM     22  C   UNL     1       2.350   4.974  19.190  0.00  0.00    +0.000 A 
BRANCH  17  24
ATOM     23  C   UNL     1       1.415   2.664  21.407  0.00  0.00    +0.000 C 
ATOM     24  O   UNL     1       2.238   3.824  21.352  0.00  0.00    +0.000 OA
ENDBRANCH  17  24
ENDBRANCH   1  20
TORSDOF 3
ENDMDL
MODEL 6
REMARK VINA RESULT:      -7.2      2.669      5.945
REMARK  Name = 
REMARK  4 active torsions:
REMARK  status: ('A' for Active; 'I' for Inactive)
REMARK    1  A    between atoms: C_1  and  O_2
REMARK    2  A    between atoms: O_2  and  C_3
REMARK    3  A    between atoms: C_6  and  C_7
REMARK    4  A    between atoms: N_15  and  C_16
REMARK                            x       y       z     vdW  Elec       q    Type
REMARK                         _______ _______ _______ _____ _____    ______ ____
ROOT
ATOM      1  C   UNL     1       3.408   7.119  17.891  0.00  0.00    +0.000 A 
ATOM      2  N   UNL     1       2.896   8.327  17.748  0.00  0.00    +0.000 NA
ATOM      3  C   UNL     1       2.109   8.530  18.834  0.00  0.00    +0.000 A 
ATOM      4  C   UNL     1       1.436   9.708  19.185  0.00  0.00    +0.000 A 
ATOM      5  C   UNL     1       0.709   9.738  20.367  0.00  0.00    +0.000 A 
ATOM      6  C   UNL     1       0.641   8.604  21.179  0.00  0.00    +0.000 A 
ATOM      7  C   UNL     1       1.272   7.401  20.818  0.00  0.00    +0.000 A 
ATOM      8  C   UNL     1       2.033   7.388  19.637  0.00  0.00    +0.000 A 
ATOM      9  N   UNL     1       2.767   6.429  18.935  0.00  0.00    +0.000 N 
ENDROOT
BRANCH   9  10
ATOM     10  C   UNL     1       2.927   5.033  19.213  0.00  0.00    +0.000 A 
ATOM     11  C   UNL     1       1.941   4.134  18.761  0.00  0.00    +0.000 A 
ATOM     12  C   UNL     1       2.208   2.767  18.682  0.00  0.00    +0.000 A 
ATOM     13  C   UNL     1       3.437   2.285  19.113  0.00  0.00    +0.000 A 
ATOM     14 CL   UNL     1       3.831   0.627  18.879  0.00  0.00    +0.000 Cl
ATOM     15  C   UNL     1       4.369   3.151  19.689  0.00  0.00    +0.000 A 
ATOM     16  C   UNL     1       4.115   4.530  19.751  0.00  0.00    +0.000 A 
ENDBRANCH   9  10
BRANCH   1  20
ATOM     17  C   UNL     1       6.811   5.828  15.616  0.00  0.00    +0.000 A 
ATOM     18  C   UNL     1       5.531   5.465  15.204  0.00  0.00    +0.000 A 
ATOM     19  C   UNL     1       4.410   5.864  15.934  0.00  0.00    +0.000 A 
ATOM     20  C   UNL     1       4.550   6.668  17.075  0.00  0.00    +0.000 A 
ATOM     21  C   UNL     1       5.843   6.998  17.497  0.00  0.00    +0.000 A 
ATOM     22  C   UNL     1       6.968   6.575  16.782  0.00  0.00    +0.000 A 
BRANCH  17  24
ATOM     23  C   UNL     1       7.451   4.874  13.551  0.00  0.00    +0.000 C 
ATOM     24  O   UNL     1       7.830   5.365  14.832  0.00  0.00    +0.000 OA
ENDBRANCH  17  24
ENDBRANCH   1  20
TORSDOF 3
ENDMDL
MODEL 7
REMARK VINA RESULT:      -7.1      3.128      6.558
REMARK  Name = 
REMARK  4 active torsions:
REMARK  status: ('A' for Active; 'I' for Inactive)
REMARK    1  A    between atoms: C_1  and  O_2
REMARK    2  A    between atoms: O_2  and  C_3
REMARK    3  A    between atoms: C_6  and  C_7
REMARK    4  A    between atoms: N_15  and  C_16
REMARK                            x       y       z     vdW  Elec       q    Type
REMARK                         _______ _______ _______ _____ _____    ______ ____
ROOT
ATOM      1  C   UNL     1       4.503   4.249  18.913  0.00  0.00    +0.000 A 
ATOM      2  N   UNL     1       4.683   3.110  19.554  0.00  0.00    +0.000 NA
ATOM      3  C   UNL     1       3.587   2.947  20.339  0.00  0.00    +0.000 A 
ATOM      4  C   UNL     1       3.269   1.832  21.127  0.00  0.00    +0.000 A 
ATOM      5  C   UNL     1       2.073   1.830  21.831  0.00  0.00    +0.000 A 
ATOM      6  C   UNL     1       1.215   2.930  21.762  0.00  0.00    +0.000 A 
ATOM      7  C   UNL     1       1.541   4.073  21.013  0.00  0.00    +0.000 A 
ATOM      8  C   UNL     1       2.738   4.055  20.277  0.00  0.00    +0.000 A 
ATOM      9  N   UNL     1       3.418   4.959  19.457  0.00  0.00    +0.000 N 
ENDROOT
BRANCH   9  10
ATOM     10  C   UNL     1       3.087   6.317  19.143  0.00  0.00    +0.000 A 
ATOM     11  C   UNL     1       3.237   6.762  17.814  0.00  0.00    +0.000 A 
ATOM     12  C   UNL     1       2.608   7.929  17.380  0.00  0.00    +0.000 A 
ATOM     13  C   UNL     1       1.879   8.689  18.285  0.00  0.00    +0.000 A 
ATOM     14 CL   UNL     1       0.977  10.043  17.727  0.00  0.00    +0.000 Cl
ATOM     15  C   UNL     1       1.837   8.328  19.634  0.00  0.00    +0.000 A 
ATOM     16  C   UNL     1       2.450   7.144  20.072  0.00  0.00    +0.000 A 
ENDBRANCH   9  10
BRANCH   1  20
ATOM     17  C   UNL     1       6.995   5.334  15.591  0.00  0.00    +0.000 A 
ATOM     18  C   UNL     1       5.899   4.500  15.384  0.00  0.00    +0.000 A 
ATOM     19  C   UNL     1       5.080   4.124  16.452  0.00  0.00    +0.000 A 
ATOM     20  C   UNL     1       5.326   4.610  17.745  0.00  0.00    +0.000 A 
ATOM     21  C   UNL     1       6.450   5.420  17.945  0.00  0.00    +0.000 A 
ATOM     22  C   UNL     1       7.286   5.773  16.881  0.00  0.00    +0.000 A 
BRANCH  17  24
ATOM     23  C   UNL     1       7.381   4.891  13.302  0.00  0.00    +0.000 C 
ATOM     24  O   UNL     1       7.730   5.618  14.475  0.00  0.00    +0.000 OA
ENDBRANCH  17  24
ENDBRANCH   1  20
TORSDOF 3
ENDMDL
MODEL 8
REMARK VINA RESULT:      -7.1      3.196      6.586
REMARK  Name = 
REMARK  4 active torsions:
REMARK  status: ('A' for Active; 'I' for Inactive)
REMARK    1  A    between atoms: C_1  and  O_2
REMARK    2  A    between atoms: O_2  and  C_3
REMARK    3  A    between atoms: C_6  and  C_7
REMARK    4  A    between atoms: N_15  and  C_16
REMARK                            x       y       z     vdW  Elec       q    Type
REMARK                         _______ _______ _______ _____ _____    ______ ____
ROOT
ATOM      1  C   UNL     1       4.456   4.302  18.796  0.00  0.00    +0.000 A 
ATOM      2  N   UNL     1       4.742   3.268  19.563  0.00  0.00    +0.000 NA
ATOM      3  C   UNL     1       3.639   3.053  20.325  0.00  0.00    +0.000 A 
ATOM      4  C   UNL     1       3.422   1.997  21.221  0.00  0.00    +0.000 A 
ATOM      5  C   UNL     1       2.204   1.920  21.882  0.00  0.00    +0.000 A 
ATOM      6  C   UNL     1       1.224   2.891  21.665  0.00  0.00    +0.000 A 
ATOM      7  C   UNL     1       1.445   3.981  20.806  0.00  0.00    +0.000 A 
ATOM      8  C   UNL     1       2.667   4.034  20.115  0.00  0.00    +0.000 A 
ATOM      9  N   UNL     1       3.270   4.925  19.223  0.00  0.00    +0.000 N 
ENDROOT
BRANCH   9  10
ATOM     10  C   UNL     1       2.793   6.191  18.752  0.00  0.00    +0.000 A 
ATOM     11  C   UNL     1       2.047   7.004  19.628  0.00  0.00    +0.000 A 
ATOM     12  C   UNL     1       1.871   8.362  19.360  0.00  0.00    +0.000 A 
ATOM     13  C   UNL     1       2.384   8.899  18.187  0.00  0.00    +0.000 A 
ATOM     14 CL   UNL     1       2.303  10.597  17.921  0.00  0.00    +0.000 Cl
ATOM     15  C   UNL     1       3.006   8.073  17.248  0.00  0.00    +0.000 A 
ATOM     16  C   UNL     1       3.205   6.711  17.521  0.00  0.00    +0.000 A 
ENDBRANCH   9  10
BRANCH   1  20
ATOM     17  C   UNL     1       6.954   5.320  15.457  0.00  0.00    +0.000 A 
ATOM     18  C   UNL     1       5.887   4.444  15.274  0.00  0.00    +0.000 A 
ATOM     19  C   UNL     1       5.067   4.090  16.348  0.00  0.00    +0.000 A 
ATOM     20  C   UNL     1       5.282   4.638  17.622  0.00  0.00    +0.000 A 
ATOM     21  C   UNL     1       6.378   5.491  17.799  0.00  0.00    +0.000 A 
ATOM     22  C   UNL     1       7.216   5.823  16.730  0.00  0.00    +0.000 A 
BRANCH  17  24
ATOM     23  C   UNL     1       7.338   4.839  13.176  0.00  0.00    +0.000 C 
ATOM     24  O   UNL     1       7.694   5.579  14.338  0.00  0.00    +0.000 OA
ENDBRANCH  17  24
ENDBRANCH   1  20
TORSDOF 3
ENDMDL
MODEL 9
REMARK VINA RESULT:      -7.0      2.462      5.764
REMARK  Name = 
REMARK  4 active torsions:
REMARK  status: ('A' for Active; 'I' for Inactive)
REMARK    1  A    between atoms: C_1  and  O_2
REMARK    2  A    between atoms: O_2  and  C_3
REMARK    3  A    between atoms: C_6  and  C_7
REMARK    4  A    between atoms: N_15  and  C_16
REMARK                            x       y       z     vdW  Elec       q    Type
REMARK                         _______ _______ _______ _____ _____    ______ ____
ROOT
ATOM      1  C   UNL     1       2.822   6.987  17.991  0.00  0.00    +0.000 A 
ATOM      2  N   UNL     1       2.537   8.218  17.611  0.00  0.00    +0.000 NA
ATOM      3  C   UNL     1       1.919   8.802  18.669  0.00  0.00    +0.000 A 
ATOM      4  C   UNL     1       1.523  10.141  18.785  0.00  0.00    +0.000 A 
ATOM      5  C   UNL     1       0.941  10.566  19.972  0.00  0.00    +0.000 A 
ATOM      6  C   UNL     1       0.744   9.665  21.020  0.00  0.00    +0.000 A 
ATOM      7  C   UNL     1       1.094   8.309  20.902  0.00  0.00    +0.000 A 
ATOM      8  C   UNL     1       1.712   7.893  19.711  0.00  0.00    +0.000 A 
ATOM      9  N   UNL     1       2.174   6.678  19.200  0.00  0.00    +0.000 N 
ENDROOT
BRANCH   9  10
ATOM     10  C   UNL     1       2.095   5.369  19.775  0.00  0.00    +0.000 A 
ATOM     11  C   UNL     1       2.858   5.085  20.925  0.00  0.00    +0.000 A 
ATOM     12  C   UNL     1       2.558   3.981  21.722  0.00  0.00    +0.000 A 
ATOM     13  C   UNL     1       1.536   3.120  21.342  0.00  0.00    +0.000 A 
ATOM     14 CL   UNL     1       1.061   1.845  22.394  0.00  0.00    +0.000 Cl
ATOM     15  C   UNL     1       0.865   3.317  20.133  0.00  0.00    +0.000 A 
ATOM     16  C   UNL     1       1.147   4.438  19.337  0.00  0.00    +0.000 A 
ENDBRANCH   9  10
BRANCH   1  20
ATOM     17  C   UNL     1       5.655   4.648  15.771  0.00  0.00    +0.000 A 
ATOM     18  C   UNL     1       4.665   4.007  16.512  0.00  0.00    +0.000 A 
ATOM     19  C   UNL     1       3.740   4.747  17.251  0.00  0.00    +0.000 A 
ATOM     20  C   UNL     1       3.767   6.149  17.231  0.00  0.00    +0.000 A 
ATOM     21  C   UNL     1       4.786   6.781  16.508  0.00  0.00    +0.000 A 
ATOM     22  C   UNL     1       5.731   6.039  15.791  0.00  0.00    +0.000 A 
BRANCH  17  24
ATOM     23  C   UNL     1       6.566   3.992  13.691  0.00  0.00    +0.000 C 
ATOM     24  O   UNL     1       6.512   3.819  15.103  0.00  0.00    +0.000 OA
ENDBRANCH  17  24
ENDBRANCH   1  20
TORSDOF 3
ENDMDL
