MODEL 1
REMARK VINA RESULT:      -8.1      0.000      0.000
REMARK  Name = 
REMARK  6 active torsions:
REMARK  status: ('A' for Active; 'I' for Inactive)
REMARK    1  A    between atoms: C_2  and  C_24
REMARK    2  A    between atoms: N_3  and  C_4
REMARK    3  A    between atoms: C_7  and  O_8
REMARK    4  A    between atoms: O_8  and  C_9
REMARK    5  A    between atoms: N_12  and  C_13
REMARK    6  A    between atoms: C_13  and  C_14
REMARK                            x       y       z     vdW  Elec       q    Type
REMARK                         _______ _______ _______ _____ _____    ______ ____
ROOT
ATOM      1  C   UNL     1       0.690  10.382  19.987  0.00  0.00    +0.000 A 
ATOM      2  C   UNL     1       1.134  10.717  18.705  0.00  0.00    +0.000 A 
ATOM      3  C   UNL     1       1.865   9.817  17.921  0.00  0.00    +0.000 A 
ATOM      4  C   UNL     1       2.206   8.563  18.415  0.00  0.00    +0.000 A 
ATOM      5  C   UNL     1       1.745   8.205  19.687  0.00  0.00    +0.000 A 
ATOM      6  C   UNL     1       0.993   9.106  20.468  0.00  0.00    +0.000 A 
ENDROOT
BRANCH   1   9
ATOM      7  O   UNL     1       0.383  10.318  22.871  0.00  0.00    +0.000 OA
ATOM      8  C   UNL     1      -0.181  11.161  22.184  0.00  0.00    +0.000 C 
ATOM      9  N   UNL     1      -0.016  11.291  20.813  0.00  0.00    +0.000 N 
ATOM     10  H   UNL     1      -0.413  12.121  20.384  0.00  0.00    +0.000 HD
BRANCH   8  11
ATOM     11  C   UNL     1      -1.064  12.124  22.823  0.00  0.00    +0.000 A 
ATOM     12  C   UNL     1      -2.432  12.029  23.012  0.00  0.00    +0.000 A 
ATOM     13  C   UNL     1      -2.846  13.228  23.624  0.00  0.00    +0.000 A 
ATOM     14  C   UNL     1      -1.712  13.988  23.771  0.00  0.00    +0.000 A 
ATOM     15  O   UNL     1      -0.616  13.326  23.299  0.00  0.00    +0.000 OA
ENDBRANCH   8  11
ENDBRANCH   1   9
BRANCH   4  16
ATOM     16  O   UNL     1       2.979   7.638  17.756  0.00  0.00    +0.000 OA
BRANCH  16  17
ATOM     17  C   UNL     1       3.245   6.405  18.451  0.00  0.00    +0.000 C 
ATOM     18  C   UNL     1       4.704   6.006  18.288  0.00  0.00    +0.000 C 
ATOM     19  C   UNL     1       4.711   5.150  17.037  0.00  0.00    +0.000 C 
ATOM     20  N   UNL     1       3.442   4.411  17.029  0.00  0.00    +0.000 NA
ATOM     21  C   UNL     1       2.488   5.215  17.833  0.00  0.00    +0.000 C 
BRANCH  20  22
ATOM     22  C   UNL     1       3.535   3.040  17.549  0.00  0.00    +0.000 C 
BRANCH  22  23
ATOM     23  C   UNL     1       2.834   2.810  18.875  0.00  0.00    +0.000 A 
ATOM     24  C   UNL     1       3.573   2.804  20.071  0.00  0.00    +0.000 A 
ATOM     25  C   UNL     1       2.932   2.650  21.301  0.00  0.00    +0.000 A 
ATOM     26  C   UNL     1       1.550   2.517  21.341  0.00  0.00    +0.000 A 
ATOM     27  F   UNL     1       0.935   2.388  22.525  0.00  0.00    +0.000 F 
ATOM     28  C   UNL     1       0.798   2.515  20.172  0.00  0.00    +0.000 A 
ATOM     29  C   UNL     1       1.440   2.652  18.939  0.00  0.00    +0.000 A 
ENDBRANCH  22  23
ENDBRANCH  20  22
ENDBRANCH  16  17
ENDBRANCH   4  16
TORSDOF 6
ENDMDL
MODEL 2
REMARK VINA RESULT:      -8.1      4.080      5.232
REMARK  Name = 
REMARK  6 active torsions:
REMARK  status: ('A' for Active; 'I' for Inactive)
REMARK    1  A    between atoms: C_2  and  C_24
REMARK    2  A    between atoms: N_3  and  C_4
REMARK    3  A    between atoms: C_7  and  O_8
REMARK    4  A    between atoms: O_8  and  C_9
REMARK    5  A    between atoms: N_12  and  C_13
REMARK    6  A    between atoms: C_13  and  C_14
REMARK                            x       y       z     vdW  Elec       q    Type
REMARK                         _______ _______ _______ _____ _____    ______ ____
ROOT
ATOM      1  C   UNL     1      -0.925  10.313  18.989  0.00  0.00    +0.000 A 
ATOM      2  C   UNL     1      -0.426   9.869  20.216  0.00  0.00    +0.000 A 
ATOM      3  C   UNL     1       0.782   9.167  20.307  0.00  0.00    +0.000 A 
ATOM      4  C   UNL     1       1.508   8.855  19.164  0.00  0.00    +0.000 A 
ATOM      5  C   UNL     1       1.032   9.316  17.932  0.00  0.00    +0.000 A 
ATOM      6  C   UNL     1      -0.175  10.040  17.843  0.00  0.00    +0.000 A 
ENDROOT
BRANCH   1   9
ATOM      7  O   UNL     1      -3.316   9.443  17.594  0.00  0.00    +0.000 OA
ATOM      8  C   UNL     1      -3.248  10.546  18.125  0.00  0.00    +0.000 C 
ATOM      9  N   UNL     1      -2.164  10.990  18.869  0.00  0.00    +0.000 N 
ATOM     10  H   UNL     1      -2.292  11.854  19.384  0.00  0.00    +0.000 HD
BRANCH   8  11
ATOM     11  C   UNL     1      -4.373  11.459  18.012  0.00  0.00    +0.000 A 
ATOM     12  C   UNL     1      -5.085  11.797  16.874  0.00  0.00    +0.000 A 
ATOM     13  C   UNL     1      -6.041  12.757  17.257  0.00  0.00    +0.000 A 
ATOM     14  C   UNL     1      -5.858  12.956  18.603  0.00  0.00    +0.000 A 
ATOM     15  O   UNL     1      -4.854  12.165  19.082  0.00  0.00    +0.000 OA
ENDBRANCH   8  11
ENDBRANCH   1   9
BRANCH   4  16
ATOM     16  O   UNL     1       2.663   8.110  19.139  0.00  0.00    +0.000 OA
BRANCH  16  17
ATOM     17  C   UNL     1       2.626   6.887  18.381  0.00  0.00    +0.000 C 
ATOM     18  C   UNL     1       2.227   5.721  19.273  0.00  0.00    +0.000 C 
ATOM     19  C   UNL     1       3.547   5.199  19.805  0.00  0.00    +0.000 C 
ATOM     20  N   UNL     1       4.529   5.372  18.728  0.00  0.00    +0.000 NA
ATOM     21  C   UNL     1       4.021   6.476  17.876  0.00  0.00    +0.000 C 
BRANCH  20  22
ATOM     22  C   UNL     1       4.772   4.164  17.927  0.00  0.00    +0.000 C 
BRANCH  22  23
ATOM     23  C   UNL     1       5.487   4.404  16.610  0.00  0.00    +0.000 A 
ATOM     24  C   UNL     1       6.827   4.830  16.603  0.00  0.00    +0.000 A 
ATOM     25  C   UNL     1       7.512   5.000  15.398  0.00  0.00    +0.000 A 
ATOM     26  C   UNL     1       6.864   4.731  14.199  0.00  0.00    +0.000 A 
ATOM     27  F   UNL     1       7.528   4.878  13.044  0.00  0.00    +0.000 F 
ATOM     28  C   UNL     1       5.538   4.314  14.180  0.00  0.00    +0.000 A 
ATOM     29  C   UNL     1       4.846   4.160  15.384  0.00  0.00    +0.000 A 
ENDBRANCH  22  23
ENDBRANCH  20  22
ENDBRANCH  16  17
ENDBRANCH   4  16
TORSDOF 6
ENDMDL
MODEL 3
REMARK VINA RESULT:      -7.9      0.910      1.326
REMARK  Name = 
REMARK  6 active torsions:
REMARK  status: ('A' for Active; 'I' for Inactive)
REMARK    1  A    between atoms: C_2  and  C_24
REMARK    2  A    between atoms: N_3  and  C_4
REMARK    3  A    between atoms: C_7  and  O_8
REMARK    4  A    between atoms: O_8  and  C_9
REMARK    5  A    between atoms: N_12  and  C_13
REMARK    6  A    between atoms: C_13  and  C_14
REMARK                            x       y       z     vdW  Elec       q    Type
REMARK                         _______ _______ _______ _____ _____    ______ ____
ROOT
ATOM      1  C   UNL     1       0.417   9.856  19.499  0.00  0.00    +0.000 A 
ATOM      2  C   UNL     1       0.894  10.237  18.243  0.00  0.00    +0.000 A 
ATOM      3  C   UNL     1       1.907   9.522  17.592  0.00  0.00    +0.000 A 
ATOM      4  C   UNL     1       2.499   8.422  18.200  0.00  0.00    +0.000 A 
ATOM      5  C   UNL     1       2.012   8.014  19.448  0.00  0.00    +0.000 A 
ATOM      6  C   UNL     1       0.980   8.724  20.093  0.00  0.00    +0.000 A 
ENDROOT
BRANCH   1   9
ATOM      7  O   UNL     1       0.769  11.760  21.659  0.00  0.00    +0.000 OA
ATOM      8  C   UNL     1      -0.345  11.433  21.267  0.00  0.00    +0.000 C 
ATOM      9  N   UNL     1      -0.579  10.587  20.193  0.00  0.00    +0.000 N 
ATOM     10  H   UNL     1      -1.538  10.518  19.870  0.00  0.00    +0.000 HD
BRANCH   8  11
ATOM     11  C   UNL     1      -1.519  11.974  21.931  0.00  0.00    +0.000 A 
ATOM     12  C   UNL     1      -1.910  11.798  23.248  0.00  0.00    +0.000 A 
ATOM     13  C   UNL     1      -3.139  12.468  23.405  0.00  0.00    +0.000 A 
ATOM     14  C   UNL     1      -3.431  13.012  22.179  0.00  0.00    +0.000 A 
ATOM     15  O   UNL     1      -2.450  12.731  21.273  0.00  0.00    +0.000 OA
ENDBRANCH   8  11
ENDBRANCH   1   9
BRANCH   4  16
ATOM     16  O   UNL     1       3.546   7.699  17.680  0.00  0.00    +0.000 OA
BRANCH  16  17
ATOM     17  C   UNL     1       3.874   6.467  18.347  0.00  0.00    +0.000 C 
ATOM     18  C   UNL     1       5.194   5.916  17.827  0.00  0.00    +0.000 C 
ATOM     19  C   UNL     1       4.787   5.028  16.668  0.00  0.00    +0.000 C 
ATOM     20  N   UNL     1       3.501   4.423  17.035  0.00  0.00    +0.000 NA
ATOM     21  C   UNL     1       2.874   5.343  18.017  0.00  0.00    +0.000 C 
BRANCH  20  22
ATOM     22  C   UNL     1       3.604   3.065  17.587  0.00  0.00    +0.000 C 
BRANCH  22  23
ATOM     23  C   UNL     1       2.931   2.869  18.932  0.00  0.00    +0.000 A 
ATOM     24  C   UNL     1       1.529   2.803  19.016  0.00  0.00    +0.000 A 
ATOM     25  C   UNL     1       0.901   2.567  20.240  0.00  0.00    +0.000 A 
ATOM     26  C   UNL     1       1.672   2.382  21.381  0.00  0.00    +0.000 A 
ATOM     27  F   UNL     1       1.068   2.138  22.552  0.00  0.00    +0.000 F 
ATOM     28  C   UNL     1       3.059   2.447  21.324  0.00  0.00    +0.000 A 
ATOM     29  C   UNL     1       3.689   2.700  20.103  0.00  0.00    +0.000 A 
ENDBRANCH  22  23
ENDBRANCH  20  22
ENDBRANCH  16  17
ENDBRANCH   4  16
TORSDOF 6
ENDMDL
MODEL 4
REMARK VINA RESULT:      -7.8      1.350      1.391
REMARK  Name = 
REMARK  6 active torsions:
REMARK  status: ('A' for Active; 'I' for Inactive)
REMARK    1  A    between atoms: C_2  and  C_24
REMARK    2  A    between atoms: N_3  and  C_4
REMARK    3  A    between atoms: C_7  and  O_8
REMARK    4  A    between atoms: O_8  and  C_9
REMARK    5  A    between atoms: N_12  and  C_13
REMARK    6  A    between atoms: C_13  and  C_14
REMARK                            x       y       z     vdW  Elec       q    Type
REMARK                         _______ _______ _______ _____ _____    ______ ____
ROOT
ATOM      1  C   UNL     1       0.598  10.233  19.835  0.00  0.00    +0.000 A 
ATOM      2  C   UNL     1       1.044  10.557  18.551  0.00  0.00    +0.000 A 
ATOM      3  C   UNL     1       1.876   9.699  17.823  0.00  0.00    +0.000 A 
ATOM      4  C   UNL     1       2.320   8.505  18.377  0.00  0.00    +0.000 A 
ATOM      5  C   UNL     1       1.861   8.156  19.653  0.00  0.00    +0.000 A 
ATOM      6  C   UNL     1       1.007   9.012  20.377  0.00  0.00    +0.000 A 
ENDROOT
BRANCH   1   9
ATOM      7  O   UNL     1      -1.996  11.341  19.154  0.00  0.00    +0.000 OA
ATOM      8  C   UNL     1      -1.416  11.653  20.187  0.00  0.00    +0.000 C 
ATOM      9  N   UNL     1      -0.212  11.104  20.605  0.00  0.00    +0.000 N 
ATOM     10  H   UNL     1       0.086  11.329  21.548  0.00  0.00    +0.000 HD
BRANCH   8  11
ATOM     11  C   UNL     1      -2.018  12.638  21.070  0.00  0.00    +0.000 A 
ATOM     12  C   UNL     1      -1.632  12.979  22.355  0.00  0.00    +0.000 A 
ATOM     13  C   UNL     1      -2.552  13.938  22.820  0.00  0.00    +0.000 A 
ATOM     14  C   UNL     1      -3.448  14.128  21.798  0.00  0.00    +0.000 A 
ATOM     15  O   UNL     1      -3.131  13.353  20.720  0.00  0.00    +0.000 OA
ENDBRANCH   8  11
ENDBRANCH   1   9
BRANCH   4  16
ATOM     16  O   UNL     1       3.194   7.631  17.777  0.00  0.00    +0.000 OA
BRANCH  16  17
ATOM     17  C   UNL     1       3.435   6.387  18.460  0.00  0.00    +0.000 C 
ATOM     18  C   UNL     1       4.883   5.953  18.280  0.00  0.00    +0.000 C 
ATOM     19  C   UNL     1       4.857   5.107  17.022  0.00  0.00    +0.000 C 
ATOM     20  N   UNL     1       3.570   4.400  17.021  0.00  0.00    +0.000 NA
ATOM     21  C   UNL     1       2.643   5.221  17.840  0.00  0.00    +0.000 C 
BRANCH  20  22
ATOM     22  C   UNL     1       3.633   3.022  17.529  0.00  0.00    +0.000 C 
BRANCH  22  23
ATOM     23  C   UNL     1       2.909   2.792  18.842  0.00  0.00    +0.000 A 
ATOM     24  C   UNL     1       3.630   2.766  20.049  0.00  0.00    +0.000 A 
ATOM     25  C   UNL     1       2.968   2.611  21.269  0.00  0.00    +0.000 A 
ATOM     26  C   UNL     1       1.584   2.497  21.287  0.00  0.00    +0.000 A 
ATOM     27  F   UNL     1       0.949   2.366  22.459  0.00  0.00    +0.000 F 
ATOM     28  C   UNL     1       0.850   2.514  20.106  0.00  0.00    +0.000 A 
ATOM     29  C   UNL     1       1.512   2.652  18.884  0.00  0.00    +0.000 A 
ENDBRANCH  22  23
ENDBRANCH  20  22
ENDBRANCH  16  17
ENDBRANCH   4  16
TORSDOF 6
ENDMDL
MODEL 5
REMARK VINA RESULT:      -7.8      3.473      4.717
REMARK  Name = 
REMARK  6 active torsions:
REMARK  status: ('A' for Active; 'I' for Inactive)
REMARK    1  A    between atoms: C_2  and  C_24
REMARK    2  A    between atoms: N_3  and  C_4
REMARK    3  A    between atoms: C_7  and  O_8
REMARK    4  A    between atoms: O_8  and  C_9
REMARK    5  A    between atoms: N_12  and  C_13
REMARK    6  A    between atoms: C_13  and  C_14
REMARK                            x       y       z     vdW  Elec       q    Type
REMARK                         _______ _______ _______ _____ _____    ______ ____
ROOT
ATOM      1  C   UNL     1       1.143  11.017  18.784  0.00  0.00    +0.000 A 
ATOM      2  C   UNL     1       1.874  10.215  17.904  0.00  0.00    +0.000 A 
ATOM      3  C   UNL     1       2.159   8.875  18.194  0.00  0.00    +0.000 A 
ATOM      4  C   UNL     1       1.751   8.308  19.395  0.00  0.00    +0.000 A 
ATOM      5  C   UNL     1       0.996   9.093  20.274  0.00  0.00    +0.000 A 
ATOM      6  C   UNL     1       0.694  10.436  19.973  0.00  0.00    +0.000 A 
ENDROOT
BRANCH   1   9
ATOM      7  O   UNL     1       2.741  13.322  19.528  0.00  0.00    +0.000 OA
ATOM      8  C   UNL     1       1.653  13.445  18.977  0.00  0.00    +0.000 C 
ATOM      9  N   UNL     1       0.878  12.385  18.530  0.00  0.00    +0.000 N 
ATOM     10  H   UNL     1       0.077  12.620  17.954  0.00  0.00    +0.000 HD
BRANCH   8  11
ATOM     11  C   UNL     1       1.127  14.778  18.733  0.00  0.00    +0.000 A 
ATOM     12  C   UNL     1       1.833  15.964  18.618  0.00  0.00    +0.000 A 
ATOM     13  C   UNL     1       0.885  16.991  18.441  0.00  0.00    +0.000 A 
ATOM     14  C   UNL     1      -0.343  16.378  18.461  0.00  0.00    +0.000 A 
ATOM     15  O   UNL     1      -0.214  15.029  18.626  0.00  0.00    +0.000 OA
ENDBRANCH   8  11
ENDBRANCH   1   9
BRANCH   4  16
ATOM     16  O   UNL     1       2.042   7.029  19.805  0.00  0.00    +0.000 OA
BRANCH  16  17
ATOM     17  C   UNL     1       2.792   6.211  18.888  0.00  0.00    +0.000 C 
ATOM     18  C   UNL     1       1.932   5.067  18.371  0.00  0.00    +0.000 C 
ATOM     19  C   UNL     1       2.176   3.949  19.364  0.00  0.00    +0.000 C 
ATOM     20  N   UNL     1       3.577   4.064  19.787  0.00  0.00    +0.000 NA
ATOM     21  C   UNL     1       3.959   5.483  19.580  0.00  0.00    +0.000 C 
BRANCH  20  22
ATOM     22  C   UNL     1       4.502   3.167  19.078  0.00  0.00    +0.000 C 
BRANCH  22  23
ATOM     23  C   UNL     1       5.238   3.801  17.912  0.00  0.00    +0.000 A 
ATOM     24  C   UNL     1       4.692   3.741  16.618  0.00  0.00    +0.000 A 
ATOM     25  C   UNL     1       5.332   4.368  15.548  0.00  0.00    +0.000 A 
ATOM     26  C   UNL     1       6.510   5.069  15.770  0.00  0.00    +0.000 A 
ATOM     27  F   UNL     1       7.114   5.685  14.745  0.00  0.00    +0.000 F 
ATOM     28  C   UNL     1       7.072   5.138  17.040  0.00  0.00    +0.000 A 
ATOM     29  C   UNL     1       6.442   4.497  18.109  0.00  0.00    +0.000 A 
ENDBRANCH  22  23
ENDBRANCH  20  22
ENDBRANCH  16  17
ENDBRANCH   4  16
TORSDOF 6
ENDMDL
MODEL 6
REMARK VINA RESULT:      -7.7      7.485     11.181
REMARK  Name = 
REMARK  6 active torsions:
REMARK  status: ('A' for Active; 'I' for Inactive)
REMARK    1  A    between atoms: C_2  and  C_24
REMARK    2  A    between atoms: N_3  and  C_4
REMARK    3  A    between atoms: C_7  and  O_8
REMARK    4  A    between atoms: O_8  and  C_9
REMARK    5  A    between atoms: N_12  and  C_13
REMARK    6  A    between atoms: C_13  and  C_14
REMARK                            x       y       z     vdW  Elec       q    Type
REMARK                         _______ _______ _______ _____ _____    ______ ____
ROOT
ATOM      1  C   UNL     1       6.209   5.975  18.011  0.00  0.00    +0.000 A 
ATOM      2  C   UNL     1       6.244   7.149  17.255  0.00  0.00    +0.000 A 
ATOM      3  C   UNL     1       7.260   8.098  17.418  0.00  0.00    +0.000 A 
ATOM      4  C   UNL     1       8.252   7.916  18.373  0.00  0.00    +0.000 A 
ATOM      5  C   UNL     1       8.243   6.732  19.120  0.00  0.00    +0.000 A 
ATOM      6  C   UNL     1       7.230   5.768  18.941  0.00  0.00    +0.000 A 
ENDROOT
BRANCH   1   9
ATOM      7  O   UNL     1       3.423   6.250  18.778  0.00  0.00    +0.000 OA
ATOM      8  C   UNL     1       3.869   5.193  18.344  0.00  0.00    +0.000 C 
ATOM      9  N   UNL     1       5.168   5.020  17.891  0.00  0.00    +0.000 N 
ATOM     10  H   UNL     1       5.370   4.148  17.414  0.00  0.00    +0.000 HD
BRANCH   8  11
ATOM     11  C   UNL     1       2.994   4.036  18.256  0.00  0.00    +0.000 A 
ATOM     12  C   UNL     1       1.715   3.895  18.768  0.00  0.00    +0.000 A 
ATOM     13  C   UNL     1       1.299   2.581  18.478  0.00  0.00    +0.000 A 
ATOM     14  C   UNL     1       2.344   1.994  17.810  0.00  0.00    +0.000 A 
ATOM     15  O   UNL     1       3.380   2.869  17.655  0.00  0.00    +0.000 OA
ENDBRANCH   8  11
ENDBRANCH   1   9
BRANCH   4  16
ATOM     16  O   UNL     1       9.249   8.818  18.661  0.00  0.00    +0.000 OA
BRANCH  16  17
ATOM     17  C   UNL     1       8.838  10.174  18.917  0.00  0.00    +0.000 C 
ATOM     18  C   UNL     1       9.524  11.128  17.951  0.00  0.00    +0.000 C 
ATOM     19  C   UNL     1      10.802  11.518  18.667  0.00  0.00    +0.000 C 
ATOM     20  N   UNL     1      10.479  11.570  20.099  0.00  0.00    +0.000 NA
ATOM     21  C   UNL     1       9.311  10.674  20.294  0.00  0.00    +0.000 C 
BRANCH  20  22
ATOM     22  C   UNL     1      10.192  12.918  20.609  0.00  0.00    +0.000 C 
BRANCH  22  23
ATOM     23  C   UNL     1      10.596  14.050  19.683  0.00  0.00    +0.000 A 
ATOM     24  C   UNL     1      11.940  14.455  19.609  0.00  0.00    +0.000 A 
ATOM     25  C   UNL     1      12.332  15.457  18.719  0.00  0.00    +0.000 A 
ATOM     26  C   UNL     1      11.386  16.047  17.892  0.00  0.00    +0.000 A 
ATOM     27  F   UNL     1      11.767  16.996  17.027  0.00  0.00    +0.000 F 
ATOM     28  C   UNL     1      10.049  15.668  17.951  0.00  0.00    +0.000 A 
ATOM     29  C   UNL     1       9.652  14.677  18.851  0.00  0.00    +0.000 A 
ENDBRANCH  22  23
ENDBRANCH  20  22
ENDBRANCH  16  17
ENDBRANCH   4  16
TORSDOF 6
ENDMDL
MODEL 7
REMARK VINA RESULT:      -7.7      5.474      7.170
REMARK  Name = 
REMARK  6 active torsions:
REMARK  status: ('A' for Active; 'I' for Inactive)
REMARK    1  A    between atoms: C_2  and  C_24
REMARK    2  A    between atoms: N_3  and  C_4
REMARK    3  A    between atoms: C_7  and  O_8
REMARK    4  A    between atoms: O_8  and  C_9
REMARK    5  A    between atoms: N_12  and  C_13
REMARK    6  A    between atoms: C_13  and  C_14
REMARK                            x       y       z     vdW  Elec       q    Type
REMARK                         _______ _______ _______ _____ _____    ______ ____
ROOT
ATOM      1  C   UNL     1       8.143   8.436  17.870  0.00  0.00    +0.000 A 
ATOM      2  C   UNL     1       7.266   7.902  16.923  0.00  0.00    +0.000 A 
ATOM      3  C   UNL     1       6.770   6.597  17.032  0.00  0.00    +0.000 A 
ATOM      4  C   UNL     1       7.169   5.774  18.078  0.00  0.00    +0.000 A 
ATOM      5  C   UNL     1       8.028   6.304  19.048  0.00  0.00    +0.000 A 
ATOM      6  C   UNL     1       8.511   7.624  18.946  0.00  0.00    +0.000 A 
ENDROOT
BRANCH   1   9
ATOM      7  O   UNL     1       9.239  10.109  19.972  0.00  0.00    +0.000 OA
ATOM      8  C   UNL     1       9.133  10.512  18.820  0.00  0.00    +0.000 C 
ATOM      9  N   UNL     1       8.689   9.739  17.758  0.00  0.00    +0.000 N 
ATOM     10  H   UNL     1       8.794  10.137  16.831  0.00  0.00    +0.000 HD
BRANCH   8  11
ATOM     11  C   UNL     1       9.521  11.878  18.507  0.00  0.00    +0.000 A 
ATOM     12  C   UNL     1       9.018  13.050  19.044  0.00  0.00    +0.000 A 
ATOM     13  C   UNL     1       9.665  14.115  18.388  0.00  0.00    +0.000 A 
ATOM     14  C   UNL     1      10.523  13.536  17.486  0.00  0.00    +0.000 A 
ATOM     15  O   UNL     1      10.457  12.174  17.553  0.00  0.00    +0.000 OA
ENDBRANCH   8  11
ENDBRANCH   1   9
BRANCH   4  16
ATOM     16  O   UNL     1       6.799   4.459  18.235  0.00  0.00    +0.000 OA
BRANCH  16  17
ATOM     17  C   UNL     1       5.475   4.218  18.746  0.00  0.00    +0.000 C 
ATOM     18  C   UNL     1       4.687   3.338  17.787  0.00  0.00    +0.000 C 
ATOM     19  C   UNL     1       4.008   4.325  16.859  0.00  0.00    +0.000 C 
ATOM     20  N   UNL     1       3.677   5.502  17.672  0.00  0.00    +0.000 NA
ATOM     21  C   UNL     1       4.633   5.506  18.807  0.00  0.00    +0.000 C 
BRANCH  20  22
ATOM     22  C   UNL     1       2.290   5.536  18.157  0.00  0.00    +0.000 C 
BRANCH  22  23
ATOM     23  C   UNL     1       1.982   4.559  19.277  0.00  0.00    +0.000 A 
ATOM     24  C   UNL     1       2.391   4.843  20.592  0.00  0.00    +0.000 A 
ATOM     25  C   UNL     1       2.064   3.979  21.639  0.00  0.00    +0.000 A 
ATOM     26  C   UNL     1       1.316   2.838  21.377  0.00  0.00    +0.000 A 
ATOM     27  F   UNL     1       0.989   2.020  22.386  0.00  0.00    +0.000 F 
ATOM     28  C   UNL     1       0.905   2.533  20.085  0.00  0.00    +0.000 A 
ATOM     29  C   UNL     1       1.246   3.388  19.033  0.00  0.00    +0.000 A 
ENDBRANCH  22  23
ENDBRANCH  20  22
ENDBRANCH  16  17
ENDBRANCH   4  16
TORSDOF 6
ENDMDL
MODEL 8
REMARK VINA RESULT:      -7.6      1.053      1.723
REMARK  Name = 
REMARK  6 active torsions:
REMARK  status: ('A' for Active; 'I' for Inactive)
REMARK    1  A    between atoms: C_2  and  C_24
REMARK    2  A    between atoms: N_3  and  C_4
REMARK    3  A    between atoms: C_7  and  O_8
REMARK    4  A    between atoms: O_8  and  C_9
REMARK    5  A    between atoms: N_12  and  C_13
REMARK    6  A    between atoms: C_13  and  C_14
REMARK                            x       y       z     vdW  Elec       q    Type
REMARK                         _______ _______ _______ _____ _____    ______ ____
ROOT
ATOM      1  C   UNL     1       0.065  10.275  19.680  0.00  0.00    +0.000 A 
ATOM      2  C   UNL     1       0.646   9.235  20.411  0.00  0.00    +0.000 A 
ATOM      3  C   UNL     1       1.667   8.441  19.876  0.00  0.00    +0.000 A 
ATOM      4  C   UNL     1       2.112   8.642  18.575  0.00  0.00    +0.000 A 
ATOM      5  C   UNL     1       1.557   9.696  17.841  0.00  0.00    +0.000 A 
ATOM      6  C   UNL     1       0.542  10.507  18.388  0.00  0.00    +0.000 A 
ENDROOT
BRANCH   1   9
ATOM      7  O   UNL     1       0.032  11.912  22.076  0.00  0.00    +0.000 OA
ATOM      8  C   UNL     1      -0.967  11.771  21.380  0.00  0.00    +0.000 C 
ATOM      9  N   UNL     1      -0.996  11.065  20.187  0.00  0.00    +0.000 N 
ATOM     10  H   UNL     1      -1.839  11.151  19.629  0.00  0.00    +0.000 HD
BRANCH   8  11
ATOM     11  C   UNL     1      -2.212  12.399  21.791  0.00  0.00    +0.000 A 
ATOM     12  C   UNL     1      -2.628  12.707  23.075  0.00  0.00    +0.000 A 
ATOM     13  C   UNL     1      -3.923  13.251  22.969  0.00  0.00    +0.000 A 
ATOM     14  C   UNL     1      -4.227  13.242  21.630  0.00  0.00    +0.000 A 
ATOM     15  O   UNL     1      -3.192  12.737  20.897  0.00  0.00    +0.000 OA
ENDBRANCH   8  11
ENDBRANCH   1   9
BRANCH   4  16
ATOM     16  O   UNL     1       3.054   7.873  17.934  0.00  0.00    +0.000 OA
BRANCH  16  17
ATOM     17  C   UNL     1       3.394   6.618  18.552  0.00  0.00    +0.000 C 
ATOM     18  C   UNL     1       4.785   6.174  18.124  0.00  0.00    +0.000 C 
ATOM     19  C   UNL     1       4.537   5.345  16.880  0.00  0.00    +0.000 C 
ATOM     20  N   UNL     1       3.261   4.649  17.089  0.00  0.00    +0.000 NA
ATOM     21  C   UNL     1       2.495   5.468  18.062  0.00  0.00    +0.000 C 
BRANCH  20  22
ATOM     22  C   UNL     1       3.394   3.265  17.564  0.00  0.00    +0.000 C 
BRANCH  22  23
ATOM     23  C   UNL     1       2.791   2.997  18.930  0.00  0.00    +0.000 A 
ATOM     24  C   UNL     1       1.400   2.853  19.071  0.00  0.00    +0.000 A 
ATOM     25  C   UNL     1       0.839   2.551  20.313  0.00  0.00    +0.000 A 
ATOM     26  C   UNL     1       1.667   2.378  21.414  0.00  0.00    +0.000 A 
ATOM     27  F   UNL     1       1.128   2.071  22.602  0.00  0.00    +0.000 F 
ATOM     28  C   UNL     1       3.046   2.520  21.302  0.00  0.00    +0.000 A 
ATOM     29  C   UNL     1       3.607   2.839  20.063  0.00  0.00    +0.000 A 
ENDBRANCH  22  23
ENDBRANCH  20  22
ENDBRANCH  16  17
ENDBRANCH   4  16
TORSDOF 6
ENDMDL
MODEL 9
REMARK VINA RESULT:      -7.6      3.476      9.686
REMARK  Name = 
REMARK  6 active torsions:
REMARK  status: ('A' for Active; 'I' for Inactive)
REMARK    1  A    between atoms: C_2  and  C_24
REMARK    2  A    between atoms: N_3  and  C_4
REMARK    3  A    between atoms: C_7  and  O_8
REMARK    4  A    between atoms: O_8  and  C_9
REMARK    5  A    between atoms: N_12  and  C_13
REMARK    6  A    between atoms: C_13  and  C_14
REMARK                            x       y       z     vdW  Elec       q    Type
REMARK                         _______ _______ _______ _____ _____    ______ ____
ROOT
ATOM      1  C   UNL     1       3.434   5.779  17.913  0.00  0.00    +0.000 A 
ATOM      2  C   UNL     1       3.232   5.037  19.079  0.00  0.00    +0.000 A 
ATOM      3  C   UNL     1       2.484   5.541  20.150  0.00  0.00    +0.000 A 
ATOM      4  C   UNL     1       1.948   6.822  20.099  0.00  0.00    +0.000 A 
ATOM      5  C   UNL     1       2.121   7.565  18.926  0.00  0.00    +0.000 A 
ATOM      6  C   UNL     1       2.859   7.049  17.841  0.00  0.00    +0.000 A 
ENDROOT
BRANCH   1   9
ATOM      7  O   UNL     1       6.214   6.367  17.325  0.00  0.00    +0.000 OA
ATOM      8  C   UNL     1       5.529   5.683  16.572  0.00  0.00    +0.000 C 
ATOM      9  N   UNL     1       4.221   5.305  16.833  0.00  0.00    +0.000 N 
ATOM     10  H   UNL     1       3.816   4.614  16.211  0.00  0.00    +0.000 HD
BRANCH   8  11
ATOM     11  C   UNL     1       6.109   5.195  15.332  0.00  0.00    +0.000 A 
ATOM     12  C   UNL     1       5.604   4.228  14.479  0.00  0.00    +0.000 A 
ATOM     13  C   UNL     1       6.545   4.060  13.445  0.00  0.00    +0.000 A 
ATOM     14  C   UNL     1       7.571   4.929  13.724  0.00  0.00    +0.000 A 
ATOM     15  O   UNL     1       7.316   5.637  14.863  0.00  0.00    +0.000 OA
ENDBRANCH   8  11
ENDBRANCH   1   9
BRANCH   4  16
ATOM     16  O   UNL     1       1.263   7.434  21.121  0.00  0.00    +0.000 OA
BRANCH  16  17
ATOM     17  C   UNL     1       1.327   8.872  21.171  0.00  0.00    +0.000 C 
ATOM     18  C   UNL     1       1.475   9.347  22.609  0.00  0.00    +0.000 C 
ATOM     19  C   UNL     1       0.047   9.524  23.085  0.00  0.00    +0.000 C 
ATOM     20  N   UNL     1      -0.724   9.994  21.927  0.00  0.00    +0.000 NA
ATOM     21  C   UNL     1       0.008   9.527  20.723  0.00  0.00    +0.000 C 
BRANCH  20  22
ATOM     22  C   UNL     1      -0.926  11.449  21.882  0.00  0.00    +0.000 C 
BRANCH  22  23
ATOM     23  C   UNL     1      -0.158  12.167  20.787  0.00  0.00    +0.000 A 
ATOM     24  C   UNL     1       1.161  12.594  21.016  0.00  0.00    +0.000 A 
ATOM     25  C   UNL     1       1.897  13.206  19.999  0.00  0.00    +0.000 A 
ATOM     26  C   UNL     1       1.321  13.378  18.747  0.00  0.00    +0.000 A 
ATOM     27  F   UNL     1       2.034  13.949  17.767  0.00  0.00    +0.000 F 
ATOM     28  C   UNL     1       0.016  12.969  18.498  0.00  0.00    +0.000 A 
ATOM     29  C   UNL     1      -0.727  12.372  19.519  0.00  0.00    +0.000 A 
ENDBRANCH  22  23
ENDBRANCH  20  22
ENDBRANCH  16  17
ENDBRANCH   4  16
TORSDOF 6
ENDMDL
