MODEL 1
REMARK VINA RESULT:      -8.3      0.000      0.000
REMARK  Name = 
REMARK  6 active torsions:
REMARK  status: ('A' for Active; 'I' for Inactive)
REMARK    1  A    between atoms: C_2  and  C_4
REMARK    2  A    between atoms: C_8  and  C_9
REMARK    3  A    between atoms: C_12  and  C_13
REMARK    4  A    between atoms: C_16  and  C_17
REMARK    5  A    between atoms: C_17  and  C_18
REMARK    6  A    between atoms: C_18  and  O_20
REMARK                            x       y       z     vdW  Elec       q    Type
REMARK                         _______ _______ _______ _____ _____    ______ ____
ROOT
ATOM      1  C   UNL     1       0.980   9.054  20.172  0.00  0.00    +0.000 A 
ATOM      2  C   UNL     1       1.504   7.832  20.631  0.00  0.00    +0.000 A 
ATOM      3  C   UNL     1       2.277   7.009  19.808  0.00  0.00    +0.000 A 
ATOM      4  C   UNL     1       2.544   7.364  18.479  0.00  0.00    +0.000 A 
ATOM      5  C   UNL     1       2.027   8.576  18.006  0.00  0.00    +0.000 A 
ATOM      6  C   UNL     1       1.257   9.404  18.841  0.00  0.00    +0.000 A 
ENDROOT
BRANCH   1  11
ATOM      7  C   UNL     1      -1.276  11.691  21.348  0.00  0.00    +0.000 A 
ATOM      8  C   UNL     1      -1.224  11.537  22.725  0.00  0.00    +0.000 A 
ATOM      9  N   UNL     1      -0.466  10.587  23.315  0.00  0.00    +0.000 NA
ATOM     10  C   UNL     1       0.232   9.804  22.457  0.00  0.00    +0.000 A 
ATOM     11  C   UNL     1       0.187   9.932  21.061  0.00  0.00    +0.000 A 
ATOM     12  N   UNL     1      -0.585  10.892  20.480  0.00  0.00    +0.000 NA
BRANCH   7  14
ATOM     13  N   UNL     1      -3.141  13.241  21.405  0.00  0.00    +0.000 NA
ATOM     14  C   UNL     1      -2.126  12.772  20.751  0.00  0.00    +0.000 C 
ATOM     15  N   UNL     1      -1.827  13.260  19.509  0.00  0.00    +0.000 N 
ATOM     16  H   UNL     1      -3.569  13.995  20.862  0.00  0.00    +0.000 HD
ATOM     17  H   UNL     1      -2.600  13.615  18.963  0.00  0.00    +0.000 HD
ATOM     18  H   UNL     1      -1.195  12.663  18.976  0.00  0.00    +0.000 HD
ENDBRANCH   7  14
ENDBRANCH   1  11
BRANCH   4  19
ATOM     19  C   UNL     1       3.237   6.345  17.591  0.00  0.00    +0.000 C 
ATOM     20  C   UNL     1       4.473   7.017  16.975  0.00  0.00    +0.000 C 
ATOM     21  C   UNL     1       5.195   6.096  16.001  0.00  0.00    +0.000 C 
ATOM     22  C   UNL     1       5.608   4.783  16.680  0.00  0.00    +0.000 C 
ATOM     23  C   UNL     1       4.371   4.092  17.285  0.00  0.00    +0.000 C 
ATOM     24  C   UNL     1       3.613   5.009  18.254  0.00  0.00    +0.000 C 
BRANCH  22  25
ATOM     25  C   UNL     1       6.316   3.842  15.688  0.00  0.00    +0.000 C 
BRANCH  25  26
ATOM     26  C   UNL     1       6.925   4.578  14.512  0.00  0.00    +0.000 C 
ATOM     27  O   UNL     1       7.835   5.388  14.584  0.00  0.00    +0.000 OA
BRANCH  26  28
ATOM     28  O   UNL     1       6.374   4.215  13.329  0.00  0.00    +0.000 OA
ATOM     29  H   UNL     1       7.004   4.187  12.584  0.00  0.00    +0.000 HD
ENDBRANCH  26  28
ENDBRANCH  25  26
ENDBRANCH  22  25
ENDBRANCH   4  19
TORSDOF 6
ENDMDL
MODEL 2
REMARK VINA RESULT:      -8.2      6.143     10.040
REMARK  Name = 
REMARK  6 active torsions:
REMARK  status: ('A' for Active; 'I' for Inactive)
REMARK    1  A    between atoms: C_2  and  C_4
REMARK    2  A    between atoms: C_8  and  C_9
REMARK    3  A    between atoms: C_12  and  C_13
REMARK    4  A    between atoms: C_16  and  C_17
REMARK    5  A    between atoms: C_17  and  C_18
REMARK    6  A    between atoms: C_18  and  O_20
REMARK                            x       y       z     vdW  Elec       q    Type
REMARK                         _______ _______ _______ _____ _____    ______ ____
ROOT
ATOM      1  C   UNL     1       2.600   6.888  18.846  0.00  0.00    +0.000 A 
ATOM      2  C   UNL     1       2.175   6.755  20.180  0.00  0.00    +0.000 A 
ATOM      3  C   UNL     1       1.461   7.767  20.827  0.00  0.00    +0.000 A 
ATOM      4  C   UNL     1       1.156   8.967  20.172  0.00  0.00    +0.000 A 
ATOM      5  C   UNL     1       1.574   9.116  18.845  0.00  0.00    +0.000 A 
ATOM      6  C   UNL     1       2.285   8.092  18.195  0.00  0.00    +0.000 A 
ENDROOT
BRANCH   1  11
ATOM      7  C   UNL     1       5.296   4.916  17.338  0.00  0.00    +0.000 A 
ATOM      8  C   UNL     1       4.623   3.797  16.872  0.00  0.00    +0.000 A 
ATOM      9  N   UNL     1       3.290   3.642  17.027  0.00  0.00    +0.000 NA
ATOM     10  C   UNL     1       2.671   4.662  17.670  0.00  0.00    +0.000 A 
ATOM     11  C   UNL     1       3.330   5.799  18.160  0.00  0.00    +0.000 A 
ATOM     12  N   UNL     1       4.675   5.939  18.001  0.00  0.00    +0.000 NA
BRANCH   7  14
ATOM     13  N   UNL     1       7.239   5.792  16.181  0.00  0.00    +0.000 NA
ATOM     14  C   UNL     1       6.775   5.038  17.126  0.00  0.00    +0.000 C 
ATOM     15  N   UNL     1       7.634   4.345  17.933  0.00  0.00    +0.000 N 
ATOM     16  H   UNL     1       8.261   5.784  16.218  0.00  0.00    +0.000 HD
ATOM     17  H   UNL     1       8.522   4.080  17.529  0.00  0.00    +0.000 HD
ATOM     18  H   UNL     1       7.187   3.593  18.457  0.00  0.00    +0.000 HD
ENDBRANCH   7  14
ENDBRANCH   1  11
BRANCH   4  19
ATOM     19  C   UNL     1       0.535  10.090  20.987  0.00  0.00    +0.000 C 
ATOM     20  C   UNL     1      -0.422  10.866  20.070  0.00  0.00    +0.000 C 
ATOM     21  C   UNL     1      -1.036  12.066  20.777  0.00  0.00    +0.000 C 
ATOM     22  C   UNL     1      -1.777  11.642  22.053  0.00  0.00    +0.000 C 
ATOM     23  C   UNL     1      -0.819  10.878  22.987  0.00  0.00    +0.000 C 
ATOM     24  C   UNL     1      -0.169   9.675  22.290  0.00  0.00    +0.000 C 
BRANCH  22  25
ATOM     25  C   UNL     1      -2.376  12.859  22.779  0.00  0.00    +0.000 C 
BRANCH  25  26
ATOM     26  C   UNL     1      -3.841  12.678  23.121  0.00  0.00    +0.000 C 
ATOM     27  O   UNL     1      -4.774  13.165  22.503  0.00  0.00    +0.000 OA
BRANCH  26  28
ATOM     28  O   UNL     1      -4.030  11.867  24.190  0.00  0.00    +0.000 OA
ATOM     29  H   UNL     1      -4.907  11.441  24.221  0.00  0.00    +0.000 HD
ENDBRANCH  26  28
ENDBRANCH  25  26
ENDBRANCH  22  25
ENDBRANCH   4  19
TORSDOF 6
ENDMDL
MODEL 3
REMARK VINA RESULT:      -8.2      0.902      1.693
REMARK  Name = 
REMARK  6 active torsions:
REMARK  status: ('A' for Active; 'I' for Inactive)
REMARK    1  A    between atoms: C_2  and  C_4
REMARK    2  A    between atoms: C_8  and  C_9
REMARK    3  A    between atoms: C_12  and  C_13
REMARK    4  A    between atoms: C_16  and  C_17
REMARK    5  A    between atoms: C_17  and  C_18
REMARK    6  A    between atoms: C_18  and  O_20
REMARK                            x       y       z     vdW  Elec       q    Type
REMARK                         _______ _______ _______ _____ _____    ______ ____
ROOT
ATOM      1  C   UNL     1       0.742   9.238  20.429  0.00  0.00    +0.000 A 
ATOM      2  C   UNL     1       1.209   9.459  19.121  0.00  0.00    +0.000 A 
ATOM      3  C   UNL     1       2.054   8.549  18.480  0.00  0.00    +0.000 A 
ATOM      4  C   UNL     1       2.486   7.385  19.129  0.00  0.00    +0.000 A 
ATOM      5  C   UNL     1       2.033   7.152  20.432  0.00  0.00    +0.000 A 
ATOM      6  C   UNL     1       1.176   8.066  21.070  0.00  0.00    +0.000 A 
ENDROOT
BRANCH   1  11
ATOM      7  C   UNL     1      -1.698  11.920  20.957  0.00  0.00    +0.000 A 
ATOM      8  C   UNL     1      -1.822  11.944  22.338  0.00  0.00    +0.000 A 
ATOM      9  N   UNL     1      -1.128  11.104  23.137  0.00  0.00    +0.000 NA
ATOM     10  C   UNL     1      -0.310  10.244  22.483  0.00  0.00    +0.000 A 
ATOM     11  C   UNL     1      -0.176  10.193  21.089  0.00  0.00    +0.000 A 
ATOM     12  N   UNL     1      -0.885  11.042  20.295  0.00  0.00    +0.000 NA
BRANCH   7  14
ATOM     13  N   UNL     1      -2.260  14.158  20.210  0.00  0.00    +0.000 NA
ATOM     14  C   UNL     1      -2.484  12.885  20.122  0.00  0.00    +0.000 C 
ATOM     15  N   UNL     1      -3.444  12.417  19.269  0.00  0.00    +0.000 N 
ATOM     16  H   UNL     1      -2.856  14.650  19.539  0.00  0.00    +0.000 HD
ATOM     17  H   UNL     1      -4.222  13.034  19.077  0.00  0.00    +0.000 HD
ATOM     18  H   UNL     1      -3.728  11.456  19.458  0.00  0.00    +0.000 HD
ENDBRANCH   7  14
ENDBRANCH   1  11
BRANCH   4  19
ATOM     19  C   UNL     1       3.541   6.532  18.444  0.00  0.00    +0.000 C 
ATOM     20  C   UNL     1       2.848   5.280  17.886  0.00  0.00    +0.000 C 
ATOM     21  C   UNL     1       3.840   4.319  17.247  0.00  0.00    +0.000 C 
ATOM     22  C   UNL     1       4.639   5.005  16.129  0.00  0.00    +0.000 C 
ATOM     23  C   UNL     1       5.352   6.253  16.684  0.00  0.00    +0.000 C 
ATOM     24  C   UNL     1       4.375   7.228  17.354  0.00  0.00    +0.000 C 
BRANCH  22  25
ATOM     25  C   UNL     1       5.658   4.039  15.500  0.00  0.00    +0.000 C 
BRANCH  25  26
ATOM     26  C   UNL     1       7.083   4.547  15.590  0.00  0.00    +0.000 C 
ATOM     27  O   UNL     1       7.842   4.351  16.525  0.00  0.00    +0.000 OA
BRANCH  26  28
ATOM     28  O   UNL     1       7.462   5.230  14.483  0.00  0.00    +0.000 OA
ATOM     29  H   UNL     1       8.229   5.818  14.617  0.00  0.00    +0.000 HD
ENDBRANCH  26  28
ENDBRANCH  25  26
ENDBRANCH  22  25
ENDBRANCH   4  19
TORSDOF 6
ENDMDL
MODEL 4
REMARK VINA RESULT:      -8.2      5.936      9.926
REMARK  Name = 
REMARK  6 active torsions:
REMARK  status: ('A' for Active; 'I' for Inactive)
REMARK    1  A    between atoms: C_2  and  C_4
REMARK    2  A    between atoms: C_8  and  C_9
REMARK    3  A    between atoms: C_12  and  C_13
REMARK    4  A    between atoms: C_16  and  C_17
REMARK    5  A    between atoms: C_17  and  C_18
REMARK    6  A    between atoms: C_18  and  O_20
REMARK                            x       y       z     vdW  Elec       q    Type
REMARK                         _______ _______ _______ _____ _____    ______ ____
ROOT
ATOM      1  C   UNL     1       2.692   7.012  18.680  0.00  0.00    +0.000 A 
ATOM      2  C   UNL     1       2.252   8.196  18.059  0.00  0.00    +0.000 A 
ATOM      3  C   UNL     1       1.454   9.124  18.732  0.00  0.00    +0.000 A 
ATOM      4  C   UNL     1       1.043   8.901  20.052  0.00  0.00    +0.000 A 
ATOM      5  C   UNL     1       1.470   7.726  20.683  0.00  0.00    +0.000 A 
ATOM      6  C   UNL     1       2.280   6.799  20.005  0.00  0.00    +0.000 A 
ENDROOT
BRANCH   1  11
ATOM      7  C   UNL     1       5.534   5.561  16.878  0.00  0.00    +0.000 A 
ATOM      8  C   UNL     1       5.109   4.262  16.647  0.00  0.00    +0.000 A 
ATOM      9  N   UNL     1       3.903   3.815  17.060  0.00  0.00    +0.000 NA
ATOM     10  C   UNL     1       3.151   4.733  17.714  0.00  0.00    +0.000 A 
ATOM     11  C   UNL     1       3.562   6.049  17.969  0.00  0.00    +0.000 A 
ATOM     12  N   UNL     1       4.782   6.485  17.551  0.00  0.00    +0.000 NA
BRANCH   7  14
ATOM     13  N   UNL     1       7.493   6.988  16.959  0.00  0.00    +0.000 NA
ATOM     14  C   UNL     1       6.878   6.005  16.384  0.00  0.00    +0.000 C 
ATOM     15  N   UNL     1       7.451   5.368  15.318  0.00  0.00    +0.000 N 
ATOM     16  H   UNL     1       8.406   7.116  16.516  0.00  0.00    +0.000 HD
ATOM     17  H   UNL     1       8.076   5.917  14.744  0.00  0.00    +0.000 HD
ATOM     18  H   UNL     1       6.797   4.803  14.778  0.00  0.00    +0.000 HD
ENDBRANCH   7  14
ENDBRANCH   1  11
BRANCH   4  19
ATOM     19  C   UNL     1       0.035   9.861  20.661  0.00  0.00    +0.000 C 
ATOM     20  C   UNL     1       0.088   9.699  22.187  0.00  0.00    +0.000 C 
ATOM     21  C   UNL     1      -0.947  10.566  22.887  0.00  0.00    +0.000 C 
ATOM     22  C   UNL     1      -0.773  12.047  22.520  0.00  0.00    +0.000 C 
ATOM     23  C   UNL     1      -0.844  12.222  20.991  0.00  0.00    +0.000 C 
ATOM     24  C   UNL     1       0.177  11.340  20.261  0.00  0.00    +0.000 C 
BRANCH  22  25
ATOM     25  C   UNL     1      -1.837  12.920  23.210  0.00  0.00    +0.000 C 
BRANCH  25  26
ATOM     26  C   UNL     1      -3.237  12.359  23.075  0.00  0.00    +0.000 C 
ATOM     27  O   UNL     1      -3.869  12.285  22.033  0.00  0.00    +0.000 OA
BRANCH  26  28
ATOM     28  O   UNL     1      -3.728  11.896  24.250  0.00  0.00    +0.000 OA
ATOM     29  H   UNL     1      -3.858  10.930  24.278  0.00  0.00    +0.000 HD
ENDBRANCH  26  28
ENDBRANCH  25  26
ENDBRANCH  22  25
ENDBRANCH   4  19
TORSDOF 6
ENDMDL
MODEL 5
REMARK VINA RESULT:      -8.1      0.575      1.115
REMARK  Name = 
REMARK  6 active torsions:
REMARK  status: ('A' for Active; 'I' for Inactive)
REMARK    1  A    between atoms: C_2  and  C_4
REMARK    2  A    between atoms: C_8  and  C_9
REMARK    3  A    between atoms: C_12  and  C_13
REMARK    4  A    between atoms: C_16  and  C_17
REMARK    5  A    between atoms: C_17  and  C_18
REMARK    6  A    between atoms: C_18  and  O_20
REMARK                            x       y       z     vdW  Elec       q    Type
REMARK                         _______ _______ _______ _____ _____    ______ ____
ROOT
ATOM      1  C   UNL     1       1.017   8.942  20.291  0.00  0.00    +0.000 A 
ATOM      2  C   UNL     1       1.427   9.183  18.967  0.00  0.00    +0.000 A 
ATOM      3  C   UNL     1       2.160   8.239  18.243  0.00  0.00    +0.000 A 
ATOM      4  C   UNL     1       2.534   7.019  18.820  0.00  0.00    +0.000 A 
ATOM      5  C   UNL     1       2.137   6.765  20.138  0.00  0.00    +0.000 A 
ATOM      6  C   UNL     1       1.391   7.714  20.859  0.00  0.00    +0.000 A 
ENDROOT
BRANCH   1  11
ATOM      7  C   UNL     1      -1.177  11.774  21.064  0.00  0.00    +0.000 A 
ATOM      8  C   UNL     1      -1.217  11.751  22.450  0.00  0.00    +0.000 A 
ATOM      9  N   UNL     1      -0.543  10.832  23.174  0.00  0.00    +0.000 NA
ATOM     10  C   UNL     1       0.167   9.940  22.441  0.00  0.00    +0.000 A 
ATOM     11  C   UNL     1       0.214   9.935  21.039  0.00  0.00    +0.000 A 
ATOM     12  N   UNL     1      -0.474  10.866  20.321  0.00  0.00    +0.000 NA
BRANCH   7  14
ATOM     13  N   UNL     1      -2.702  13.656  20.948  0.00  0.00    +0.000 NA
ATOM     14  C   UNL     1      -1.936  12.827  20.314  0.00  0.00    +0.000 C 
ATOM     15  N   UNL     1      -1.818  12.907  18.954  0.00  0.00    +0.000 N 
ATOM     16  H   UNL     1      -3.098  14.323  20.281  0.00  0.00    +0.000 HD
ATOM     17  H   UNL     1      -2.615  13.272  18.450  0.00  0.00    +0.000 HD
ATOM     18  H   UNL     1      -1.418  12.071  18.527  0.00  0.00    +0.000 HD
ENDBRANCH   7  14
ENDBRANCH   1  11
BRANCH   4  19
ATOM     19  C   UNL     1       3.479   6.118  18.041  0.00  0.00    +0.000 C 
ATOM     20  C   UNL     1       4.418   7.014  17.220  0.00  0.00    +0.000 C 
ATOM     21  C   UNL     1       5.355   6.199  16.340  0.00  0.00    +0.000 C 
ATOM     22  C   UNL     1       6.184   5.212  17.174  0.00  0.00    +0.000 C 
ATOM     23  C   UNL     1       5.249   4.296  17.987  0.00  0.00    +0.000 C 
ATOM     24  C   UNL     1       4.279   5.096  18.867  0.00  0.00    +0.000 C 
BRANCH  22  25
ATOM     25  C   UNL     1       7.113   4.371  16.280  0.00  0.00    +0.000 C 
BRANCH  25  26
ATOM     26  C   UNL     1       6.998   4.727  14.812  0.00  0.00    +0.000 C 
ATOM     27  O   UNL     1       7.695   5.542  14.230  0.00  0.00    +0.000 OA
BRANCH  26  28
ATOM     28  O   UNL     1       6.043   4.008  14.175  0.00  0.00    +0.000 OA
ATOM     29  H   UNL     1       5.492   3.461  14.765  0.00  0.00    +0.000 HD
ENDBRANCH  26  28
ENDBRANCH  25  26
ENDBRANCH  22  25
ENDBRANCH   4  19
TORSDOF 6
ENDMDL
MODEL 6
REMARK VINA RESULT:      -8.1      6.163     10.060
REMARK  Name = 
REMARK  6 active torsions:
REMARK  status: ('A' for Active; 'I' for Inactive)
REMARK    1  A    between atoms: C_2  and  C_4
REMARK    2  A    between atoms: C_8  and  C_9
REMARK    3  A    between atoms: C_12  and  C_13
REMARK    4  A    between atoms: C_16  and  C_17
REMARK    5  A    between atoms: C_17  and  C_18
REMARK    6  A    between atoms: C_18  and  O_20
REMARK                            x       y       z     vdW  Elec       q    Type
REMARK                         _______ _______ _______ _____ _____    ______ ____
ROOT
ATOM      1  C   UNL     1       2.451   6.880  18.980  0.00  0.00    +0.000 A 
ATOM      2  C   UNL     1       1.962   6.727  20.290  0.00  0.00    +0.000 A 
ATOM      3  C   UNL     1       1.256   7.747  20.934  0.00  0.00    +0.000 A 
ATOM      4  C   UNL     1       1.024   8.974  20.301  0.00  0.00    +0.000 A 
ATOM      5  C   UNL     1       1.506   9.143  18.998  0.00  0.00    +0.000 A 
ATOM      6  C   UNL     1       2.208   8.112  18.351  0.00  0.00    +0.000 A 
ENDROOT
BRANCH   1  11
ATOM      7  C   UNL     1       3.498   3.532  17.921  0.00  0.00    +0.000 A 
ATOM      8  C   UNL     1       4.538   3.807  17.045  0.00  0.00    +0.000 A 
ATOM      9  N   UNL     1       4.932   5.069  16.771  0.00  0.00    +0.000 NA
ATOM     10  C   UNL     1       4.234   6.035  17.415  0.00  0.00    +0.000 A 
ATOM     11  C   UNL     1       3.172   5.783  18.296  0.00  0.00    +0.000 A 
ATOM     12  N   UNL     1       2.781   4.506  18.560  0.00  0.00    +0.000 NA
BRANCH   7  14
ATOM     13  N   UNL     1       1.866   1.757  18.187  0.00  0.00    +0.000 NA
ATOM     14  C   UNL     1       3.112   2.109  18.196  0.00  0.00    +0.000 C 
ATOM     15  N   UNL     1       4.083   1.184  18.462  0.00  0.00    +0.000 N 
ATOM     16  H   UNL     1       1.802   0.749  18.352  0.00  0.00    +0.000 HD
ATOM     17  H   UNL     1       3.821   0.409  19.056  0.00  0.00    +0.000 HD
ATOM     18  H   UNL     1       4.984   1.594  18.707  0.00  0.00    +0.000 HD
ENDBRANCH   7  14
ENDBRANCH   1  11
BRANCH   4  19
ATOM     19  C   UNL     1       0.408  10.097  21.119  0.00  0.00    +0.000 C 
ATOM     20  C   UNL     1      -0.472  10.937  20.182  0.00  0.00    +0.000 C 
ATOM     21  C   UNL     1      -1.074  12.140  20.895  0.00  0.00    +0.000 C 
ATOM     22  C   UNL     1      -1.892  11.709  22.120  0.00  0.00    +0.000 C 
ATOM     23  C   UNL     1      -1.012  10.881  23.075  0.00  0.00    +0.000 C 
ATOM     24  C   UNL     1      -0.375   9.673  22.374  0.00  0.00    +0.000 C 
BRANCH  22  25
ATOM     25  C   UNL     1      -2.479  12.927  22.854  0.00  0.00    +0.000 C 
BRANCH  25  26
ATOM     26  C   UNL     1      -3.887  12.688  23.360  0.00  0.00    +0.000 C 
ATOM     27  O   UNL     1      -4.197  11.881  24.223  0.00  0.00    +0.000 OA
BRANCH  26  28
ATOM     28  O   UNL     1      -4.796  13.503  22.775  0.00  0.00    +0.000 OA
ATOM     29  H   UNL     1      -4.408  14.248  22.279  0.00  0.00    +0.000 HD
ENDBRANCH  26  28
ENDBRANCH  25  26
ENDBRANCH  22  25
ENDBRANCH   4  19
TORSDOF 6
ENDMDL
MODEL 7
REMARK VINA RESULT:      -8.1      0.962      1.905
REMARK  Name = 
REMARK  6 active torsions:
REMARK  status: ('A' for Active; 'I' for Inactive)
REMARK    1  A    between atoms: C_2  and  C_4
REMARK    2  A    between atoms: C_8  and  C_9
REMARK    3  A    between atoms: C_12  and  C_13
REMARK    4  A    between atoms: C_16  and  C_17
REMARK    5  A    between atoms: C_17  and  C_18
REMARK    6  A    between atoms: C_18  and  O_20
REMARK                            x       y       z     vdW  Elec       q    Type
REMARK                         _______ _______ _______ _____ _____    ______ ____
ROOT
ATOM      1  C   UNL     1       0.944   9.220  19.813  0.00  0.00    +0.000 A 
ATOM      2  C   UNL     1       1.432   9.326  18.498  0.00  0.00    +0.000 A 
ATOM      3  C   UNL     1       2.301   8.374  17.959  0.00  0.00    +0.000 A 
ATOM      4  C   UNL     1       2.737   7.282  18.720  0.00  0.00    +0.000 A 
ATOM      5  C   UNL     1       2.262   7.163  20.031  0.00  0.00    +0.000 A 
ATOM      6  C   UNL     1       1.381   8.118  20.566  0.00  0.00    +0.000 A 
ENDROOT
BRANCH   1  11
ATOM      7  C   UNL     1      -1.771  11.666  20.084  0.00  0.00    +0.000 A 
ATOM      8  C   UNL     1      -1.687  12.060  21.410  0.00  0.00    +0.000 A 
ATOM      9  N   UNL     1      -0.760  11.555  22.254  0.00  0.00    +0.000 NA
ATOM     10  C   UNL     1       0.072  10.640  21.701  0.00  0.00    +0.000 A 
ATOM     11  C   UNL     1       0.000  10.217  20.366  0.00  0.00    +0.000 A 
ATOM     12  N   UNL     1      -0.942  10.730  19.528  0.00  0.00    +0.000 NA
BRANCH   7  14
ATOM     13  N   UNL     1      -2.749  12.107  17.908  0.00  0.00    +0.000 NA
ATOM     14  C   UNL     1      -2.813  12.271  19.191  0.00  0.00    +0.000 C 
ATOM     15  N   UNL     1      -3.831  13.001  19.738  0.00  0.00    +0.000 N 
ATOM     16  H   UNL     1      -3.561  12.550  17.473  0.00  0.00    +0.000 HD
ATOM     17  H   UNL     1      -4.225  13.733  19.162  0.00  0.00    +0.000 HD
ATOM     18  H   UNL     1      -3.656  13.294  20.699  0.00  0.00    +0.000 HD
ENDBRANCH   7  14
ENDBRANCH   1  11
BRANCH   4  19
ATOM     19  C   UNL     1       3.816   6.386  18.134  0.00  0.00    +0.000 C 
ATOM     20  C   UNL     1       3.133   5.137  17.558  0.00  0.00    +0.000 C 
ATOM     21  C   UNL     1       4.143   4.136  17.016  0.00  0.00    +0.000 C 
ATOM     22  C   UNL     1       5.038   4.773  15.944  0.00  0.00    +0.000 C 
ATOM     23  C   UNL     1       5.742   6.017  16.519  0.00  0.00    +0.000 C 
ATOM     24  C   UNL     1       4.745   7.032  17.092  0.00  0.00    +0.000 C 
BRANCH  22  25
ATOM     25  C   UNL     1       6.075   3.767  15.415  0.00  0.00    +0.000 C 
BRANCH  25  26
ATOM     26  C   UNL     1       6.631   4.152  14.059  0.00  0.00    +0.000 C 
ATOM     27  O   UNL     1       6.273   3.682  12.992  0.00  0.00    +0.000 OA
BRANCH  26  28
ATOM     28  O   UNL     1       7.569   5.127  14.140  0.00  0.00    +0.000 OA
ATOM     29  H   UNL     1       8.290   5.045  13.488  0.00  0.00    +0.000 HD
ENDBRANCH  26  28
ENDBRANCH  25  26
ENDBRANCH  22  25
ENDBRANCH   4  19
TORSDOF 6
ENDMDL
MODEL 8
REMARK VINA RESULT:      -8.0      6.127     10.053
REMARK  Name = 
REMARK  6 active torsions:
REMARK  status: ('A' for Active; 'I' for Inactive)
REMARK    1  A    between atoms: C_2  and  C_4
REMARK    2  A    between atoms: C_8  and  C_9
REMARK    3  A    between atoms: C_12  and  C_13
REMARK    4  A    between atoms: C_16  and  C_17
REMARK    5  A    between atoms: C_17  and  C_18
REMARK    6  A    between atoms: C_18  and  O_20
REMARK                            x       y       z     vdW  Elec       q    Type
REMARK                         _______ _______ _______ _____ _____    ______ ____
ROOT
ATOM      1  C   UNL     1       2.572   7.034  18.860  0.00  0.00    +0.000 A 
ATOM      2  C   UNL     1       2.149   6.973  20.200  0.00  0.00    +0.000 A 
ATOM      3  C   UNL     1       1.402   8.001  20.781  0.00  0.00    +0.000 A 
ATOM      4  C   UNL     1       1.060   9.146  20.051  0.00  0.00    +0.000 A 
ATOM      5  C   UNL     1       1.475   9.223  18.717  0.00  0.00    +0.000 A 
ATOM      6  C   UNL     1       2.219   8.183  18.134  0.00  0.00    +0.000 A 
ENDROOT
BRANCH   1  11
ATOM      7  C   UNL     1       3.975   3.712  18.212  0.00  0.00    +0.000 A 
ATOM      8  C   UNL     1       4.779   3.938  17.105  0.00  0.00    +0.000 A 
ATOM      9  N   UNL     1       4.895   5.158  16.536  0.00  0.00    +0.000 NA
ATOM     10  C   UNL     1       4.166   6.133  17.132  0.00  0.00    +0.000 A 
ATOM     11  C   UNL     1       3.338   5.927  18.244  0.00  0.00    +0.000 A 
ATOM     12  N   UNL     1       3.227   4.691  18.804  0.00  0.00    +0.000 NA
BRANCH   7  14
ATOM     13  N   UNL     1       4.753   1.966  19.705  0.00  0.00    +0.000 NA
ATOM     14  C   UNL     1       3.896   2.338  18.807  0.00  0.00    +0.000 C 
ATOM     15  N   UNL     1       2.918   1.477  18.395  0.00  0.00    +0.000 N 
ATOM     16  H   UNL     1       4.516   1.022  20.022  0.00  0.00    +0.000 HD
ATOM     17  H   UNL     1       3.132   0.490  18.443  0.00  0.00    +0.000 HD
ATOM     18  H   UNL     1       2.471   1.751  17.521  0.00  0.00    +0.000 HD
ENDBRANCH   7  14
ENDBRANCH   1  11
BRANCH   4  19
ATOM     19  C   UNL     1       0.402  10.298  20.792  0.00  0.00    +0.000 C 
ATOM     20  C   UNL     1      -0.711  10.863  19.898  0.00  0.00    +0.000 C 
ATOM     21  C   UNL     1      -1.381  12.078  20.523  0.00  0.00    +0.000 C 
ATOM     22  C   UNL     1      -1.952  11.748  21.909  0.00  0.00    +0.000 C 
ATOM     23  C   UNL     1      -0.838  11.198  22.820  0.00  0.00    +0.000 C 
ATOM     24  C   UNL     1      -0.132   9.984  22.201  0.00  0.00    +0.000 C 
BRANCH  22  25
ATOM     25  C   UNL     1      -2.607  12.984  22.550  0.00  0.00    +0.000 C 
BRANCH  25  26
ATOM     26  C   UNL     1      -4.037  12.735  22.983  0.00  0.00    +0.000 C 
ATOM     27  O   UNL     1      -5.030  13.118  22.387  0.00  0.00    +0.000 OA
BRANCH  26  28
ATOM     28  O   UNL     1      -4.117  11.990  24.113  0.00  0.00    +0.000 OA
ATOM     29  H   UNL     1      -3.550  11.196  24.111  0.00  0.00    +0.000 HD
ENDBRANCH  26  28
ENDBRANCH  25  26
ENDBRANCH  22  25
ENDBRANCH   4  19
TORSDOF 6
ENDMDL
MODEL 9
REMARK VINA RESULT:      -8.0      5.999     10.087
REMARK  Name = 
REMARK  6 active torsions:
REMARK  status: ('A' for Active; 'I' for Inactive)
REMARK    1  A    between atoms: C_2  and  C_4
REMARK    2  A    between atoms: C_8  and  C_9
REMARK    3  A    between atoms: C_12  and  C_13
REMARK    4  A    between atoms: C_16  and  C_17
REMARK    5  A    between atoms: C_17  and  C_18
REMARK    6  A    between atoms: C_18  and  O_20
REMARK                            x       y       z     vdW  Elec       q    Type
REMARK                         _______ _______ _______ _____ _____    ______ ____
ROOT
ATOM      1  C   UNL     1       2.427   7.177  19.068  0.00  0.00    +0.000 A 
ATOM      2  C   UNL     1       2.025   8.350  18.404  0.00  0.00    +0.000 A 
ATOM      3  C   UNL     1       1.231   9.313  19.033  0.00  0.00    +0.000 A 
ATOM      4  C   UNL     1       0.787   9.135  20.349  0.00  0.00    +0.000 A 
ATOM      5  C   UNL     1       1.177   7.972  21.022  0.00  0.00    +0.000 A 
ATOM      6  C   UNL     1       1.983   7.010  20.389  0.00  0.00    +0.000 A 
ENDROOT
BRANCH   1  11
ATOM      7  C   UNL     1       4.046   4.008  18.195  0.00  0.00    +0.000 A 
ATOM      8  C   UNL     1       4.916   4.385  17.183  0.00  0.00    +0.000 A 
ATOM      9  N   UNL     1       5.008   5.662  16.753  0.00  0.00    +0.000 NA
ATOM     10  C   UNL     1       4.188   6.535  17.386  0.00  0.00    +0.000 A 
ATOM     11  C   UNL     1       3.293   6.177  18.404  0.00  0.00    +0.000 A 
ATOM     12  N   UNL     1       3.206   4.885  18.825  0.00  0.00    +0.000 NA
BRANCH   7  14
ATOM     13  N   UNL     1       4.809   2.148  19.552  0.00  0.00    +0.000 NA
ATOM     14  C   UNL     1       3.996   2.577  18.639  0.00  0.00    +0.000 C 
ATOM     15  N   UNL     1       3.090   1.723  18.073  0.00  0.00    +0.000 N 
ATOM     16  H   UNL     1       4.599   1.167  19.753  0.00  0.00    +0.000 HD
ATOM     17  H   UNL     1       3.349   0.747  18.034  0.00  0.00    +0.000 HD
ATOM     18  H   UNL     1       2.689   2.070  17.202  0.00  0.00    +0.000 HD
ENDBRANCH   7  14
ENDBRANCH   1  11
BRANCH   4  19
ATOM     19  C   UNL     1      -0.215  10.132  20.908  0.00  0.00    +0.000 C 
ATOM     20  C   UNL     1      -0.240   9.972  22.435  0.00  0.00    +0.000 C 
ATOM     21  C   UNL     1      -1.277  10.877  23.084  0.00  0.00    +0.000 C 
ATOM     22  C   UNL     1      -1.034  12.350  22.724  0.00  0.00    +0.000 C 
ATOM     23  C   UNL     1      -1.026  12.523  21.194  0.00  0.00    +0.000 C 
ATOM     24  C   UNL     1      -0.003  11.604  20.514  0.00  0.00    +0.000 C 
BRANCH  22  25
ATOM     25  C   UNL     1      -2.098  13.262  23.361  0.00  0.00    +0.000 C 
BRANCH  25  26
ATOM     26  C   UNL     1      -3.479  12.639  23.366  0.00  0.00    +0.000 C 
ATOM     27  O   UNL     1      -4.130  12.363  22.372  0.00  0.00    +0.000 OA
BRANCH  26  28
ATOM     28  O   UNL     1      -3.927  12.376  24.618  0.00  0.00    +0.000 OA
ATOM     29  H   UNL     1      -4.892  12.459  24.725  0.00  0.00    +0.000 HD
ENDBRANCH  26  28
ENDBRANCH  25  26
ENDBRANCH  22  25
ENDBRANCH   4  19
TORSDOF 6
ENDMDL
