MODEL 1
REMARK VINA RESULT:      -8.9      0.000      0.000
REMARK  Name = 
REMARK  3 active torsions:
REMARK  status: ('A' for Active; 'I' for Inactive)
REMARK    1  A    between atoms: C_1  and  C_2
REMARK    2  A    between atoms: C_5  and  N_6
REMARK    3  A    between atoms: C_10  and  C_11
REMARK                            x       y       z     vdW  Elec       q    Type
REMARK                         _______ _______ _______ _____ _____    ______ ____
ROOT
ATOM      1  C   UNL     1       4.874   4.435  18.702  0.00  0.00    +0.000 A 
ATOM      2  C   UNL     1       5.933   5.209  19.171  0.00  0.00    +0.000 A 
ATOM      3  C   UNL     1       6.943   5.547  18.284  0.00  0.00    +0.000 A 
ATOM      4  N   UNL     1       6.969   5.178  16.982  0.00  0.00    +0.000 NA
ATOM      5  C   UNL     1       5.922   4.463  16.524  0.00  0.00    +0.000 A 
ATOM      6  N   UNL     1       5.849   4.055  15.187  0.00  0.00    +0.000 N 
ATOM      7  C   UNL     1       6.661   4.346  14.144  0.00  0.00    +0.000 C 
ATOM      8  N   UNL     1       7.721   5.142  14.361  0.00  0.00    +0.000 N 
ATOM      9  O   UNL     1       6.415   3.915  13.023  0.00  0.00    +0.000 OA
ATOM     10  C   UNL     1       4.866   4.087  17.346  0.00  0.00    +0.000 A 
ATOM     11  H   UNL     1       5.068   3.480  14.911  0.00  0.00    +0.000 HD
ATOM     12  H   UNL     1       8.045   5.246  15.318  0.00  0.00    +0.000 HD
ATOM     13  H   UNL     1       8.366   5.278  13.599  0.00  0.00    +0.000 HD
ENDROOT
BRANCH   1  18
ATOM     14  N   UNL     1       2.780   4.868  20.115  0.00  0.00    +0.000 N 
ATOM     15  N   UNL     1       2.126   4.272  21.150  0.00  0.00    +0.000 NA
ATOM     16  C   UNL     1       2.528   3.004  21.115  0.00  0.00    +0.000 A 
ATOM     17  C   UNL     1       3.546   2.793  20.175  0.00  0.00    +0.000 A 
ATOM     18  C   UNL     1       3.779   4.029  19.594  0.00  0.00    +0.000 A 
BRANCH  14  23
ATOM     19  C   UNL     1       1.318  10.150  18.452  0.00  0.00    +0.000 C 
ATOM     20  C   UNL     1       1.692   8.769  18.902  0.00  0.00    +0.000 A 
ATOM     21  C   UNL     1       1.516   8.364  20.232  0.00  0.00    +0.000 A 
ATOM     22  C   UNL     1       1.850   7.064  20.627  0.00  0.00    +0.000 A 
ATOM     23  C   UNL     1       2.394   6.169  19.697  0.00  0.00    +0.000 A 
ATOM     24  C   UNL     1       2.544   6.565  18.363  0.00  0.00    +0.000 A 
ATOM     25  C   UNL     1       2.202   7.859  17.971  0.00  0.00    +0.000 A 
ENDBRANCH  14  23
ENDBRANCH   1  18
TORSDOF 2
ENDMDL
MODEL 2
REMARK VINA RESULT:      -8.8      0.080      1.034
REMARK  Name = 
REMARK  3 active torsions:
REMARK  status: ('A' for Active; 'I' for Inactive)
REMARK    1  A    between atoms: C_1  and  C_2
REMARK    2  A    between atoms: C_5  and  N_6
REMARK    3  A    between atoms: C_10  and  C_11
REMARK                            x       y       z     vdW  Elec       q    Type
REMARK                         _______ _______ _______ _____ _____    ______ ____
ROOT
ATOM      1  C   UNL     1       4.834   4.486  18.712  0.00  0.00    +0.000 A 
ATOM      2  C   UNL     1       5.898   5.248  19.191  0.00  0.00    +0.000 A 
ATOM      3  C   UNL     1       6.920   5.574  18.313  0.00  0.00    +0.000 A 
ATOM      4  N   UNL     1       6.955   5.203  17.012  0.00  0.00    +0.000 NA
ATOM      5  C   UNL     1       5.904   4.499  16.544  0.00  0.00    +0.000 A 
ATOM      6  N   UNL     1       5.840   4.091  15.207  0.00  0.00    +0.000 N 
ATOM      7  C   UNL     1       6.665   4.371  14.172  0.00  0.00    +0.000 C 
ATOM      8  N   UNL     1       7.733   5.155  14.398  0.00  0.00    +0.000 N 
ATOM      9  O   UNL     1       6.425   3.942  13.049  0.00  0.00    +0.000 OA
ATOM     10  C   UNL     1       4.835   4.137  17.356  0.00  0.00    +0.000 A 
ATOM     11  H   UNL     1       5.054   3.525  14.924  0.00  0.00    +0.000 HD
ATOM     12  H   UNL     1       8.048   5.257  15.359  0.00  0.00    +0.000 HD
ATOM     13  H   UNL     1       8.386   5.282  13.643  0.00  0.00    +0.000 HD
ENDROOT
BRANCH   1  18
ATOM     14  N   UNL     1       2.743   4.948  20.119  0.00  0.00    +0.000 N 
ATOM     15  N   UNL     1       2.070   4.355  21.144  0.00  0.00    +0.000 NA
ATOM     16  C   UNL     1       2.445   3.079  21.096  0.00  0.00    +0.000 A 
ATOM     17  C   UNL     1       3.463   2.857  20.159  0.00  0.00    +0.000 A 
ATOM     18  C   UNL     1       3.725   4.094  19.593  0.00  0.00    +0.000 A 
BRANCH  14  23
ATOM     19  C   UNL     1       1.215  10.214  18.461  0.00  0.00    +0.000 C 
ATOM     20  C   UNL     1       1.624   8.833  18.880  0.00  0.00    +0.000 A 
ATOM     21  C   UNL     1       2.185   7.932  17.967  0.00  0.00    +0.000 A 
ATOM     22  C   UNL     1       2.581   6.655  18.383  0.00  0.00    +0.000 A 
ATOM     23  C   UNL     1       2.387   6.263  19.714  0.00  0.00    +0.000 A 
ATOM     24  C   UNL     1       1.852   7.173  20.633  0.00  0.00    +0.000 A 
ATOM     25  C   UNL     1       1.467   8.447  20.215  0.00  0.00    +0.000 A 
ENDBRANCH  14  23
ENDBRANCH   1  18
TORSDOF 2
ENDMDL
MODEL 3
REMARK VINA RESULT:      -8.2      3.279      5.338
REMARK  Name = 
REMARK  3 active torsions:
REMARK  status: ('A' for Active; 'I' for Inactive)
REMARK    1  A    between atoms: C_1  and  C_2
REMARK    2  A    between atoms: C_5  and  N_6
REMARK    3  A    between atoms: C_10  and  C_11
REMARK                            x       y       z     vdW  Elec       q    Type
REMARK                         _______ _______ _______ _____ _____    ______ ____
ROOT
ATOM      1  C   UNL     1       7.099   5.885  17.060  0.00  0.00    +0.000 A 
ATOM      2  C   UNL     1       7.466   5.262  18.251  0.00  0.00    +0.000 A 
ATOM      3  C   UNL     1       8.130   6.014  19.208  0.00  0.00    +0.000 A 
ATOM      4  N   UNL     1       8.445   7.321  19.067  0.00  0.00    +0.000 NA
ATOM      5  C   UNL     1       8.053   7.930  17.928  0.00  0.00    +0.000 A 
ATOM      6  N   UNL     1       8.314   9.286  17.701  0.00  0.00    +0.000 N 
ATOM      7  C   UNL     1       8.855  10.216  18.522  0.00  0.00    +0.000 C 
ATOM      8  N   UNL     1       9.225   9.842  19.758  0.00  0.00    +0.000 N 
ATOM      9  O   UNL     1       8.978  11.378  18.152  0.00  0.00    +0.000 OA
ATOM     10  C   UNL     1       7.377   7.250  16.921  0.00  0.00    +0.000 A 
ATOM     11  H   UNL     1       8.041   9.676  16.812  0.00  0.00    +0.000 HD
ATOM     12  H   UNL     1       9.367   8.851  19.928  0.00  0.00    +0.000 HD
ATOM     13  H   UNL     1       9.707  10.520  20.325  0.00  0.00    +0.000 HD
ENDROOT
BRANCH   1  18
ATOM     14  N   UNL     1       5.225   4.397  16.144  0.00  0.00    +0.000 N 
ATOM     15  N   UNL     1       5.027   3.574  15.077  0.00  0.00    +0.000 NA
ATOM     16  C   UNL     1       5.919   3.975  14.174  0.00  0.00    +0.000 A 
ATOM     17  C   UNL     1       6.796   4.941  14.684  0.00  0.00    +0.000 A 
ATOM     18  C   UNL     1       6.406   5.142  15.999  0.00  0.00    +0.000 A 
BRANCH  14  23
ATOM     19  C   UNL     1       1.316   4.463  20.330  0.00  0.00    +0.000 C 
ATOM     20  C   UNL     1       2.339   4.463  19.233  0.00  0.00    +0.000 A 
ATOM     21  C   UNL     1       2.602   5.616  18.483  0.00  0.00    +0.000 A 
ATOM     22  C   UNL     1       3.578   5.602  17.479  0.00  0.00    +0.000 A 
ATOM     23  C   UNL     1       4.274   4.420  17.198  0.00  0.00    +0.000 A 
ATOM     24  C   UNL     1       4.031   3.274  17.966  0.00  0.00    +0.000 A 
ATOM     25  C   UNL     1       3.064   3.296  18.971  0.00  0.00    +0.000 A 
ENDBRANCH  14  23
ENDBRANCH   1  18
TORSDOF 2
ENDMDL
MODEL 4
REMARK VINA RESULT:      -8.1      3.622      6.494
REMARK  Name = 
REMARK  3 active torsions:
REMARK  status: ('A' for Active; 'I' for Inactive)
REMARK    1  A    between atoms: C_1  and  C_2
REMARK    2  A    between atoms: C_5  and  N_6
REMARK    3  A    between atoms: C_10  and  C_11
REMARK                            x       y       z     vdW  Elec       q    Type
REMARK                         _______ _______ _______ _____ _____    ______ ____
ROOT
ATOM      1  C   UNL     1       2.302   6.195  19.788  0.00  0.00    +0.000 A 
ATOM      2  C   UNL     1       2.543   6.593  18.474  0.00  0.00    +0.000 A 
ATOM      3  C   UNL     1       2.235   7.896  18.116  0.00  0.00    +0.000 A 
ATOM      4  N   UNL     1       1.717   8.817  18.960  0.00  0.00    +0.000 NA
ATOM      5  C   UNL     1       1.523   8.438  20.241  0.00  0.00    +0.000 A 
ATOM      6  N   UNL     1       1.013   9.328  21.193  0.00  0.00    +0.000 N 
ATOM      7  C   UNL     1       0.735  10.648  21.087  0.00  0.00    +0.000 C 
ATOM      8  N   UNL     1       0.958  11.258  19.912  0.00  0.00    +0.000 N 
ATOM      9  O   UNL     1       0.317  11.276  22.054  0.00  0.00    +0.000 OA
ATOM     10  C   UNL     1       1.811   7.152  20.684  0.00  0.00    +0.000 A 
ATOM     11  H   UNL     1       0.842   8.976  22.123  0.00  0.00    +0.000 HD
ATOM     12  H   UNL     1       1.033  10.673  19.084  0.00  0.00    +0.000 HD
ATOM     13  H   UNL     1       0.665  12.216  19.821  0.00  0.00    +0.000 HD
ENDROOT
BRANCH   1  18
ATOM     14  N   UNL     1       3.396   3.889  19.558  0.00  0.00    +0.000 N 
ATOM     15  N   UNL     1       3.200   2.631  20.042  0.00  0.00    +0.000 NA
ATOM     16  C   UNL     1       2.488   2.807  21.152  0.00  0.00    +0.000 A 
ATOM     17  C   UNL     1       2.085   4.139  21.322  0.00  0.00    +0.000 A 
ATOM     18  C   UNL     1       2.593   4.824  20.230  0.00  0.00    +0.000 A 
BRANCH  14  23
ATOM     19  C   UNL     1       7.150   4.835  15.336  0.00  0.00    +0.000 C 
ATOM     20  C   UNL     1       6.158   4.577  16.430  0.00  0.00    +0.000 A 
ATOM     21  C   UNL     1       4.904   4.014  16.159  0.00  0.00    +0.000 A 
ATOM     22  C   UNL     1       4.001   3.760  17.198  0.00  0.00    +0.000 A 
ATOM     23  C   UNL     1       4.337   4.100  18.514  0.00  0.00    +0.000 A 
ATOM     24  C   UNL     1       5.600   4.637  18.789  0.00  0.00    +0.000 A 
ATOM     25  C   UNL     1       6.500   4.880  17.752  0.00  0.00    +0.000 A 
ENDBRANCH  14  23
ENDBRANCH   1  18
TORSDOF 2
ENDMDL
MODEL 5
REMARK VINA RESULT:      -8.1      3.258      5.331
REMARK  Name = 
REMARK  3 active torsions:
REMARK  status: ('A' for Active; 'I' for Inactive)
REMARK    1  A    between atoms: C_1  and  C_2
REMARK    2  A    between atoms: C_5  and  N_6
REMARK    3  A    between atoms: C_10  and  C_11
REMARK                            x       y       z     vdW  Elec       q    Type
REMARK                         _______ _______ _______ _____ _____    ______ ____
ROOT
ATOM      1  C   UNL     1       7.100   5.904  17.065  0.00  0.00    +0.000 A 
ATOM      2  C   UNL     1       7.472   5.277  18.252  0.00  0.00    +0.000 A 
ATOM      3  C   UNL     1       8.138   6.026  19.209  0.00  0.00    +0.000 A 
ATOM      4  N   UNL     1       8.450   7.335  19.072  0.00  0.00    +0.000 NA
ATOM      5  C   UNL     1       8.053   7.947  17.937  0.00  0.00    +0.000 A 
ATOM      6  N   UNL     1       8.311   9.304  17.714  0.00  0.00    +0.000 N 
ATOM      7  C   UNL     1       8.854  10.232  18.536  0.00  0.00    +0.000 C 
ATOM      8  N   UNL     1       9.229   9.855  19.769  0.00  0.00    +0.000 N 
ATOM      9  O   UNL     1       8.973  11.397  18.170  0.00  0.00    +0.000 OA
ATOM     10  C   UNL     1       7.375   7.270  16.930  0.00  0.00    +0.000 A 
ATOM     11  H   UNL     1       8.034   9.698  16.828  0.00  0.00    +0.000 HD
ATOM     12  H   UNL     1       9.373   8.863  19.936  0.00  0.00    +0.000 HD
ATOM     13  H   UNL     1       9.712  10.531  20.338  0.00  0.00    +0.000 HD
ENDROOT
BRANCH   1  18
ATOM     14  N   UNL     1       5.210   4.438  16.144  0.00  0.00    +0.000 N 
ATOM     15  N   UNL     1       5.008   3.610  15.082  0.00  0.00    +0.000 NA
ATOM     16  C   UNL     1       5.913   3.991  14.184  0.00  0.00    +0.000 A 
ATOM     17  C   UNL     1       6.801   4.947  14.693  0.00  0.00    +0.000 A 
ATOM     18  C   UNL     1       6.403   5.164  16.003  0.00  0.00    +0.000 A 
BRANCH  14  23
ATOM     19  C   UNL     1       1.418   4.645  20.431  0.00  0.00    +0.000 C 
ATOM     20  C   UNL     1       2.410   4.574  19.309  0.00  0.00    +0.000 A 
ATOM     21  C   UNL     1       3.054   3.374  18.983  0.00  0.00    +0.000 A 
ATOM     22  C   UNL     1       3.960   3.322  17.917  0.00  0.00    +0.000 A 
ATOM     23  C   UNL     1       4.251   4.484  17.190  0.00  0.00    +0.000 A 
ATOM     24  C   UNL     1       3.586   5.677  17.499  0.00  0.00    +0.000 A 
ATOM     25  C   UNL     1       2.678   5.721  18.556  0.00  0.00    +0.000 A 
ENDBRANCH  14  23
ENDBRANCH   1  18
TORSDOF 2
ENDMDL
MODEL 6
REMARK VINA RESULT:      -8.0      3.625      6.471
REMARK  Name = 
REMARK  3 active torsions:
REMARK  status: ('A' for Active; 'I' for Inactive)
REMARK    1  A    between atoms: C_1  and  C_2
REMARK    2  A    between atoms: C_5  and  N_6
REMARK    3  A    between atoms: C_10  and  C_11
REMARK                            x       y       z     vdW  Elec       q    Type
REMARK                         _______ _______ _______ _____ _____    ______ ____
ROOT
ATOM      1  C   UNL     1       2.256   6.219  19.763  0.00  0.00    +0.000 A 
ATOM      2  C   UNL     1       2.491   6.597  18.443  0.00  0.00    +0.000 A 
ATOM      3  C   UNL     1       2.186   7.896  18.067  0.00  0.00    +0.000 A 
ATOM      4  N   UNL     1       1.677   8.831  18.901  0.00  0.00    +0.000 NA
ATOM      5  C   UNL     1       1.488   8.472  20.188  0.00  0.00    +0.000 A 
ATOM      6  N   UNL     1       0.986   9.377  21.129  0.00  0.00    +0.000 N 
ATOM      7  C   UNL     1       0.714  10.697  21.006  0.00  0.00    +0.000 C 
ATOM      8  N   UNL     1       0.933  11.289  19.821  0.00  0.00    +0.000 N 
ATOM      9  O   UNL     1       0.303  11.341  21.966  0.00  0.00    +0.000 OA
ATOM     10  C   UNL     1       1.773   7.191  20.648  0.00  0.00    +0.000 A 
ATOM     11  H   UNL     1       0.819   9.040  22.065  0.00  0.00    +0.000 HD
ATOM     12  H   UNL     1       1.000  10.693  19.001  0.00  0.00    +0.000 HD
ATOM     13  H   UNL     1       0.643  12.247  19.717  0.00  0.00    +0.000 HD
ENDROOT
BRANCH   1  18
ATOM     14  N   UNL     1       3.338   3.905  19.560  0.00  0.00    +0.000 N 
ATOM     15  N   UNL     1       3.140   2.656  20.064  0.00  0.00    +0.000 NA
ATOM     16  C   UNL     1       2.435   2.852  21.176  0.00  0.00    +0.000 A 
ATOM     17  C   UNL     1       2.039   4.187  21.328  0.00  0.00    +0.000 A 
ATOM     18  C   UNL     1       2.543   4.854  20.223  0.00  0.00    +0.000 A 
BRANCH  14  23
ATOM     19  C   UNL     1       7.147   4.584  15.336  0.00  0.00    +0.000 C 
ATOM     20  C   UNL     1       6.159   4.416  16.452  0.00  0.00    +0.000 A 
ATOM     21  C   UNL     1       6.481   4.773  17.768  0.00  0.00    +0.000 A 
ATOM     22  C   UNL     1       5.537   4.631  18.792  0.00  0.00    +0.000 A 
ATOM     23  C   UNL     1       4.274   4.097  18.509  0.00  0.00    +0.000 A 
ATOM     24  C   UNL     1       3.943   3.766  17.189  0.00  0.00    +0.000 A 
ATOM     25  C   UNL     1       4.883   3.919  16.171  0.00  0.00    +0.000 A 
ENDBRANCH  14  23
ENDBRANCH   1  18
TORSDOF 2
ENDMDL
MODEL 7
REMARK VINA RESULT:      -7.6      3.761      6.676
REMARK  Name = 
REMARK  3 active torsions:
REMARK  status: ('A' for Active; 'I' for Inactive)
REMARK    1  A    between atoms: C_1  and  C_2
REMARK    2  A    between atoms: C_5  and  N_6
REMARK    3  A    between atoms: C_10  and  C_11
REMARK                            x       y       z     vdW  Elec       q    Type
REMARK                         _______ _______ _______ _____ _____    ______ ____
ROOT
ATOM      1  C   UNL     1       2.193   6.627  18.549  0.00  0.00    +0.000 A 
ATOM      2  C   UNL     1       1.998   7.643  17.616  0.00  0.00    +0.000 A 
ATOM      3  C   UNL     1       1.554   8.876  18.069  0.00  0.00    +0.000 A 
ATOM      4  N   UNL     1       1.299   9.164  19.366  0.00  0.00    +0.000 NA
ATOM      5  C   UNL     1       1.526   8.189  20.270  0.00  0.00    +0.000 A 
ATOM      6  N   UNL     1       1.312   8.400  21.636  0.00  0.00    +0.000 N 
ATOM      7  C   UNL     1       0.976   9.532  22.299  0.00  0.00    +0.000 C 
ATOM      8  N   UNL     1       0.801  10.660  21.592  0.00  0.00    +0.000 N 
ATOM      9  O   UNL     1       0.863   9.529  23.520  0.00  0.00    +0.000 OA
ATOM     10  C   UNL     1       1.977   6.927  19.899  0.00  0.00    +0.000 A 
ATOM     11  H   UNL     1       1.452   7.621  22.262  0.00  0.00    +0.000 HD
ATOM     12  H   UNL     1       0.631  10.570  20.594  0.00  0.00    +0.000 HD
ATOM     13  H   UNL     1       0.465  11.471  22.083  0.00  0.00    +0.000 HD
ENDROOT
BRANCH   1  18
ATOM     14  N   UNL     1       3.945   4.953  17.714  0.00  0.00    +0.000 N 
ATOM     15  N   UNL     1       3.960   3.742  17.092  0.00  0.00    +0.000 NA
ATOM     16  C   UNL     1       2.759   3.224  17.338  0.00  0.00    +0.000 A 
ATOM     17  C   UNL     1       1.907   4.133  17.978  0.00  0.00    +0.000 A 
ATOM     18  C   UNL     1       2.649   5.294  18.133  0.00  0.00    +0.000 A 
BRANCH  14  23
ATOM     19  C   UNL     1       8.786   7.931  18.426  0.00  0.00    +0.000 C 
ATOM     20  C   UNL     1       7.516   7.158  18.224  0.00  0.00    +0.000 A 
ATOM     21  C   UNL     1       6.608   7.502  17.215  0.00  0.00    +0.000 A 
ATOM     22  C   UNL     1       5.439   6.755  17.028  0.00  0.00    +0.000 A 
ATOM     23  C   UNL     1       5.157   5.676  17.875  0.00  0.00    +0.000 A 
ATOM     24  C   UNL     1       6.077   5.315  18.866  0.00  0.00    +0.000 A 
ATOM     25  C   UNL     1       7.245   6.057  19.043  0.00  0.00    +0.000 A 
ENDBRANCH  14  23
ENDBRANCH   1  18
TORSDOF 2
ENDMDL
MODEL 8
REMARK VINA RESULT:      -7.3      3.761      6.652
REMARK  Name = 
REMARK  3 active torsions:
REMARK  status: ('A' for Active; 'I' for Inactive)
REMARK    1  A    between atoms: C_1  and  C_2
REMARK    2  A    between atoms: C_5  and  N_6
REMARK    3  A    between atoms: C_10  and  C_11
REMARK                            x       y       z     vdW  Elec       q    Type
REMARK                         _______ _______ _______ _____ _____    ______ ____
ROOT
ATOM      1  C   UNL     1       2.297   6.643  18.546  0.00  0.00    +0.000 A 
ATOM      2  C   UNL     1       2.039   7.638  17.605  0.00  0.00    +0.000 A 
ATOM      3  C   UNL     1       1.532   8.849  18.051  0.00  0.00    +0.000 A 
ATOM      4  N   UNL     1       1.272   9.135  19.348  0.00  0.00    +0.000 NA
ATOM      5  C   UNL     1       1.561   8.183  20.259  0.00  0.00    +0.000 A 
ATOM      6  N   UNL     1       1.347   8.396  21.625  0.00  0.00    +0.000 N 
ATOM      7  C   UNL     1       0.955   9.514  22.280  0.00  0.00    +0.000 C 
ATOM      8  N   UNL     1       0.713  10.624  21.564  0.00  0.00    +0.000 N 
ATOM      9  O   UNL     1       0.853   9.516  23.502  0.00  0.00    +0.000 OA
ATOM     10  C   UNL     1       2.077   6.944  19.896  0.00  0.00    +0.000 A 
ATOM     11  H   UNL     1       1.535   7.632  22.256  0.00  0.00    +0.000 HD
ATOM     12  H   UNL     1       0.539  10.515  20.569  0.00  0.00    +0.000 HD
ATOM     13  H   UNL     1       0.337  11.420  22.051  0.00  0.00    +0.000 HD
ENDROOT
BRANCH   1  18
ATOM     14  N   UNL     1       4.138   5.054  17.739  0.00  0.00    +0.000 N 
ATOM     15  N   UNL     1       4.220   3.845  17.119  0.00  0.00    +0.000 NA
ATOM     16  C   UNL     1       3.042   3.270  17.348  0.00  0.00    +0.000 A 
ATOM     17  C   UNL     1       2.139   4.138  17.975  0.00  0.00    +0.000 A 
ATOM     18  C   UNL     1       2.822   5.333  18.139  0.00  0.00    +0.000 A 
BRANCH  14  23
ATOM     19  C   UNL     1       8.922   8.139  18.379  0.00  0.00    +0.000 C 
ATOM     20  C   UNL     1       7.673   7.323  18.226  0.00  0.00    +0.000 A 
ATOM     21  C   UNL     1       7.446   6.185  19.011  0.00  0.00    +0.000 A 
ATOM     22  C   UNL     1       6.263   5.450  18.870  0.00  0.00    +0.000 A 
ATOM     23  C   UNL     1       5.313   5.834  17.915  0.00  0.00    +0.000 A 
ATOM     24  C   UNL     1       5.526   6.986  17.150  0.00  0.00    +0.000 A 
ATOM     25  C   UNL     1       6.702   7.721  17.301  0.00  0.00    +0.000 A 
ENDBRANCH  14  23
ENDBRANCH   1  18
TORSDOF 2
ENDMDL
MODEL 9
REMARK VINA RESULT:      -7.3      3.220      6.244
REMARK  Name = 
REMARK  3 active torsions:
REMARK  status: ('A' for Active; 'I' for Inactive)
REMARK    1  A    between atoms: C_1  and  C_2
REMARK    2  A    between atoms: C_5  and  N_6
REMARK    3  A    between atoms: C_10  and  C_11
REMARK                            x       y       z     vdW  Elec       q    Type
REMARK                         _______ _______ _______ _____ _____    ______ ____
ROOT
ATOM      1  C   UNL     1       4.006   5.647  18.109  0.00  0.00    +0.000 A 
ATOM      2  C   UNL     1       3.545   5.020  19.265  0.00  0.00    +0.000 A 
ATOM      3  C   UNL     1       2.650   5.704  20.072  0.00  0.00    +0.000 A 
ATOM      4  N   UNL     1       2.184   6.947  19.810  0.00  0.00    +0.000 NA
ATOM      5  C   UNL     1       2.602   7.534  18.669  0.00  0.00    +0.000 A 
ATOM      6  N   UNL     1       2.157   8.809  18.302  0.00  0.00    +0.000 N 
ATOM      7  C   UNL     1       1.229   9.605  18.881  0.00  0.00    +0.000 C 
ATOM      8  N   UNL     1       0.604   9.164  19.984  0.00  0.00    +0.000 N 
ATOM      9  O   UNL     1       0.947  10.693  18.389  0.00  0.00    +0.000 OA
ATOM     10  C   UNL     1       3.495   6.914  17.802  0.00  0.00    +0.000 A 
ATOM     11  H   UNL     1       2.541   9.219  17.464  0.00  0.00    +0.000 HD
ATOM     12  H   UNL     1       1.045   8.413  20.508  0.00  0.00    +0.000 HD
ATOM     13  H   UNL     1      -0.017   9.801  20.455  0.00  0.00    +0.000 HD
ENDROOT
BRANCH   1  18
ATOM     14  N   UNL     1       6.221   5.481  16.832  0.00  0.00    +0.000 N 
ATOM     15  N   UNL     1       6.715   4.800  15.761  0.00  0.00    +0.000 NA
ATOM     16  C   UNL     1       5.914   3.744  15.638  0.00  0.00    +0.000 A 
ATOM     17  C   UNL     1       4.819   3.800  16.510  0.00  0.00    +0.000 A 
ATOM     18  C   UNL     1       4.967   4.982  17.218  0.00  0.00    +0.000 A 
BRANCH  14  23
ATOM     19  C   UNL     1       9.219   9.740  19.215  0.00  0.00    +0.000 C 
ATOM     20  C   UNL     1       8.432   8.635  18.577  0.00  0.00    +0.000 A 
ATOM     21  C   UNL     1       7.656   8.860  17.433  0.00  0.00    +0.000 A 
ATOM     22  C   UNL     1       6.947   7.810  16.839  0.00  0.00    +0.000 A 
ATOM     23  C   UNL     1       6.985   6.531  17.408  0.00  0.00    +0.000 A 
ATOM     24  C   UNL     1       7.782   6.299  18.536  0.00  0.00    +0.000 A 
ATOM     25  C   UNL     1       8.494   7.347  19.119  0.00  0.00    +0.000 A 
ENDBRANCH  14  23
ENDBRANCH   1  18
TORSDOF 2
ENDMDL
