MODEL 1
REMARK VINA RESULT:      -8.5      0.000      0.000
REMARK  Name = 
REMARK  6 active torsions:
REMARK  status: ('A' for Active; 'I' for Inactive)
REMARK    1  A    between atoms: C_1  and  C_2
REMARK    2  A    between atoms: C_2  and  N_3
REMARK    3  A    between atoms: C_2  and  C_26
REMARK    4  A    between atoms: C_4  and  C_6
REMARK    5  A    between atoms: N_8  and  N_9
REMARK    6  A    between atoms: C_12  and  C_13
REMARK                            x       y       z     vdW  Elec       q    Type
REMARK                         _______ _______ _______ _____ _____    ______ ____
ROOT
ATOM      1  N   UNL     1       3.923   7.522  16.779  0.00  0.00    +0.000 NA
ATOM      2  C   UNL     1       3.416   7.303  17.961  0.00  0.00    +0.000 C 
ATOM      3  C   UNL     1       3.677   6.096  18.836  0.00  0.00    +0.000 C 
ATOM      4  C   UNL     1       2.331   5.640  19.399  0.00  0.00    +0.000 C 
ATOM      5  N   UNL     1       1.788   6.676  20.273  0.00  0.00    +0.000 N 
ATOM      6  C   UNL     1       1.673   7.936  19.649  0.00  0.00    +0.000 A 
ATOM      7  C   UNL     1       0.821   8.895  20.212  0.00  0.00    +0.000 A 
ATOM      8  C   UNL     1       0.727  10.177  19.667  0.00  0.00    +0.000 A 
ATOM      9  C   UNL     1       1.510  10.530  18.570  0.00  0.00    +0.000 A 
ATOM     10  C   UNL     1       2.390   9.600  18.012  0.00  0.00    +0.000 A 
ATOM     11  C   UNL     1       2.481   8.313  18.555  0.00  0.00    +0.000 A 
ATOM     12  H   UNL     1       0.927   6.392  20.736  0.00  0.00    +0.000 HD
ENDROOT
BRANCH   4  13
ATOM     13  C   UNL     1       2.453   4.334  20.163  0.00  0.00    +0.000 A 
ATOM     14  C   UNL     1       1.556   3.995  21.189  0.00  0.00    +0.000 A 
ATOM     15  C   UNL     1       1.723   2.814  21.916  0.00  0.00    +0.000 A 
ATOM     16  C   UNL     1       2.781   1.956  21.622  0.00  0.00    +0.000 A 
ATOM     17  C   UNL     1       3.664   2.269  20.591  0.00  0.00    +0.000 A 
ATOM     18  C   UNL     1       3.500   3.450  19.866  0.00  0.00    +0.000 A 
ENDBRANCH   4  13
BRANCH   1  21
ATOM     19  C   UNL     1       6.088   6.525  16.584  0.00  0.00    +0.000 C 
ATOM     20  O   UNL     1       6.677   7.175  17.440  0.00  0.00    +0.000 OA
ATOM     21  N   UNL     1       4.759   6.611  16.199  0.00  0.00    +0.000 N 
ATOM     22  H   UNL     1       4.450   5.984  15.464  0.00  0.00    +0.000 HD
BRANCH  19  24
ATOM     23  N   UNL     1       6.607   5.450  14.433  0.00  0.00    +0.000 N 
ATOM     24  C   UNL     1       6.870   5.454  15.788  0.00  0.00    +0.000 C 
ATOM     25  O   UNL     1       7.640   4.706  16.375  0.00  0.00    +0.000 OA
ATOM     26  H   UNL     1       5.972   6.172  14.106  0.00  0.00    +0.000 HD
BRANCH  23  28
ATOM     27  C   UNL     1       8.145   5.410  12.500  0.00  0.00    +0.000 C 
ATOM     28  C   UNL     1       7.306   4.594  13.490  0.00  0.00    +0.000 C 
BRANCH  28  29
ATOM     29  C   UNL     1       6.379   3.687  12.692  0.00  0.00    +0.000 A 
ATOM     30  C   UNL     1       6.929   2.609  11.975  0.00  0.00    +0.000 A 
ATOM     31  C   UNL     1       6.142   1.845  11.110  0.00  0.00    +0.000 A 
ATOM     32  C   UNL     1       4.790   2.141  10.954  0.00  0.00    +0.000 A 
ATOM     33  C   UNL     1       4.223   3.192  11.671  0.00  0.00    +0.000 A 
ATOM     34  C   UNL     1       5.012   3.964  12.530  0.00  0.00    +0.000 A 
ENDBRANCH  28  29
ENDBRANCH  23  28
ENDBRANCH  19  24
ENDBRANCH   1  21
TORSDOF 5
ENDMDL
MODEL 2
REMARK VINA RESULT:      -8.4      4.114      7.693
REMARK  Name = 
REMARK  6 active torsions:
REMARK  status: ('A' for Active; 'I' for Inactive)
REMARK    1  A    between atoms: C_1  and  C_2
REMARK    2  A    between atoms: C_2  and  N_3
REMARK    3  A    between atoms: C_2  and  C_26
REMARK    4  A    between atoms: C_4  and  C_6
REMARK    5  A    between atoms: N_8  and  N_9
REMARK    6  A    between atoms: C_12  and  C_13
REMARK                            x       y       z     vdW  Elec       q    Type
REMARK                         _______ _______ _______ _____ _____    ______ ____
ROOT
ATOM      1  N   UNL     1       0.740  10.359  20.521  0.00  0.00    +0.000 NA
ATOM      2  C   UNL     1      -0.473  10.747  20.239  0.00  0.00    +0.000 C 
ATOM      3  C   UNL     1      -1.320  10.262  19.082  0.00  0.00    +0.000 C 
ATOM      4  C   UNL     1      -1.974  11.490  18.448  0.00  0.00    +0.000 C 
ATOM      5  N   UNL     1      -2.890  12.107  19.403  0.00  0.00    +0.000 N 
ATOM      6  C   UNL     1      -2.284  12.436  20.633  0.00  0.00    +0.000 A 
ATOM      7  C   UNL     1      -2.911  13.370  21.468  0.00  0.00    +0.000 A 
ATOM      8  C   UNL     1      -2.382  13.677  22.724  0.00  0.00    +0.000 A 
ATOM      9  C   UNL     1      -1.234  13.028  23.177  0.00  0.00    +0.000 A 
ATOM     10  C   UNL     1      -0.611  12.071  22.374  0.00  0.00    +0.000 A 
ATOM     11  C   UNL     1      -1.137  11.767  21.113  0.00  0.00    +0.000 A 
ATOM     12  H   UNL     1      -3.411  12.886  19.006  0.00  0.00    +0.000 HD
ENDROOT
BRANCH   4  13
ATOM     13  C   UNL     1      -2.719  11.137  17.174  0.00  0.00    +0.000 A 
ATOM     14  C   UNL     1      -4.016  11.617  16.923  0.00  0.00    +0.000 A 
ATOM     15  C   UNL     1      -4.704  11.231  15.770  0.00  0.00    +0.000 A 
ATOM     16  C   UNL     1      -4.102  10.373  14.851  0.00  0.00    +0.000 A 
ATOM     17  C   UNL     1      -2.808   9.909  15.077  0.00  0.00    +0.000 A 
ATOM     18  C   UNL     1      -2.121  10.290  16.230  0.00  0.00    +0.000 A 
ENDBRANCH   4  13
BRANCH   1  21
ATOM     19  C   UNL     1       1.589   8.151  20.171  0.00  0.00    +0.000 C 
ATOM     20  O   UNL     1       1.248   7.642  21.233  0.00  0.00    +0.000 OA
ATOM     21  N   UNL     1       1.382   9.449  19.731  0.00  0.00    +0.000 N 
ATOM     22  H   UNL     1       1.743   9.688  18.814  0.00  0.00    +0.000 HD
BRANCH  19  24
ATOM     23  N   UNL     1       3.094   6.263  19.700  0.00  0.00    +0.000 N 
ATOM     24  C   UNL     1       2.360   7.289  19.143  0.00  0.00    +0.000 C 
ATOM     25  O   UNL     1       2.281   7.555  17.951  0.00  0.00    +0.000 OA
ATOM     26  H   UNL     1       3.012   6.158  20.707  0.00  0.00    +0.000 HD
BRANCH  23  28
ATOM     27  C   UNL     1       3.879   3.921  19.621  0.00  0.00    +0.000 C 
ATOM     28  C   UNL     1       3.810   5.277  18.908  0.00  0.00    +0.000 C 
BRANCH  28  29
ATOM     29  C   UNL     1       5.230   5.699  18.554  0.00  0.00    +0.000 A 
ATOM     30  C   UNL     1       6.286   5.325  19.405  0.00  0.00    +0.000 A 
ATOM     31  C   UNL     1       7.578   5.816  19.204  0.00  0.00    +0.000 A 
ATOM     32  C   UNL     1       7.838   6.680  18.145  0.00  0.00    +0.000 A 
ATOM     33  C   UNL     1       6.809   7.045  17.279  0.00  0.00    +0.000 A 
ATOM     34  C   UNL     1       5.513   6.563  17.484  0.00  0.00    +0.000 A 
ENDBRANCH  28  29
ENDBRANCH  23  28
ENDBRANCH  19  24
ENDBRANCH   1  21
TORSDOF 5
ENDMDL
MODEL 3
REMARK VINA RESULT:      -8.4      4.590      8.202
REMARK  Name = 
REMARK  6 active torsions:
REMARK  status: ('A' for Active; 'I' for Inactive)
REMARK    1  A    between atoms: C_1  and  C_2
REMARK    2  A    between atoms: C_2  and  N_3
REMARK    3  A    between atoms: C_2  and  C_26
REMARK    4  A    between atoms: C_4  and  C_6
REMARK    5  A    between atoms: N_8  and  N_9
REMARK    6  A    between atoms: C_12  and  C_13
REMARK                            x       y       z     vdW  Elec       q    Type
REMARK                         _______ _______ _______ _____ _____    ______ ____
ROOT
ATOM      1  N   UNL     1       6.106   6.655  17.293  0.00  0.00    +0.000 NA
ATOM      2  C   UNL     1       4.817   6.506  17.421  0.00  0.00    +0.000 C 
ATOM      3  C   UNL     1       3.802   7.615  17.596  0.00  0.00    +0.000 C 
ATOM      4  C   UNL     1       2.839   7.183  18.702  0.00  0.00    +0.000 C 
ATOM      5  N   UNL     1       2.095   6.002  18.272  0.00  0.00    +0.000 N 
ATOM      6  C   UNL     1       2.920   4.930  17.875  0.00  0.00    +0.000 A 
ATOM      7  C   UNL     1       2.376   3.640  17.827  0.00  0.00    +0.000 A 
ATOM      8  C   UNL     1       3.137   2.559  17.376  0.00  0.00    +0.000 A 
ATOM      9  C   UNL     1       4.444   2.759  16.933  0.00  0.00    +0.000 A 
ATOM     10  C   UNL     1       4.994   4.042  16.942  0.00  0.00    +0.000 A 
ATOM     11  C   UNL     1       4.235   5.125  17.399  0.00  0.00    +0.000 A 
ATOM     12  H   UNL     1       1.383   5.717  18.943  0.00  0.00    +0.000 HD
ENDROOT
BRANCH   4  13
ATOM     13  C   UNL     1       1.873   8.293  19.074  0.00  0.00    +0.000 A 
ATOM     14  C   UNL     1       1.328   8.393  20.365  0.00  0.00    +0.000 A 
ATOM     15  C   UNL     1       0.397   9.390  20.666  0.00  0.00    +0.000 A 
ATOM     16  C   UNL     1       0.008  10.303  19.687  0.00  0.00    +0.000 A 
ATOM     17  C   UNL     1       0.559  10.229  18.409  0.00  0.00    +0.000 A 
ATOM     18  C   UNL     1       1.487   9.231  18.105  0.00  0.00    +0.000 A 
ENDBRANCH   4  13
BRANCH   1  21
ATOM     19  C   UNL     1       7.818   8.130  18.076  0.00  0.00    +0.000 C 
ATOM     20  O   UNL     1       8.467   7.333  18.745  0.00  0.00    +0.000 OA
ATOM     21  N   UNL     1       6.672   7.898  17.333  0.00  0.00    +0.000 N 
ATOM     22  H   UNL     1       6.272   8.691  16.842  0.00  0.00    +0.000 HD
BRANCH  19  24
ATOM     23  N   UNL     1       9.241   9.938  18.947  0.00  0.00    +0.000 N 
ATOM     24  C   UNL     1       8.280   9.605  18.015  0.00  0.00    +0.000 C 
ATOM     25  O   UNL     1       7.789  10.358  17.184  0.00  0.00    +0.000 OA
ATOM     26  H   UNL     1       9.569   9.177  19.533  0.00  0.00    +0.000 HD
BRANCH  23  28
ATOM     27  C   UNL     1      11.387  11.142  18.725  0.00  0.00    +0.000 C 
ATOM     28  C   UNL     1       9.882  11.241  18.997  0.00  0.00    +0.000 C 
BRANCH  28  29
ATOM     29  C   UNL     1       9.686  11.963  20.324  0.00  0.00    +0.000 A 
ATOM     30  C   UNL     1       8.883  11.367  21.313  0.00  0.00    +0.000 A 
ATOM     31  C   UNL     1       8.551  12.059  22.481  0.00  0.00    +0.000 A 
ATOM     32  C   UNL     1       9.025  13.351  22.683  0.00  0.00    +0.000 A 
ATOM     33  C   UNL     1       9.840  13.949  21.725  0.00  0.00    +0.000 A 
ATOM     34  C   UNL     1      10.164  13.263  20.550  0.00  0.00    +0.000 A 
ENDBRANCH  28  29
ENDBRANCH  23  28
ENDBRANCH  19  24
ENDBRANCH   1  21
TORSDOF 5
ENDMDL
MODEL 4
REMARK VINA RESULT:      -8.3      4.155      8.398
REMARK  Name = 
REMARK  6 active torsions:
REMARK  status: ('A' for Active; 'I' for Inactive)
REMARK    1  A    between atoms: C_1  and  C_2
REMARK    2  A    between atoms: C_2  and  N_3
REMARK    3  A    between atoms: C_2  and  C_26
REMARK    4  A    between atoms: C_4  and  C_6
REMARK    5  A    between atoms: N_8  and  N_9
REMARK    6  A    between atoms: C_12  and  C_13
REMARK                            x       y       z     vdW  Elec       q    Type
REMARK                         _______ _______ _______ _____ _____    ______ ____
ROOT
ATOM      1  N   UNL     1       0.180  10.409  20.500  0.00  0.00    +0.000 NA
ATOM      2  C   UNL     1       0.005  11.701  20.450  0.00  0.00    +0.000 C 
ATOM      3  C   UNL     1       0.535  12.635  19.384  0.00  0.00    +0.000 C 
ATOM      4  C   UNL     1       1.108  13.861  20.096  0.00  0.00    +0.000 C 
ATOM      5  N   UNL     1       0.035  14.578  20.779  0.00  0.00    +0.000 N 
ATOM      6  C   UNL     1      -0.699  13.773  21.674  0.00  0.00    +0.000 A 
ATOM      7  C   UNL     1      -1.468  14.393  22.668  0.00  0.00    +0.000 A 
ATOM      8  C   UNL     1      -2.263  13.639  23.534  0.00  0.00    +0.000 A 
ATOM      9  C   UNL     1      -2.327  12.253  23.395  0.00  0.00    +0.000 A 
ATOM     10  C   UNL     1      -1.595  11.617  22.391  0.00  0.00    +0.000 A 
ATOM     11  C   UNL     1      -0.793  12.372  21.527  0.00  0.00    +0.000 A 
ATOM     12  H   UNL     1       0.349  15.447  21.207  0.00  0.00    +0.000 HD
ENDROOT
BRANCH   4  13
ATOM     13  C   UNL     1       1.816  14.794  19.130  0.00  0.00    +0.000 A 
ATOM     14  C   UNL     1       2.980  14.402  18.448  0.00  0.00    +0.000 A 
ATOM     15  C   UNL     1       3.645  15.298  17.608  0.00  0.00    +0.000 A 
ATOM     16  C   UNL     1       3.152  16.589  17.432  0.00  0.00    +0.000 A 
ATOM     17  C   UNL     1       1.985  16.983  18.084  0.00  0.00    +0.000 A 
ATOM     18  C   UNL     1       1.321  16.090  18.927  0.00  0.00    +0.000 A 
ENDBRANCH   4  13
BRANCH   1  21
ATOM     19  C   UNL     1       1.505   8.541  19.813  0.00  0.00    +0.000 C 
ATOM     20  O   UNL     1       1.446   7.875  20.840  0.00  0.00    +0.000 OA
ATOM     21  N   UNL     1       0.922   9.770  19.548  0.00  0.00    +0.000 N 
ATOM     22  H   UNL     1       1.087  10.170  18.630  0.00  0.00    +0.000 HD
BRANCH  19  24
ATOM     23  N   UNL     1       2.829   6.730  18.803  0.00  0.00    +0.000 N 
ATOM     24  C   UNL     1       2.326   8.001  18.618  0.00  0.00    +0.000 C 
ATOM     25  O   UNL     1       2.478   8.699  17.624  0.00  0.00    +0.000 OA
ATOM     26  H   UNL     1       2.570   6.276  19.674  0.00  0.00    +0.000 HD
BRANCH  23  28
ATOM     27  C   UNL     1       3.092   4.535  17.699  0.00  0.00    +0.000 C 
ATOM     28  C   UNL     1       3.543   5.999  17.770  0.00  0.00    +0.000 C 
BRANCH  28  29
ATOM     29  C   UNL     1       5.055   6.021  17.946  0.00  0.00    +0.000 A 
ATOM     30  C   UNL     1       5.625   5.357  19.048  0.00  0.00    +0.000 A 
ATOM     31  C   UNL     1       6.987   5.478  19.334  0.00  0.00    +0.000 A 
ATOM     32  C   UNL     1       7.803   6.256  18.518  0.00  0.00    +0.000 A 
ATOM     33  C   UNL     1       7.261   6.904  17.411  0.00  0.00    +0.000 A 
ATOM     34  C   UNL     1       5.897   6.793  17.128  0.00  0.00    +0.000 A 
ENDBRANCH  28  29
ENDBRANCH  23  28
ENDBRANCH  19  24
ENDBRANCH   1  21
TORSDOF 5
ENDMDL
MODEL 5
REMARK VINA RESULT:      -8.3      4.113      8.071
REMARK  Name = 
REMARK  6 active torsions:
REMARK  status: ('A' for Active; 'I' for Inactive)
REMARK    1  A    between atoms: C_1  and  C_2
REMARK    2  A    between atoms: C_2  and  N_3
REMARK    3  A    between atoms: C_2  and  C_26
REMARK    4  A    between atoms: C_4  and  C_6
REMARK    5  A    between atoms: N_8  and  N_9
REMARK    6  A    between atoms: C_12  and  C_13
REMARK                            x       y       z     vdW  Elec       q    Type
REMARK                         _______ _______ _______ _____ _____    ______ ____
ROOT
ATOM      1  N   UNL     1       0.386  10.157  20.569  0.00  0.00    +0.000 NA
ATOM      2  C   UNL     1       0.463  11.458  20.607  0.00  0.00    +0.000 C 
ATOM      3  C   UNL     1       1.299  12.331  19.697  0.00  0.00    +0.000 C 
ATOM      4  C   UNL     1       1.989  13.377  20.574  0.00  0.00    +0.000 C 
ATOM      5  N   UNL     1       0.985  14.249  21.179  0.00  0.00    +0.000 N 
ATOM      6  C   UNL     1      -0.001  13.552  21.907  0.00  0.00    +0.000 A 
ATOM      7  C   UNL     1      -0.769  14.251  22.847  0.00  0.00    +0.000 A 
ATOM      8  C   UNL     1      -1.801  13.617  23.543  0.00  0.00    +0.000 A 
ATOM      9  C   UNL     1      -2.103  12.282  23.281  0.00  0.00    +0.000 A 
ATOM     10  C   UNL     1      -1.373  11.575  22.324  0.00  0.00    +0.000 A 
ATOM     11  C   UNL     1      -0.334  12.208  21.631  0.00  0.00    +0.000 A 
ATOM     12  H   UNL     1       1.395  15.013  21.713  0.00  0.00    +0.000 HD
ENDROOT
BRANCH   4  13
ATOM     13  C   UNL     1       2.983  14.208  19.784  0.00  0.00    +0.000 A 
ATOM     14  C   UNL     1       4.164  14.696  20.368  0.00  0.00    +0.000 A 
ATOM     15  C   UNL     1       5.035  15.507  19.637  0.00  0.00    +0.000 A 
ATOM     16  C   UNL     1       4.743  15.830  18.313  0.00  0.00    +0.000 A 
ATOM     17  C   UNL     1       3.587  15.333  17.714  0.00  0.00    +0.000 A 
ATOM     18  C   UNL     1       2.714  14.526  18.445  0.00  0.00    +0.000 A 
ENDBRANCH   4  13
BRANCH   1  21
ATOM     19  C   UNL     1       1.597   8.179  19.981  0.00  0.00    +0.000 C 
ATOM     20  O   UNL     1       1.444   7.545  21.018  0.00  0.00    +0.000 OA
ATOM     21  N   UNL     1       1.118   9.442  19.665  0.00  0.00    +0.000 N 
ATOM     22  H   UNL     1       1.352   9.806  18.747  0.00  0.00    +0.000 HD
BRANCH  19  24
ATOM     23  N   UNL     1       2.994   6.334  19.147  0.00  0.00    +0.000 N 
ATOM     24  C   UNL     1       2.426   7.552  18.835  0.00  0.00    +0.000 C 
ATOM     25  O   UNL     1       2.527   8.143  17.769  0.00  0.00    +0.000 OA
ATOM     26  H   UNL     1       2.770   5.967  20.067  0.00  0.00    +0.000 HD
BRANCH  23  28
ATOM     27  C   UNL     1       3.545   4.030  18.447  0.00  0.00    +0.000 C 
ATOM     28  C   UNL     1       3.727   5.529  18.185  0.00  0.00    +0.000 C 
BRANCH  28  29
ATOM     29  C   UNL     1       5.220   5.828  18.157  0.00  0.00    +0.000 A 
ATOM     30  C   UNL     1       6.044   5.287  19.161  0.00  0.00    +0.000 A 
ATOM     31  C   UNL     1       7.387   5.656  19.264  0.00  0.00    +0.000 A 
ATOM     32  C   UNL     1       7.931   6.564  18.360  0.00  0.00    +0.000 A 
ATOM     33  C   UNL     1       7.137   7.094  17.347  0.00  0.00    +0.000 A 
ATOM     34  C   UNL     1       5.789   6.734  17.248  0.00  0.00    +0.000 A 
ENDBRANCH  28  29
ENDBRANCH  23  28
ENDBRANCH  19  24
ENDBRANCH   1  21
TORSDOF 5
ENDMDL
MODEL 6
REMARK VINA RESULT:      -8.3      3.148      9.263
REMARK  Name = 
REMARK  6 active torsions:
REMARK  status: ('A' for Active; 'I' for Inactive)
REMARK    1  A    between atoms: C_1  and  C_2
REMARK    2  A    between atoms: C_2  and  N_3
REMARK    3  A    between atoms: C_2  and  C_26
REMARK    4  A    between atoms: C_4  and  C_6
REMARK    5  A    between atoms: N_8  and  N_9
REMARK    6  A    between atoms: C_12  and  C_13
REMARK                            x       y       z     vdW  Elec       q    Type
REMARK                         _______ _______ _______ _____ _____    ______ ____
ROOT
ATOM      1  N   UNL     1       2.131   6.837  19.615  0.00  0.00    +0.000 NA
ATOM      2  C   UNL     1       3.017   5.917  19.351  0.00  0.00    +0.000 C 
ATOM      3  C   UNL     1       4.155   6.031  18.360  0.00  0.00    +0.000 C 
ATOM      4  C   UNL     1       4.199   4.727  17.562  0.00  0.00    +0.000 C 
ATOM      5  N   UNL     1       4.532   3.618  18.452  0.00  0.00    +0.000 N 
ATOM      6  C   UNL     1       3.666   3.504  19.559  0.00  0.00    +0.000 A 
ATOM      7  C   UNL     1       3.614   2.289  20.255  0.00  0.00    +0.000 A 
ATOM      8  C   UNL     1       2.821   2.151  21.396  0.00  0.00    +0.000 A 
ATOM      9  C   UNL     1       2.095   3.239  21.879  0.00  0.00    +0.000 A 
ATOM     10  C   UNL     1       2.158   4.468  21.220  0.00  0.00    +0.000 A 
ATOM     11  C   UNL     1       2.947   4.605  20.072  0.00  0.00    +0.000 A 
ATOM     12  H   UNL     1       4.650   2.736  17.958  0.00  0.00    +0.000 HD
ENDROOT
BRANCH   4  13
ATOM     13  C   UNL     1       5.202   4.795  16.426  0.00  0.00    +0.000 A 
ATOM     14  C   UNL     1       4.977   4.136  15.205  0.00  0.00    +0.000 A 
ATOM     15  C   UNL     1       5.942   4.166  14.196  0.00  0.00    +0.000 A 
ATOM     16  C   UNL     1       7.135   4.861  14.388  0.00  0.00    +0.000 A 
ATOM     17  C   UNL     1       7.359   5.538  15.585  0.00  0.00    +0.000 A 
ATOM     18  C   UNL     1       6.398   5.506  16.596  0.00  0.00    +0.000 A 
ENDBRANCH   4  13
BRANCH   1  21
ATOM     19  C   UNL     1       1.409   9.109  19.423  0.00  0.00    +0.000 C 
ATOM     20  O   UNL     1       0.692   9.168  20.416  0.00  0.00    +0.000 OA
ATOM     21  N   UNL     1       2.152   8.034  18.959  0.00  0.00    +0.000 N 
ATOM     22  H   UNL     1       2.688   8.177  18.110  0.00  0.00    +0.000 HD
BRANCH  19  24
ATOM     23  N   UNL     1       1.064  11.522  19.091  0.00  0.00    +0.000 N 
ATOM     24  C   UNL     1       1.545  10.360  18.523  0.00  0.00    +0.000 C 
ATOM     25  O   UNL     1       2.046  10.253  17.412  0.00  0.00    +0.000 OA
ATOM     26  H   UNL     1       0.720  11.437  20.042  0.00  0.00    +0.000 HD
BRANCH  23  28
ATOM     27  C   UNL     1       2.600  13.394  18.601  0.00  0.00    +0.000 C 
ATOM     28  C   UNL     1       1.184  12.824  18.458  0.00  0.00    +0.000 C 
BRANCH  28  29
ATOM     29  C   UNL     1       0.202  13.854  19.000  0.00  0.00    +0.000 A 
ATOM     30  C   UNL     1       0.397  15.213  18.692  0.00  0.00    +0.000 A 
ATOM     31  C   UNL     1      -0.385  16.205  19.289  0.00  0.00    +0.000 A 
ATOM     32  C   UNL     1      -1.381  15.854  20.195  0.00  0.00    +0.000 A 
ATOM     33  C   UNL     1      -1.604  14.512  20.496  0.00  0.00    +0.000 A 
ATOM     34  C   UNL     1      -0.816  13.519  19.908  0.00  0.00    +0.000 A 
ENDBRANCH  28  29
ENDBRANCH  23  28
ENDBRANCH  19  24
ENDBRANCH   1  21
TORSDOF 5
ENDMDL
MODEL 7
REMARK VINA RESULT:      -8.2      5.981      8.591
REMARK  Name = 
REMARK  6 active torsions:
REMARK  status: ('A' for Active; 'I' for Inactive)
REMARK    1  A    between atoms: C_1  and  C_2
REMARK    2  A    between atoms: C_2  and  N_3
REMARK    3  A    between atoms: C_2  and  C_26
REMARK    4  A    between atoms: C_4  and  C_6
REMARK    5  A    between atoms: N_8  and  N_9
REMARK    6  A    between atoms: C_12  and  C_13
REMARK                            x       y       z     vdW  Elec       q    Type
REMARK                         _______ _______ _______ _____ _____    ______ ____
ROOT
ATOM      1  N   UNL     1       9.228   9.671  18.473  0.00  0.00    +0.000 NA
ATOM      2  C   UNL     1       9.441  10.666  19.288  0.00  0.00    +0.000 C 
ATOM      3  C   UNL     1       9.058  10.721  20.751  0.00  0.00    +0.000 C 
ATOM      4  C   UNL     1       8.440  12.095  21.011  0.00  0.00    +0.000 C 
ATOM      5  N   UNL     1       9.448  13.133  20.806  0.00  0.00    +0.000 N 
ATOM      6  C   UNL     1      10.056  13.085  19.534  0.00  0.00    +0.000 A 
ATOM      7  C   UNL     1      10.723  14.222  19.060  0.00  0.00    +0.000 A 
ATOM      8  C   UNL     1      11.395  14.199  17.836  0.00  0.00    +0.000 A 
ATOM      9  C   UNL     1      11.439  13.026  17.085  0.00  0.00    +0.000 A 
ATOM     10  C   UNL     1      10.809  11.872  17.553  0.00  0.00    +0.000 A 
ATOM     11  C   UNL     1      10.129  11.896  18.777  0.00  0.00    +0.000 A 
ATOM     12  H   UNL     1       9.110  14.065  21.040  0.00  0.00    +0.000 HD
ENDROOT
BRANCH   4  13
ATOM     13  C   UNL     1       7.871  12.201  22.413  0.00  0.00    +0.000 A 
ATOM     14  C   UNL     1       8.353  11.406  23.466  0.00  0.00    +0.000 A 
ATOM     15  C   UNL     1       7.774  11.481  24.735  0.00  0.00    +0.000 A 
ATOM     16  C   UNL     1       6.714  12.356  24.969  0.00  0.00    +0.000 A 
ATOM     17  C   UNL     1       6.242  13.167  23.939  0.00  0.00    +0.000 A 
ATOM     18  C   UNL     1       6.817  13.091  22.670  0.00  0.00    +0.000 A 
ENDBRANCH   4  13
BRANCH   1  21
ATOM     19  C   UNL     1       7.951   7.706  17.996  0.00  0.00    +0.000 C 
ATOM     20  O   UNL     1       7.886   7.810  16.776  0.00  0.00    +0.000 OA
ATOM     21  N   UNL     1       8.583   8.546  18.900  0.00  0.00    +0.000 N 
ATOM     22  H   UNL     1       8.525   8.294  19.881  0.00  0.00    +0.000 HD
BRANCH  19  24
ATOM     23  N   UNL     1       6.048   6.152  18.116  0.00  0.00    +0.000 N 
ATOM     24  C   UNL     1       7.255   6.507  18.683  0.00  0.00    +0.000 C 
ATOM     25  O   UNL     1       7.787   5.969  19.644  0.00  0.00    +0.000 OA
ATOM     26  H   UNL     1       5.775   6.680  17.293  0.00  0.00    +0.000 HD
BRANCH  23  28
ATOM     27  C   UNL     1       5.011   4.034  17.379  0.00  0.00    +0.000 C 
ATOM     28  C   UNL     1       5.279   4.995  18.543  0.00  0.00    +0.000 C 
BRANCH  28  29
ATOM     29  C   UNL     1       3.943   5.356  19.178  0.00  0.00    +0.000 A 
ATOM     30  C   UNL     1       3.419   6.646  18.980  0.00  0.00    +0.000 A 
ATOM     31  C   UNL     1       2.278   7.071  19.666  0.00  0.00    +0.000 A 
ATOM     32  C   UNL     1       1.636   6.209  20.551  0.00  0.00    +0.000 A 
ATOM     33  C   UNL     1       2.128   4.920  20.744  0.00  0.00    +0.000 A 
ATOM     34  C   UNL     1       3.276   4.497  20.067  0.00  0.00    +0.000 A 
ENDBRANCH  28  29
ENDBRANCH  23  28
ENDBRANCH  19  24
ENDBRANCH   1  21
TORSDOF 5
ENDMDL
MODEL 8
REMARK VINA RESULT:      -8.2      3.128      9.215
REMARK  Name = 
REMARK  6 active torsions:
REMARK  status: ('A' for Active; 'I' for Inactive)
REMARK    1  A    between atoms: C_1  and  C_2
REMARK    2  A    between atoms: C_2  and  N_3
REMARK    3  A    between atoms: C_2  and  C_26
REMARK    4  A    between atoms: C_4  and  C_6
REMARK    5  A    between atoms: N_8  and  N_9
REMARK    6  A    between atoms: C_12  and  C_13
REMARK                            x       y       z     vdW  Elec       q    Type
REMARK                         _______ _______ _______ _____ _____    ______ ____
ROOT
ATOM      1  N   UNL     1       2.165   6.812  19.596  0.00  0.00    +0.000 NA
ATOM      2  C   UNL     1       3.054   5.888  19.357  0.00  0.00    +0.000 C 
ATOM      3  C   UNL     1       4.209   5.989  18.384  0.00  0.00    +0.000 C 
ATOM      4  C   UNL     1       4.263   4.677  17.602  0.00  0.00    +0.000 C 
ATOM      5  N   UNL     1       4.581   3.577  18.510  0.00  0.00    +0.000 N 
ATOM      6  C   UNL     1       3.696   3.476  19.603  0.00  0.00    +0.000 A 
ATOM      7  C   UNL     1       3.630   2.269  20.312  0.00  0.00    +0.000 A 
ATOM      8  C   UNL     1       2.818   2.145  21.441  0.00  0.00    +0.000 A 
ATOM      9  C   UNL     1       2.085   3.239  21.899  0.00  0.00    +0.000 A 
ATOM     10  C   UNL     1       2.161   4.461  21.228  0.00  0.00    +0.000 A 
ATOM     11  C   UNL     1       2.970   4.584  20.092  0.00  0.00    +0.000 A 
ATOM     12  H   UNL     1       4.705   2.689  18.028  0.00  0.00    +0.000 HD
ENDROOT
BRANCH   4  13
ATOM     13  C   UNL     1       5.286   4.730  16.482  0.00  0.00    +0.000 A 
ATOM     14  C   UNL     1       6.477   5.465  16.607  0.00  0.00    +0.000 A 
ATOM     15  C   UNL     1       7.375   5.545  15.540  0.00  0.00    +0.000 A 
ATOM     16  C   UNL     1       7.100   4.886  14.343  0.00  0.00    +0.000 A 
ATOM     17  C   UNL     1       5.934   4.135  14.215  0.00  0.00    +0.000 A 
ATOM     18  C   UNL     1       5.033   4.057  15.278  0.00  0.00    +0.000 A 
ENDBRANCH   4  13
BRANCH   1  21
ATOM     19  C   UNL     1       1.463   9.088  19.377  0.00  0.00    +0.000 C 
ATOM     20  O   UNL     1       0.743   9.163  20.365  0.00  0.00    +0.000 OA
ATOM     21  N   UNL     1       2.198   8.001  18.927  0.00  0.00    +0.000 N 
ATOM     22  H   UNL     1       2.739   8.130  18.078  0.00  0.00    +0.000 HD
BRANCH  19  24
ATOM     23  N   UNL     1       1.200  11.510  19.041  0.00  0.00    +0.000 N 
ATOM     24  C   UNL     1       1.613  10.327  18.463  0.00  0.00    +0.000 C 
ATOM     25  O   UNL     1       2.067  10.195  17.335  0.00  0.00    +0.000 OA
ATOM     26  H   UNL     1       0.890  11.445  20.006  0.00  0.00    +0.000 HD
BRANCH  23  28
ATOM     27  C   UNL     1       2.812  13.254  18.358  0.00  0.00    +0.000 C 
ATOM     28  C   UNL     1       1.347  12.804  18.395  0.00  0.00    +0.000 C 
BRANCH  28  29
ATOM     29  C   UNL     1       0.528  13.906  19.054  0.00  0.00    +0.000 A 
ATOM     30  C   UNL     1      -0.583  13.555  19.842  0.00  0.00    +0.000 A 
ATOM     31  C   UNL     1      -1.450  14.531  20.338  0.00  0.00    +0.000 A 
ATOM     32  C   UNL     1      -1.215  15.875  20.063  0.00  0.00    +0.000 A 
ATOM     33  C   UNL     1      -0.108  16.244  19.302  0.00  0.00    +0.000 A 
ATOM     34  C   UNL     1       0.755  15.268  18.796  0.00  0.00    +0.000 A 
ENDBRANCH  28  29
ENDBRANCH  23  28
ENDBRANCH  19  24
ENDBRANCH   1  21
TORSDOF 5
ENDMDL
MODEL 9
REMARK VINA RESULT:      -8.1      4.473      9.045
REMARK  Name = 
REMARK  6 active torsions:
REMARK  status: ('A' for Active; 'I' for Inactive)
REMARK    1  A    between atoms: C_1  and  C_2
REMARK    2  A    between atoms: C_2  and  N_3
REMARK    3  A    between atoms: C_2  and  C_26
REMARK    4  A    between atoms: C_4  and  C_6
REMARK    5  A    between atoms: N_8  and  N_9
REMARK    6  A    between atoms: C_12  and  C_13
REMARK                            x       y       z     vdW  Elec       q    Type
REMARK                         _______ _______ _______ _____ _____    ______ ____
ROOT
ATOM      1  N   UNL     1       1.246   6.196  20.460  0.00  0.00    +0.000 NA
ATOM      2  C   UNL     1       2.242   5.486  20.008  0.00  0.00    +0.000 C 
ATOM      3  C   UNL     1       3.692   5.916  19.947  0.00  0.00    +0.000 C 
ATOM      4  C   UNL     1       4.232   5.509  18.577  0.00  0.00    +0.000 C 
ATOM      5  N   UNL     1       4.226   4.052  18.460  0.00  0.00    +0.000 N 
ATOM      6  C   UNL     1       2.962   3.474  18.696  0.00  0.00    +0.000 A 
ATOM      7  C   UNL     1       2.717   2.173  18.238  0.00  0.00    +0.000 A 
ATOM      8  C   UNL     1       1.503   1.536  18.507  0.00  0.00    +0.000 A 
ATOM      9  C   UNL     1       0.530   2.178  19.270  0.00  0.00    +0.000 A 
ATOM     10  C   UNL     1       0.766   3.462  19.764  0.00  0.00    +0.000 A 
ATOM     11  C   UNL     1       1.979   4.104  19.490  0.00  0.00    +0.000 A 
ATOM     12  H   UNL     1       4.648   3.723  17.594  0.00  0.00    +0.000 HD
ENDROOT
BRANCH   4  13
ATOM     13  C   UNL     1       5.635   6.037  18.344  0.00  0.00    +0.000 A 
ATOM     14  C   UNL     1       6.724   5.601  19.118  0.00  0.00    +0.000 A 
ATOM     15  C   UNL     1       7.996   6.145  18.923  0.00  0.00    +0.000 A 
ATOM     16  C   UNL     1       8.197   7.121  17.949  0.00  0.00    +0.000 A 
ATOM     17  C   UNL     1       7.130   7.546  17.159  0.00  0.00    +0.000 A 
ATOM     18  C   UNL     1       5.858   7.006  17.355  0.00  0.00    +0.000 A 
ENDBRANCH   4  13
BRANCH   1  21
ATOM     19  C   UNL     1       0.389   8.219  21.406  0.00  0.00    +0.000 C 
ATOM     20  O   UNL     1      -0.788   7.897  21.516  0.00  0.00    +0.000 OA
ATOM     21  N   UNL     1       1.447   7.467  20.917  0.00  0.00    +0.000 N 
ATOM     22  H   UNL     1       2.359   7.910  20.902  0.00  0.00    +0.000 HD
BRANCH  19  24
ATOM     23  N   UNL     1       0.269  10.656  21.093  0.00  0.00    +0.000 N 
ATOM     24  C   UNL     1       0.820   9.639  21.844  0.00  0.00    +0.000 C 
ATOM     25  O   UNL     1       1.590   9.773  22.786  0.00  0.00    +0.000 OA
ATOM     26  H   UNL     1      -0.387  10.367  20.374  0.00  0.00    +0.000 HD
BRANCH  23  28
ATOM     27  C   UNL     1      -0.871  12.819  21.454  0.00  0.00    +0.000 C 
ATOM     28  C   UNL     1       0.462  12.064  21.397  0.00  0.00    +0.000 C 
BRANCH  28  29
ATOM     29  C   UNL     1       1.370  12.779  20.406  0.00  0.00    +0.000 A 
ATOM     30  C   UNL     1       1.423  12.323  19.076  0.00  0.00    +0.000 A 
ATOM     31  C   UNL     1       2.351  12.848  18.173  0.00  0.00    +0.000 A 
ATOM     32  C   UNL     1       3.234  13.843  18.581  0.00  0.00    +0.000 A 
ATOM     33  C   UNL     1       3.183  14.321  19.888  0.00  0.00    +0.000 A 
ATOM     34  C   UNL     1       2.262  13.791  20.797  0.00  0.00    +0.000 A 
ENDBRANCH  28  29
ENDBRANCH  23  28
ENDBRANCH  19  24
ENDBRANCH   1  21
TORSDOF 5
ENDMDL
