MODEL 1
REMARK VINA RESULT:      -7.5      0.000      0.000
REMARK  Name = 
REMARK  6 active torsions:
REMARK  status: ('A' for Active; 'I' for Inactive)
REMARK    1  A    between atoms: C_1  and  O_2
REMARK    2  A    between atoms: O_2  and  C_3
REMARK    3  A    between atoms: C_6  and  S_7
REMARK    4  A    between atoms: S_7  and  N_10
REMARK    5  A    between atoms: N_10  and  C_11
REMARK    6  A    between atoms: C_16  and  C_17
REMARK                            x       y       z     vdW  Elec       q    Type
REMARK                         _______ _______ _______ _____ _____    ______ ____
ROOT
ATOM      1  N   UNL     1       2.776   6.133  19.847  0.00  0.00    +0.000 N 
ATOM      2  H   UNL     1       2.008   6.458  20.432  0.00  0.00    +0.000 HD
ENDROOT
BRANCH   1   3
ATOM      3  C   UNL     1       2.674   4.706  19.661  0.00  0.00    +0.000 A 
ATOM      4  C   UNL     1       1.387   4.161  19.764  0.00  0.00    +0.000 A 
ATOM      5  C   UNL     1       1.171   2.789  19.618  0.00  0.00    +0.000 A 
ATOM      6  C   UNL     1       2.245   1.937  19.389  0.00  0.00    +0.000 A 
ATOM      7  C   UNL     1       3.526   2.469  19.249  0.00  0.00    +0.000 A 
ATOM      8  C   UNL     1       3.750   3.858  19.339  0.00  0.00    +0.000 A 
BRANCH   8   9
ATOM      9  C   UNL     1       5.151   4.267  19.060  0.00  0.00    +0.000 C 
ATOM     10  O   UNL     1       5.920   4.299  20.022  0.00  0.00    +0.000 OA
ATOM     11  N   UNL     1       5.589   4.516  17.761  0.00  0.00    +0.000 N 
ATOM     12  C   UNL     1       7.018   4.788  17.543  0.00  0.00    +0.000 C 
ATOM     13  C   UNL     1       7.203   5.931  16.539  0.00  0.00    +0.000 C 
ATOM     14  O   UNL     1       6.472   5.696  15.321  0.00  0.00    +0.000 OA
ATOM     15  C   UNL     1       5.076   5.482  15.582  0.00  0.00    +0.000 C 
ATOM     16  C   UNL     1       4.883   4.266  16.499  0.00  0.00    +0.000 C 
ENDBRANCH   8   9
ENDBRANCH   1   3
BRANCH   1  17
ATOM     17  S   UNL     1       2.628   7.174  18.511  0.00  0.00    +0.000 S 
ATOM     18  O   UNL     1       1.832   6.451  17.541  0.00  0.00    +0.000 OA
ATOM     19  O   UNL     1       3.973   7.594  18.174  0.00  0.00    +0.000 OA
BRANCH  17  23
ATOM     20  C   UNL     1       0.625  11.010  20.005  0.00  0.00    +0.000 A 
ATOM     21  C   UNL     1       1.111  10.910  18.686  0.00  0.00    +0.000 A 
ATOM     22  C   UNL     1       1.663   9.725  18.190  0.00  0.00    +0.000 A 
ATOM     23  C   UNL     1       1.718   8.604  19.014  0.00  0.00    +0.000 A 
ATOM     24  C   UNL     1       1.251   8.682  20.327  0.00  0.00    +0.000 A 
ATOM     25  C   UNL     1       0.708   9.877  20.830  0.00  0.00    +0.000 A 
ATOM     26 CL   UNL     1       0.234   9.808  22.489  0.00  0.00    +0.000 Cl
BRANCH  20  28
ATOM     27  C   UNL     1      -0.460  13.038  19.235  0.00  0.00    +0.000 C 
ATOM     28  O   UNL     1       0.146  12.265  20.257  0.00  0.00    +0.000 OA
ENDBRANCH  20  28
ENDBRANCH  17  23
ENDBRANCH   1  17
TORSDOF 5
ENDMDL
MODEL 2
REMARK VINA RESULT:      -7.5      1.237      1.695
REMARK  Name = 
REMARK  6 active torsions:
REMARK  status: ('A' for Active; 'I' for Inactive)
REMARK    1  A    between atoms: C_1  and  O_2
REMARK    2  A    between atoms: O_2  and  C_3
REMARK    3  A    between atoms: C_6  and  S_7
REMARK    4  A    between atoms: S_7  and  N_10
REMARK    5  A    between atoms: N_10  and  C_11
REMARK    6  A    between atoms: C_16  and  C_17
REMARK                            x       y       z     vdW  Elec       q    Type
REMARK                         _______ _______ _______ _____ _____    ______ ____
ROOT
ATOM      1  N   UNL     1       2.813   5.824  19.919  0.00  0.00    +0.000 N 
ATOM      2  H   UNL     1       2.164   6.066  20.667  0.00  0.00    +0.000 HD
ENDROOT
BRANCH   1   3
ATOM      3  C   UNL     1       2.588   4.462  19.502  0.00  0.00    +0.000 A 
ATOM      4  C   UNL     1       1.256   4.026  19.514  0.00  0.00    +0.000 A 
ATOM      5  C   UNL     1       0.921   2.721  19.144  0.00  0.00    +0.000 A 
ATOM      6  C   UNL     1       1.919   1.825  18.778  0.00  0.00    +0.000 A 
ATOM      7  C   UNL     1       3.244   2.255  18.728  0.00  0.00    +0.000 A 
ATOM      8  C   UNL     1       3.589   3.585  19.044  0.00  0.00    +0.000 A 
BRANCH   8   9
ATOM      9  C   UNL     1       5.025   3.907  18.837  0.00  0.00    +0.000 C 
ATOM     10  O   UNL     1       5.795   3.611  19.750  0.00  0.00    +0.000 OA
ATOM     11  N   UNL     1       5.482   4.436  17.632  0.00  0.00    +0.000 N 
ATOM     12  C   UNL     1       6.931   4.608  17.446  0.00  0.00    +0.000 C 
ATOM     13  C   UNL     1       7.233   5.946  16.762  0.00  0.00    +0.000 C 
ATOM     14  O   UNL     1       6.477   6.108  15.549  0.00  0.00    +0.000 OA
ATOM     15  C   UNL     1       5.066   5.978  15.789  0.00  0.00    +0.000 C 
ATOM     16  C   UNL     1       4.748   4.593  16.369  0.00  0.00    +0.000 C 
ENDBRANCH   8   9
ENDBRANCH   1   3
BRANCH   1  17
ATOM     17  S   UNL     1       2.540   7.101  18.830  0.00  0.00    +0.000 S 
ATOM     18  O   UNL     1       1.661   6.562  17.812  0.00  0.00    +0.000 OA
ATOM     19  O   UNL     1       3.847   7.607  18.462  0.00  0.00    +0.000 OA
BRANCH  17  23
ATOM     20  C   UNL     1      -0.062  10.252  20.893  0.00  0.00    +0.000 A 
ATOM     21  C   UNL     1       0.462   9.159  21.611  0.00  0.00    +0.000 A 
ATOM     22  C   UNL     1       1.314   8.224  21.015  0.00  0.00    +0.000 A 
ATOM     23  C   UNL     1       1.674   8.387  19.680  0.00  0.00    +0.000 A 
ATOM     24  C   UNL     1       1.160   9.457  18.947  0.00  0.00    +0.000 A 
ATOM     25  C   UNL     1       0.293  10.389  19.541  0.00  0.00    +0.000 A 
ATOM     26 CL   UNL     1      -0.290  11.613  18.471  0.00  0.00    +0.000 Cl
BRANCH  20  28
ATOM     27  C   UNL     1      -1.051  10.714  23.058  0.00  0.00    +0.000 C 
ATOM     28  O   UNL     1      -0.874  11.015  21.684  0.00  0.00    +0.000 OA
ENDBRANCH  20  28
ENDBRANCH  17  23
ENDBRANCH   1  17
TORSDOF 5
ENDMDL
MODEL 3
REMARK VINA RESULT:      -7.5      1.028      1.129
REMARK  Name = 
REMARK  6 active torsions:
REMARK  status: ('A' for Active; 'I' for Inactive)
REMARK    1  A    between atoms: C_1  and  O_2
REMARK    2  A    between atoms: O_2  and  C_3
REMARK    3  A    between atoms: C_6  and  S_7
REMARK    4  A    between atoms: S_7  and  N_10
REMARK    5  A    between atoms: N_10  and  C_11
REMARK    6  A    between atoms: C_16  and  C_17
REMARK                            x       y       z     vdW  Elec       q    Type
REMARK                         _______ _______ _______ _____ _____    ______ ____
ROOT
ATOM      1  N   UNL     1       2.470   5.622  17.772  0.00  0.00    +0.000 N 
ATOM      2  H   UNL     1       3.081   5.707  16.960  0.00  0.00    +0.000 HD
ENDROOT
BRANCH   1   3
ATOM      3  C   UNL     1       2.428   4.248  18.206  0.00  0.00    +0.000 A 
ATOM      4  C   UNL     1       1.164   3.643  18.214  0.00  0.00    +0.000 A 
ATOM      5  C   UNL     1       1.000   2.320  18.631  0.00  0.00    +0.000 A 
ATOM      6  C   UNL     1       2.098   1.589  19.069  0.00  0.00    +0.000 A 
ATOM      7  C   UNL     1       3.367   2.166  19.034  0.00  0.00    +0.000 A 
ATOM      8  C   UNL     1       3.553   3.482  18.563  0.00  0.00    +0.000 A 
BRANCH   8   9
ATOM      9  C   UNL     1       4.976   3.906  18.490  0.00  0.00    +0.000 C 
ATOM     10  O   UNL     1       5.626   3.842  19.534  0.00  0.00    +0.000 OA
ATOM     11  N   UNL     1       5.562   4.273  17.281  0.00  0.00    +0.000 N 
ATOM     12  C   UNL     1       7.005   4.554  17.258  0.00  0.00    +0.000 C 
ATOM     13  C   UNL     1       7.302   5.784  16.394  0.00  0.00    +0.000 C 
ATOM     14  O   UNL     1       6.720   5.669  15.083  0.00  0.00    +0.000 OA
ATOM     15  C   UNL     1       5.304   5.441  15.156  0.00  0.00    +0.000 C 
ATOM     16  C   UNL     1       5.010   4.146  15.926  0.00  0.00    +0.000 C 
ENDBRANCH   8   9
ENDBRANCH   1   3
BRANCH   1  17
ATOM     17  S   UNL     1       3.125   6.815  18.792  0.00  0.00    +0.000 S 
ATOM     18  O   UNL     1       4.227   7.396  18.053  0.00  0.00    +0.000 OA
ATOM     19  O   UNL     1       3.369   6.169  20.065  0.00  0.00    +0.000 OA
BRANCH  17  23
ATOM     20  C   UNL     1       0.279  10.313  19.581  0.00  0.00    +0.000 A 
ATOM     21  C   UNL     1       0.788  10.067  18.291  0.00  0.00    +0.000 A 
ATOM     22  C   UNL     1       1.603   8.964  18.015  0.00  0.00    +0.000 A 
ATOM     23  C   UNL     1       1.905   8.070  19.040  0.00  0.00    +0.000 A 
ATOM     24  C   UNL     1       1.419   8.299  20.328  0.00  0.00    +0.000 A 
ATOM     25  C   UNL     1       0.612   9.414  20.608  0.00  0.00    +0.000 A 
ATOM     26 CL   UNL     1       0.150   9.569  22.265  0.00  0.00    +0.000 Cl
BRANCH  20  28
ATOM     27  C   UNL     1      -0.952  12.037  18.401  0.00  0.00    +0.000 C 
ATOM     28  O   UNL     1      -0.478  11.450  19.602  0.00  0.00    +0.000 OA
ENDBRANCH  20  28
ENDBRANCH  17  23
ENDBRANCH   1  17
TORSDOF 5
ENDMDL
MODEL 4
REMARK VINA RESULT:      -7.4      1.628      2.284
REMARK  Name = 
REMARK  6 active torsions:
REMARK  status: ('A' for Active; 'I' for Inactive)
REMARK    1  A    between atoms: C_1  and  O_2
REMARK    2  A    between atoms: O_2  and  C_3
REMARK    3  A    between atoms: C_6  and  S_7
REMARK    4  A    between atoms: S_7  and  N_10
REMARK    5  A    between atoms: N_10  and  C_11
REMARK    6  A    between atoms: C_16  and  C_17
REMARK                            x       y       z     vdW  Elec       q    Type
REMARK                         _______ _______ _______ _____ _____    ______ ____
ROOT
ATOM      1  N   UNL     1       3.402   6.248  19.650  0.00  0.00    +0.000 N 
ATOM      2  H   UNL     1       3.335   6.784  20.514  0.00  0.00    +0.000 HD
ENDROOT
BRANCH   1   3
ATOM      3  C   UNL     1       3.009   4.882  19.896  0.00  0.00    +0.000 A 
ATOM      4  C   UNL     1       2.379   4.633  21.122  0.00  0.00    +0.000 A 
ATOM      5  C   UNL     1       1.968   3.345  21.474  0.00  0.00    +0.000 A 
ATOM      6  C   UNL     1       2.205   2.281  20.611  0.00  0.00    +0.000 A 
ATOM      7  C   UNL     1       2.800   2.519  19.374  0.00  0.00    +0.000 A 
ATOM      8  C   UNL     1       3.168   3.822  18.983  0.00  0.00    +0.000 A 
BRANCH   8   9
ATOM      9  C   UNL     1       3.689   3.918  17.594  0.00  0.00    +0.000 C 
ATOM     10  O   UNL     1       2.920   3.590  16.691  0.00  0.00    +0.000 OA
ATOM     11  N   UNL     1       4.955   4.437  17.330  0.00  0.00    +0.000 N 
ATOM     12  C   UNL     1       5.356   4.626  15.927  0.00  0.00    +0.000 C 
ATOM     13  C   UNL     1       6.810   4.190  15.718  0.00  0.00    +0.000 C 
ATOM     14  O   UNL     1       7.698   4.822  16.658  0.00  0.00    +0.000 OA
ATOM     15  C   UNL     1       7.292   4.571  18.012  0.00  0.00    +0.000 C 
ATOM     16  C   UNL     1       5.875   5.110  18.255  0.00  0.00    +0.000 C 
ENDBRANCH   8   9
ENDBRANCH   1   3
BRANCH   1  17
ATOM     17  S   UNL     1       2.487   7.217  18.596  0.00  0.00    +0.000 S 
ATOM     18  O   UNL     1       1.471   6.341  18.047  0.00  0.00    +0.000 OA
ATOM     19  O   UNL     1       3.435   7.865  17.714  0.00  0.00    +0.000 OA
BRANCH  17  23
ATOM     20  C   UNL     1       0.026  10.287  20.936  0.00  0.00    +0.000 A 
ATOM     21  C   UNL     1       0.593   9.168  21.578  0.00  0.00    +0.000 A 
ATOM     22  C   UNL     1       1.404   8.257  20.895  0.00  0.00    +0.000 A 
ATOM     23  C   UNL     1       1.679   8.469  19.547  0.00  0.00    +0.000 A 
ATOM     24  C   UNL     1       1.121   9.566  18.888  0.00  0.00    +0.000 A 
ATOM     25  C   UNL     1       0.294  10.474  19.571  0.00  0.00    +0.000 A 
ATOM     26 CL   UNL     1      -0.353  11.737  18.586  0.00  0.00    +0.000 Cl
BRANCH  20  28
ATOM     27  C   UNL     1      -1.029  10.538  23.106  0.00  0.00    +0.000 C 
ATOM     28  O   UNL     1      -0.733  11.019  21.806  0.00  0.00    +0.000 OA
ENDBRANCH  20  28
ENDBRANCH  17  23
ENDBRANCH   1  17
TORSDOF 5
ENDMDL
MODEL 5
REMARK VINA RESULT:      -7.2      1.235      1.625
REMARK  Name = 
REMARK  6 active torsions:
REMARK  status: ('A' for Active; 'I' for Inactive)
REMARK    1  A    between atoms: C_1  and  O_2
REMARK    2  A    between atoms: O_2  and  C_3
REMARK    3  A    between atoms: C_6  and  S_7
REMARK    4  A    between atoms: S_7  and  N_10
REMARK    5  A    between atoms: N_10  and  C_11
REMARK    6  A    between atoms: C_16  and  C_17
REMARK                            x       y       z     vdW  Elec       q    Type
REMARK                         _______ _______ _______ _____ _____    ______ ____
ROOT
ATOM      1  N   UNL     1       3.341   6.340  19.663  0.00  0.00    +0.000 N 
ATOM      2  H   UNL     1       3.126   6.918  20.474  0.00  0.00    +0.000 HD
ENDROOT
BRANCH   1   3
ATOM      3  C   UNL     1       3.036   4.961  19.955  0.00  0.00    +0.000 A 
ATOM      4  C   UNL     1       2.406   4.716  21.184  0.00  0.00    +0.000 A 
ATOM      5  C   UNL     1       2.076   3.418  21.579  0.00  0.00    +0.000 A 
ATOM      6  C   UNL     1       2.394   2.341  20.761  0.00  0.00    +0.000 A 
ATOM      7  C   UNL     1       2.989   2.571  19.521  0.00  0.00    +0.000 A 
ATOM      8  C   UNL     1       3.276   3.881  19.085  0.00  0.00    +0.000 A 
BRANCH   8   9
ATOM      9  C   UNL     1       3.809   3.959  17.700  0.00  0.00    +0.000 C 
ATOM     10  O   UNL     1       3.047   3.619  16.795  0.00  0.00    +0.000 OA
ATOM     11  N   UNL     1       5.076   4.476  17.439  0.00  0.00    +0.000 N 
ATOM     12  C   UNL     1       5.488   4.647  16.038  0.00  0.00    +0.000 C 
ATOM     13  C   UNL     1       6.944   4.210  15.847  0.00  0.00    +0.000 C 
ATOM     14  O   UNL     1       7.824   4.856  16.785  0.00  0.00    +0.000 OA
ATOM     15  C   UNL     1       7.407   4.622  18.139  0.00  0.00    +0.000 C 
ATOM     16  C   UNL     1       5.987   5.162  18.363  0.00  0.00    +0.000 C 
ENDBRANCH   8   9
ENDBRANCH   1   3
BRANCH   1  17
ATOM     17  S   UNL     1       2.482   7.158  18.445  0.00  0.00    +0.000 S 
ATOM     18  O   UNL     1       1.490   6.216  17.969  0.00  0.00    +0.000 OA
ATOM     19  O   UNL     1       3.476   7.683  17.531  0.00  0.00    +0.000 OA
BRANCH  17  23
ATOM     20  C   UNL     1       0.665  10.817  20.511  0.00  0.00    +0.000 A 
ATOM     21  C   UNL     1       1.007  10.849  19.144  0.00  0.00    +0.000 A 
ATOM     22  C   UNL     1       1.499   9.722  18.479  0.00  0.00    +0.000 A 
ATOM     23  C   UNL     1       1.636   8.526  19.179  0.00  0.00    +0.000 A 
ATOM     24  C   UNL     1       1.312   8.473  20.536  0.00  0.00    +0.000 A 
ATOM     25  C   UNL     1       0.831   9.609  21.207  0.00  0.00    +0.000 A 
ATOM     26 CL   UNL     1       0.536   9.376  22.893  0.00  0.00    +0.000 Cl
BRANCH  20  28
ATOM     27  C   UNL     1      -1.040  12.542  20.526  0.00  0.00    +0.000 C 
ATOM     28  O   UNL     1       0.221  12.038  20.934  0.00  0.00    +0.000 OA
ENDBRANCH  20  28
ENDBRANCH  17  23
ENDBRANCH   1  17
TORSDOF 5
ENDMDL
MODEL 6
REMARK VINA RESULT:      -7.2      2.870      7.919
REMARK  Name = 
REMARK  6 active torsions:
REMARK  status: ('A' for Active; 'I' for Inactive)
REMARK    1  A    between atoms: C_1  and  O_2
REMARK    2  A    between atoms: O_2  and  C_3
REMARK    3  A    between atoms: C_6  and  S_7
REMARK    4  A    between atoms: S_7  and  N_10
REMARK    5  A    between atoms: N_10  and  C_11
REMARK    6  A    between atoms: C_16  and  C_17
REMARK                            x       y       z     vdW  Elec       q    Type
REMARK                         _______ _______ _______ _____ _____    ______ ____
ROOT
ATOM      1  N   UNL     1       2.298   6.534  20.563  0.00  0.00    +0.000 N 
ATOM      2  H   UNL     1       3.198   6.687  21.016  0.00  0.00    +0.000 HD
ENDROOT
BRANCH   1   3
ATOM      3  C   UNL     1       2.001   7.639  19.685  0.00  0.00    +0.000 A 
ATOM      4  C   UNL     1       2.615   7.609  18.426  0.00  0.00    +0.000 A 
ATOM      5  C   UNL     1       2.413   8.634  17.500  0.00  0.00    +0.000 A 
ATOM      6  C   UNL     1       1.609   9.719  17.829  0.00  0.00    +0.000 A 
ATOM      7  C   UNL     1       0.964   9.746  19.065  0.00  0.00    +0.000 A 
ATOM      8  C   UNL     1       1.115   8.690  19.987  0.00  0.00    +0.000 A 
BRANCH   8   9
ATOM      9  C   UNL     1       0.277   8.823  21.207  0.00  0.00    +0.000 C 
ATOM     10  O   UNL     1      -0.182   7.782  21.678  0.00  0.00    +0.000 OA
ATOM     11  N   UNL     1       0.097  10.055  21.833  0.00  0.00    +0.000 N 
ATOM     12  C   UNL     1      -0.633  10.093  23.109  0.00  0.00    +0.000 C 
ATOM     13  C   UNL     1      -1.590  11.289  23.147  0.00  0.00    +0.000 C 
ATOM     14  O   UNL     1      -0.917  12.523  22.835  0.00  0.00    +0.000 OA
ATOM     15  C   UNL     1      -0.258  12.452  21.561  0.00  0.00    +0.000 C 
ATOM     16  C   UNL     1       0.783  11.324  21.559  0.00  0.00    +0.000 C 
ENDBRANCH   8   9
ENDBRANCH   1   3
BRANCH   1  17
ATOM     17  S   UNL     1       2.522   4.976  19.919  0.00  0.00    +0.000 S 
ATOM     18  O   UNL     1       1.350   4.719  19.107  0.00  0.00    +0.000 OA
ATOM     19  O   UNL     1       2.827   4.113  21.042  0.00  0.00    +0.000 OA
BRANCH  17  23
ATOM     20  C   UNL     1       6.291   4.691  17.336  0.00  0.00    +0.000 A 
ATOM     21  C   UNL     1       5.032   4.312  16.829  0.00  0.00    +0.000 A 
ATOM     22  C   UNL     1       3.860   4.456  17.578  0.00  0.00    +0.000 A 
ATOM     23  C   UNL     1       3.933   5.009  18.854  0.00  0.00    +0.000 A 
ATOM     24  C   UNL     1       5.171   5.383  19.380  0.00  0.00    +0.000 A 
ATOM     25  C   UNL     1       6.350   5.225  18.633  0.00  0.00    +0.000 A 
ATOM     26 CL   UNL     1       7.793   5.688  19.462  0.00  0.00    +0.000 Cl
BRANCH  20  28
ATOM     27  C   UNL     1       7.096   4.722  15.048  0.00  0.00    +0.000 C 
ATOM     28  O   UNL     1       7.281   4.444  16.426  0.00  0.00    +0.000 OA
ENDBRANCH  20  28
ENDBRANCH  17  23
ENDBRANCH   1  17
TORSDOF 5
ENDMDL
MODEL 7
REMARK VINA RESULT:      -7.1      2.004      4.252
REMARK  Name = 
REMARK  6 active torsions:
REMARK  status: ('A' for Active; 'I' for Inactive)
REMARK    1  A    between atoms: C_1  and  O_2
REMARK    2  A    between atoms: O_2  and  C_3
REMARK    3  A    between atoms: C_6  and  S_7
REMARK    4  A    between atoms: S_7  and  N_10
REMARK    5  A    between atoms: N_10  and  C_11
REMARK    6  A    between atoms: C_16  and  C_17
REMARK                            x       y       z     vdW  Elec       q    Type
REMARK                         _______ _______ _______ _____ _____    ______ ____
ROOT
ATOM      1  N   UNL     1       3.806   6.387  18.742  0.00  0.00    +0.000 N 
ATOM      2  H   UNL     1       3.310   5.746  19.361  0.00  0.00    +0.000 HD
ENDROOT
BRANCH   1   3
ATOM      3  C   UNL     1       4.678   5.640  17.869  0.00  0.00    +0.000 A 
ATOM      4  C   UNL     1       5.949   6.189  17.650  0.00  0.00    +0.000 A 
ATOM      5  C   UNL     1       6.871   5.561  16.810  0.00  0.00    +0.000 A 
ATOM      6  C   UNL     1       6.526   4.384  16.156  0.00  0.00    +0.000 A 
ATOM      7  C   UNL     1       5.278   3.808  16.391  0.00  0.00    +0.000 A 
ATOM      8  C   UNL     1       4.359   4.402  17.280  0.00  0.00    +0.000 A 
BRANCH   8   9
ATOM      9  C   UNL     1       3.123   3.607  17.500  0.00  0.00    +0.000 C 
ATOM     10  O   UNL     1       2.433   3.373  16.507  0.00  0.00    +0.000 OA
ATOM     11  N   UNL     1       2.812   3.081  18.752  0.00  0.00    +0.000 N 
ATOM     12  C   UNL     1       1.645   2.194  18.870  0.00  0.00    +0.000 C 
ATOM     13  C   UNL     1       0.850   2.514  20.140  0.00  0.00    +0.000 C 
ATOM     14  O   UNL     1       1.689   2.514  21.310  0.00  0.00    +0.000 OA
ATOM     15  C   UNL     1       2.788   3.428  21.165  0.00  0.00    +0.000 C 
ATOM     16  C   UNL     1       3.651   3.041  19.956  0.00  0.00    +0.000 C 
ENDBRANCH   8   9
ENDBRANCH   1   3
BRANCH   1  17
ATOM     17  S   UNL     1       2.510   7.274  18.091  0.00  0.00    +0.000 S 
ATOM     18  O   UNL     1       1.459   6.306  17.850  0.00  0.00    +0.000 OA
ATOM     19  O   UNL     1       3.056   8.038  16.988  0.00  0.00    +0.000 OA
BRANCH  17  23
ATOM     20  C   UNL     1       0.637  10.121  21.147  0.00  0.00    +0.000 A 
ATOM     21  C   UNL     1       1.087   8.841  21.527  0.00  0.00    +0.000 A 
ATOM     22  C   UNL     1       1.723   7.984  20.624  0.00  0.00    +0.000 A 
ATOM     23  C   UNL     1       1.940   8.413  19.317  0.00  0.00    +0.000 A 
ATOM     24  C   UNL     1       1.495   9.674  18.917  0.00  0.00    +0.000 A 
ATOM     25  C   UNL     1       0.843  10.530  19.820  0.00  0.00    +0.000 A 
ATOM     26 CL   UNL     1       0.313  12.025  19.137  0.00  0.00    +0.000 Cl
BRANCH  20  28
ATOM     27  C   UNL     1      -0.697  10.044  23.171  0.00  0.00    +0.000 C 
ATOM     28  O   UNL     1       0.040  10.763  22.196  0.00  0.00    +0.000 OA
ENDBRANCH  20  28
ENDBRANCH  17  23
ENDBRANCH   1  17
TORSDOF 5
ENDMDL
MODEL 8
REMARK VINA RESULT:      -7.1      1.696      3.910
REMARK  Name = 
REMARK  6 active torsions:
REMARK  status: ('A' for Active; 'I' for Inactive)
REMARK    1  A    between atoms: C_1  and  O_2
REMARK    2  A    between atoms: O_2  and  C_3
REMARK    3  A    between atoms: C_6  and  S_7
REMARK    4  A    between atoms: S_7  and  N_10
REMARK    5  A    between atoms: N_10  and  C_11
REMARK    6  A    between atoms: C_16  and  C_17
REMARK                            x       y       z     vdW  Elec       q    Type
REMARK                         _______ _______ _______ _____ _____    ______ ____
ROOT
ATOM      1  N   UNL     1       3.971   6.969  17.374  0.00  0.00    +0.000 N 
ATOM      2  H   UNL     1       4.132   7.973  17.455  0.00  0.00    +0.000 HD
ENDROOT
BRANCH   1   3
ATOM      3  C   UNL     1       5.218   6.263  17.531  0.00  0.00    +0.000 A 
ATOM      4  C   UNL     1       6.323   7.039  17.907  0.00  0.00    +0.000 A 
ATOM      5  C   UNL     1       7.585   6.463  18.074  0.00  0.00    +0.000 A 
ATOM      6  C   UNL     1       7.765   5.104  17.843  0.00  0.00    +0.000 A 
ATOM      7  C   UNL     1       6.668   4.314  17.503  0.00  0.00    +0.000 A 
ATOM      8  C   UNL     1       5.379   4.872  17.387  0.00  0.00    +0.000 A 
BRANCH   8   9
ATOM      9  C   UNL     1       4.306   3.877  17.124  0.00  0.00    +0.000 C 
ATOM     10  O   UNL     1       4.022   3.669  15.944  0.00  0.00    +0.000 OA
ATOM     11  N   UNL     1       3.718   3.155  18.160  0.00  0.00    +0.000 N 
ATOM     12  C   UNL     1       2.759   2.094  17.818  0.00  0.00    +0.000 C 
ATOM     13  C   UNL     1       1.559   2.125  18.770  0.00  0.00    +0.000 C 
ATOM     14  O   UNL     1       1.969   2.103  20.149  0.00  0.00    +0.000 OA
ATOM     15  C   UNL     1       2.868   3.184  20.445  0.00  0.00    +0.000 C 
ATOM     16  C   UNL     1       4.125   3.089  19.569  0.00  0.00    +0.000 C 
ENDBRANCH   8   9
ENDBRANCH   1   3
BRANCH   1  17
ATOM     17  S   UNL     1       2.724   6.751  18.509  0.00  0.00    +0.000 S 
ATOM     18  O   UNL     1       3.383   6.372  19.742  0.00  0.00    +0.000 OA
ATOM     19  O   UNL     1       1.769   5.852  17.894  0.00  0.00    +0.000 OA
BRANCH  17  23
ATOM     20  C   UNL     1       1.002  10.900  19.386  0.00  0.00    +0.000 A 
ATOM     21  C   UNL     1       1.579  10.603  18.136  0.00  0.00    +0.000 A 
ATOM     22  C   UNL     1       2.048   9.323  17.825  0.00  0.00    +0.000 A 
ATOM     23  C   UNL     1       1.924   8.306  18.768  0.00  0.00    +0.000 A 
ATOM     24  C   UNL     1       1.363   8.580  20.016  0.00  0.00    +0.000 A 
ATOM     25  C   UNL     1       0.904   9.869  20.334  0.00  0.00    +0.000 A 
ATOM     26 CL   UNL     1       0.294  10.039  21.941  0.00  0.00    +0.000 Cl
BRANCH  20  28
ATOM     27  C   UNL     1       1.244  13.193  18.632  0.00  0.00    +0.000 C 
ATOM     28  O   UNL     1       0.632  12.214  19.456  0.00  0.00    +0.000 OA
ENDBRANCH  20  28
ENDBRANCH  17  23
ENDBRANCH   1  17
TORSDOF 5
ENDMDL
MODEL 9
REMARK VINA RESULT:      -6.9      4.566      9.616
REMARK  Name = 
REMARK  6 active torsions:
REMARK  status: ('A' for Active; 'I' for Inactive)
REMARK    1  A    between atoms: C_1  and  O_2
REMARK    2  A    between atoms: O_2  and  C_3
REMARK    3  A    between atoms: C_6  and  S_7
REMARK    4  A    between atoms: S_7  and  N_10
REMARK    5  A    between atoms: N_10  and  C_11
REMARK    6  A    between atoms: C_16  and  C_17
REMARK                            x       y       z     vdW  Elec       q    Type
REMARK                         _______ _______ _______ _____ _____    ______ ____
ROOT
ATOM      1  N   UNL     1      -1.530  10.182  19.381  0.00  0.00    +0.000 N 
ATOM      2  H   UNL     1      -2.004  10.594  20.184  0.00  0.00    +0.000 HD
ENDROOT
BRANCH   1   3
ATOM      3  C   UNL     1      -2.278  10.462  18.180  0.00  0.00    +0.000 A 
ATOM      4  C   UNL     1      -1.900   9.744  17.037  0.00  0.00    +0.000 A 
ATOM      5  C   UNL     1      -2.545   9.943  15.814  0.00  0.00    +0.000 A 
ATOM      6  C   UNL     1      -3.563  10.883  15.711  0.00  0.00    +0.000 A 
ATOM      7  C   UNL     1      -3.973  11.580  16.846  0.00  0.00    +0.000 A 
ATOM      8  C   UNL     1      -3.369  11.347  18.099  0.00  0.00    +0.000 A 
BRANCH   8   9
ATOM      9  C   UNL     1      -3.994  12.091  19.224  0.00  0.00    +0.000 C 
ATOM     10  O   UNL     1      -3.288  12.919  19.799  0.00  0.00    +0.000 OA
ATOM     11  N   UNL     1      -5.338  11.919  19.549  0.00  0.00    +0.000 N 
ATOM     12  C   UNL     1      -5.925  12.782  20.585  0.00  0.00    +0.000 C 
ATOM     13  C   UNL     1      -6.840  11.970  21.508  0.00  0.00    +0.000 C 
ATOM     14  O   UNL     1      -7.819  11.221  20.766  0.00  0.00    +0.000 OA
ATOM     15  C   UNL     1      -7.196  10.360  19.799  0.00  0.00    +0.000 C 
ATOM     16  C   UNL     1      -6.368  11.184  18.803  0.00  0.00    +0.000 C 
ENDBRANCH   8   9
ENDBRANCH   1   3
BRANCH   1  17
ATOM     17  S   UNL     1       0.036  10.816  19.571  0.00  0.00    +0.000 S 
ATOM     18  O   UNL     1       0.158  11.135  20.979  0.00  0.00    +0.000 OA
ATOM     19  O   UNL     1       0.173  11.863  18.579  0.00  0.00    +0.000 OA
BRANCH  17  23
ATOM     20  C   UNL     1       2.736   7.298  18.437  0.00  0.00    +0.000 A 
ATOM     21  C   UNL     1       2.622   8.425  17.600  0.00  0.00    +0.000 A 
ATOM     22  C   UNL     1       1.857   9.539  17.961  0.00  0.00    +0.000 A 
ATOM     23  C   UNL     1       1.204   9.545  19.191  0.00  0.00    +0.000 A 
ATOM     24  C   UNL     1       1.296   8.436  20.033  0.00  0.00    +0.000 A 
ATOM     25  C   UNL     1       2.054   7.311  19.664  0.00  0.00    +0.000 A 
ATOM     26 CL   UNL     1       2.008   6.011  20.800  0.00  0.00    +0.000 Cl
BRANCH  20  28
ATOM     27  C   UNL     1       4.592   6.689  17.000  0.00  0.00    +0.000 C 
ATOM     28  O   UNL     1       3.524   6.339  17.864  0.00  0.00    +0.000 OA
ENDBRANCH  20  28
ENDBRANCH  17  23
ENDBRANCH   1  17
TORSDOF 5
ENDMDL
