MODEL 1
REMARK VINA RESULT:      -8.9      0.000      0.000
REMARK  Name = 
REMARK  3 active torsions:
REMARK  status: ('A' for Active; 'I' for Inactive)
REMARK    1  A    between atoms: C_1  and  N_2
REMARK    2  A    between atoms: C_7  and  C_8
REMARK    3  A    between atoms: C_18  and  C_19
REMARK                            x       y       z     vdW  Elec       q    Type
REMARK                         _______ _______ _______ _____ _____    ______ ____
ROOT
ATOM      1  C   UNL     1       2.461   7.139  18.805  0.00  0.00    +0.000 A 
ATOM      2  C   UNL     1       1.956   7.276  20.115  0.00  0.00    +0.000 A 
ATOM      3  C   UNL     1       1.295   8.452  20.534  0.00  0.00    +0.000 A 
ATOM      4  C   UNL     1       1.228   9.592  19.681  0.00  0.00    +0.000 A 
ATOM      5  C   UNL     1       0.579  10.839  19.921  0.00  0.00    +0.000 A 
ATOM      6  N   UNL     1      -0.806  11.016  19.848  0.00  0.00    +0.000 N 
ATOM      7  C   UNL     1      -1.666   9.994  19.211  0.00  0.00    +0.000 C 
ATOM      8  C   UNL     1      -2.650  10.596  18.186  0.00  0.00    +0.000 C 
ATOM      9  O   UNL     1      -3.407  11.674  18.743  0.00  0.00    +0.000 OA
ATOM     10  C   UNL     1      -2.514  12.731  19.106  0.00  0.00    +0.000 C 
ATOM     11  C   UNL     1      -1.506  12.291  20.201  0.00  0.00    +0.000 C 
ATOM     12  C   UNL     1      -0.651  13.516  20.534  0.00  0.00    +0.000 C 
ATOM     13  N   UNL     1       1.296  11.933  19.593  0.00  0.00    +0.000 NA
ATOM     14  N   UNL     1       2.034  11.909  18.483  0.00  0.00    +0.000 NA
ATOM     15  C   UNL     1       2.259  10.728  17.878  0.00  0.00    +0.000 A 
ATOM     16  C   UNL     1       1.967   9.531  18.503  0.00  0.00    +0.000 A 
ATOM     17  C   UNL     1       2.463   8.300  18.022  0.00  0.00    +0.000 A 
ENDROOT
BRANCH   1  24
ATOM     18  C   UNL     1       7.438   4.733  14.437  0.00  0.00    +0.000 C 
ATOM     19  N   UNL     1       6.202   4.247  15.020  0.00  0.00    +0.000 N 
ATOM     20  C   UNL     1       5.405   5.085  15.706  0.00  0.00    +0.000 A 
ATOM     21  N   UNL     1       5.371   6.428  15.613  0.00  0.00    +0.000 NA
ATOM     22  O   UNL     1       4.437   6.860  16.536  0.00  0.00    +0.000 OA
ATOM     23  C   UNL     1       3.925   5.801  17.204  0.00  0.00    +0.000 A 
ATOM     24  C   UNL     1       2.982   5.851  18.275  0.00  0.00    +0.000 A 
ATOM     25  C   UNL     1       2.632   4.567  18.767  0.00  0.00    +0.000 A 
ATOM     26 CL   UNL     1       1.563   4.361  20.121  0.00  0.00    +0.000 Cl
ATOM     27  C   UNL     1       3.165   3.373  18.241  0.00  0.00    +0.000 A 
ATOM     28  C   UNL     1       4.091   3.381  17.202  0.00  0.00    +0.000 A 
ATOM     29  C   UNL     1       4.480   4.636  16.691  0.00  0.00    +0.000 A 
ATOM     30  H   UNL     1       6.258   3.277  15.321  0.00  0.00    +0.000 HD
ENDBRANCH   1  24
TORSDOF 1
ENDMDL
MODEL 2
REMARK VINA RESULT:      -8.8      1.873      2.803
REMARK  Name = 
REMARK  3 active torsions:
REMARK  status: ('A' for Active; 'I' for Inactive)
REMARK    1  A    between atoms: C_1  and  N_2
REMARK    2  A    between atoms: C_7  and  C_8
REMARK    3  A    between atoms: C_18  and  C_19
REMARK                            x       y       z     vdW  Elec       q    Type
REMARK                         _______ _______ _______ _____ _____    ______ ____
ROOT
ATOM      1  C   UNL     1       2.034   7.695  18.861  0.00  0.00    +0.000 A 
ATOM      2  C   UNL     1       1.409   8.315  17.759  0.00  0.00    +0.000 A 
ATOM      3  C   UNL     1       0.823   9.596  17.863  0.00  0.00    +0.000 A 
ATOM      4  C   UNL     1       0.732  10.252  19.125  0.00  0.00    +0.000 A 
ATOM      5  C   UNL     1       0.209  11.548  19.412  0.00  0.00    +0.000 A 
ATOM      6  N   UNL     1       0.888  12.735  19.126  0.00  0.00    +0.000 N 
ATOM      7  C   UNL     1       2.330  12.721  18.792  0.00  0.00    +0.000 C 
ATOM      8  C   UNL     1       3.142  13.751  19.604  0.00  0.00    +0.000 C 
ATOM      9  O   UNL     1       2.578  15.063  19.518  0.00  0.00    +0.000 OA
ATOM     10  C   UNL     1       1.268  15.044  20.094  0.00  0.00    +0.000 C 
ATOM     11  C   UNL     1       0.306  14.101  19.324  0.00  0.00    +0.000 C 
ATOM     12  C   UNL     1      -1.060  14.212  20.003  0.00  0.00    +0.000 C 
ATOM     13  N   UNL     1      -0.599  11.617  20.489  0.00  0.00    +0.000 NA
ATOM     14  N   UNL     1      -0.288  10.904  21.573  0.00  0.00    +0.000 NA
ATOM     15  C   UNL     1       0.648   9.943  21.471  0.00  0.00    +0.000 A 
ATOM     16  C   UNL     1       1.105   9.509  20.241  0.00  0.00    +0.000 A 
ATOM     17  C   UNL     1       1.850   8.317  20.102  0.00  0.00    +0.000 A 
ENDROOT
BRANCH   1  24
ATOM     18  C   UNL     1       7.503   5.126  15.237  0.00  0.00    +0.000 C 
ATOM     19  N   UNL     1       6.386   4.603  16.001  0.00  0.00    +0.000 N 
ATOM     20  C   UNL     1       5.415   5.429  16.426  0.00  0.00    +0.000 A 
ATOM     21  N   UNL     1       5.098   6.635  15.919  0.00  0.00    +0.000 NA
ATOM     22  O   UNL     1       4.073   7.132  16.703  0.00  0.00    +0.000 OA
ATOM     23  C   UNL     1       3.784   6.256  17.693  0.00  0.00    +0.000 A 
ATOM     24  C   UNL     1       2.828   6.444  18.737  0.00  0.00    +0.000 A 
ATOM     25  C   UNL     1       2.749   5.338  19.622  0.00  0.00    +0.000 A 
ATOM     26 CL   UNL     1       1.719   5.352  21.021  0.00  0.00    +0.000 Cl
ATOM     27  C   UNL     1       3.534   4.178  19.472  0.00  0.00    +0.000 A 
ATOM     28  C   UNL     1       4.460   4.051  18.441  0.00  0.00    +0.000 A 
ATOM     29  C   UNL     1       4.585   5.131  17.545  0.00  0.00    +0.000 A 
ATOM     30  H   UNL     1       6.640   3.812  16.588  0.00  0.00    +0.000 HD
ENDBRANCH   1  24
TORSDOF 1
ENDMDL
MODEL 3
REMARK VINA RESULT:      -8.6      8.160     11.687
REMARK  Name = 
REMARK  3 active torsions:
REMARK  status: ('A' for Active; 'I' for Inactive)
REMARK    1  A    between atoms: C_1  and  N_2
REMARK    2  A    between atoms: C_7  and  C_8
REMARK    3  A    between atoms: C_18  and  C_19
REMARK                            x       y       z     vdW  Elec       q    Type
REMARK                         _______ _______ _______ _____ _____    ______ ____
ROOT
ATOM      1  C   UNL     1       5.447  15.495  18.983  0.00  0.00    +0.000 A 
ATOM      2  C   UNL     1       5.637  14.545  17.959  0.00  0.00    +0.000 A 
ATOM      3  C   UNL     1       6.927  14.105  17.587  0.00  0.00    +0.000 A 
ATOM      4  C   UNL     1       8.090  14.707  18.152  0.00  0.00    +0.000 A 
ATOM      5  C   UNL     1       9.458  14.372  17.923  0.00  0.00    +0.000 A 
ATOM      6  N   UNL     1      10.080  13.247  18.471  0.00  0.00    +0.000 N 
ATOM      7  C   UNL     1       9.446  12.497  19.578  0.00  0.00    +0.000 C 
ATOM      8  C   UNL     1      10.414  12.231  20.750  0.00  0.00    +0.000 C 
ATOM      9  O   UNL     1      11.632  11.625  20.310  0.00  0.00    +0.000 OA
ATOM     10  C   UNL     1      12.310  12.528  19.431  0.00  0.00    +0.000 C 
ATOM     11  C   UNL     1      11.482  12.828  18.153  0.00  0.00    +0.000 C 
ATOM     12  C   UNL     1      12.332  13.755  17.282  0.00  0.00    +0.000 C 
ATOM     13  N   UNL     1      10.281  15.422  17.727  0.00  0.00    +0.000 NA
ATOM     14  N   UNL     1      10.106  16.522  18.461  0.00  0.00    +0.000 NA
ATOM     15  C   UNL     1       8.967  16.659  19.164  0.00  0.00    +0.000 A 
ATOM     16  C   UNL     1       7.885  15.826  18.953  0.00  0.00    +0.000 A 
ATOM     17  C   UNL     1       6.601  16.133  19.454  0.00  0.00    +0.000 A 
ENDROOT
BRANCH   1  24
ATOM     18  C   UNL     1      -0.598  18.503  16.967  0.00  0.00    +0.000 C 
ATOM     19  N   UNL     1       0.077  18.190  18.212  0.00  0.00    +0.000 N 
ATOM     20  C   UNL     1       1.345  17.744  18.198  0.00  0.00    +0.000 A 
ATOM     21  N   UNL     1       2.251  17.909  17.215  0.00  0.00    +0.000 NA
ATOM     22  O   UNL     1       3.393  17.244  17.620  0.00  0.00    +0.000 OA
ATOM     23  C   UNL     1       3.182  16.656  18.820  0.00  0.00    +0.000 A 
ATOM     24  C   UNL     1       4.104  15.830  19.531  0.00  0.00    +0.000 A 
ATOM     25  C   UNL     1       3.592  15.365  20.770  0.00  0.00    +0.000 A 
ATOM     26 CL   UNL     1       4.490  14.279  21.787  0.00  0.00    +0.000 Cl
ATOM     27  C   UNL     1       2.306  15.698  21.241  0.00  0.00    +0.000 A 
ATOM     28  C   UNL     1       1.443  16.500  20.502  0.00  0.00    +0.000 A 
ATOM     29  C   UNL     1       1.903  16.972  19.257  0.00  0.00    +0.000 A 
ATOM     30  H   UNL     1      -0.552  17.836  18.928  0.00  0.00    +0.000 HD
ENDBRANCH   1  24
TORSDOF 1
ENDMDL
MODEL 4
REMARK VINA RESULT:      -8.1      2.198      3.041
REMARK  Name = 
REMARK  3 active torsions:
REMARK  status: ('A' for Active; 'I' for Inactive)
REMARK    1  A    between atoms: C_1  and  N_2
REMARK    2  A    between atoms: C_7  and  C_8
REMARK    3  A    between atoms: C_18  and  C_19
REMARK                            x       y       z     vdW  Elec       q    Type
REMARK                         _______ _______ _______ _____ _____    ______ ____
ROOT
ATOM      1  C   UNL     1       1.861   7.437  19.086  0.00  0.00    +0.000 A 
ATOM      2  C   UNL     1       1.298   7.941  17.894  0.00  0.00    +0.000 A 
ATOM      3  C   UNL     1       0.809   9.263  17.808  0.00  0.00    +0.000 A 
ATOM      4  C   UNL     1       0.750  10.093  18.965  0.00  0.00    +0.000 A 
ATOM      5  C   UNL     1       0.322  11.451  19.058  0.00  0.00    +0.000 A 
ATOM      6  N   UNL     1       1.092  12.534  18.627  0.00  0.00    +0.000 N 
ATOM      7  C   UNL     1       2.533  12.369  18.331  0.00  0.00    +0.000 C 
ATOM      8  C   UNL     1       3.409  13.441  19.011  0.00  0.00    +0.000 C 
ATOM      9  O   UNL     1       2.946  14.765  18.732  0.00  0.00    +0.000 OA
ATOM     10  C   UNL     1       1.632  14.922  19.275  0.00  0.00    +0.000 C 
ATOM     11  C   UNL     1       0.612  13.953  18.621  0.00  0.00    +0.000 C 
ATOM     12  C   UNL     1      -0.752  14.255  19.247  0.00  0.00    +0.000 C 
ATOM     13  N   UNL     1      -0.492  11.727  20.097  0.00  0.00    +0.000 NA
ATOM     14  N   UNL     1      -0.248  11.151  21.275  0.00  0.00    +0.000 NA
ATOM     15  C   UNL     1       0.614  10.120  21.328  0.00  0.00    +0.000 A 
ATOM     16  C   UNL     1       1.053   9.487  20.180  0.00  0.00    +0.000 A 
ATOM     17  C   UNL     1       1.708   8.237  20.224  0.00  0.00    +0.000 A 
ENDROOT
BRANCH   1  24
ATOM     18  C   UNL     1       8.193   4.640  17.773  0.00  0.00    +0.000 C 
ATOM     19  N   UNL     1       6.831   4.170  17.937  0.00  0.00    +0.000 N 
ATOM     20  C   UNL     1       5.819   5.052  18.018  0.00  0.00    +0.000 A 
ATOM     21  N   UNL     1       5.815   6.323  17.573  0.00  0.00    +0.000 NA
ATOM     22  O   UNL     1       4.585   6.853  17.915  0.00  0.00    +0.000 OA
ATOM     23  C   UNL     1       3.856   5.931  18.584  0.00  0.00    +0.000 A 
ATOM     24  C   UNL     1       2.561   6.126  19.154  0.00  0.00    +0.000 A 
ATOM     25  C   UNL     1       2.053   4.964  19.788  0.00  0.00    +0.000 A 
ATOM     26 CL   UNL     1       0.531   4.965  20.626  0.00  0.00    +0.000 Cl
ATOM     27  C   UNL     1       2.761   3.746  19.840  0.00  0.00    +0.000 A 
ATOM     28  C   UNL     1       4.027   3.613  19.277  0.00  0.00    +0.000 A 
ATOM     29  C   UNL     1       4.579   4.747  18.649  0.00  0.00    +0.000 A 
ATOM     30  H   UNL     1       6.768   3.311  18.478  0.00  0.00    +0.000 HD
ENDBRANCH   1  24
TORSDOF 1
ENDMDL
MODEL 5
REMARK VINA RESULT:      -8.1      5.683      8.166
REMARK  Name = 
REMARK  3 active torsions:
REMARK  status: ('A' for Active; 'I' for Inactive)
REMARK    1  A    between atoms: C_1  and  N_2
REMARK    2  A    between atoms: C_7  and  C_8
REMARK    3  A    between atoms: C_18  and  C_19
REMARK                            x       y       z     vdW  Elec       q    Type
REMARK                         _______ _______ _______ _____ _____    ______ ____
ROOT
ATOM      1  C   UNL     1      -1.475  12.390  20.092  0.00  0.00    +0.000 A 
ATOM      2  C   UNL     1      -2.691  12.298  19.385  0.00  0.00    +0.000 A 
ATOM      3  C   UNL     1      -3.933  12.539  20.014  0.00  0.00    +0.000 A 
ATOM      4  C   UNL     1      -4.005  12.758  21.421  0.00  0.00    +0.000 A 
ATOM      5  C   UNL     1      -5.155  13.048  22.213  0.00  0.00    +0.000 A 
ATOM      6  N   UNL     1      -5.780  14.298  22.239  0.00  0.00    +0.000 N 
ATOM      7  C   UNL     1      -5.104  15.493  21.687  0.00  0.00    +0.000 C 
ATOM      8  C   UNL     1      -5.130  16.695  22.654  0.00  0.00    +0.000 C 
ATOM      9  O   UNL     1      -6.453  16.982  23.114  0.00  0.00    +0.000 OA
ATOM     10  C   UNL     1      -6.941  15.862  23.857  0.00  0.00    +0.000 C 
ATOM     11  C   UNL     1      -7.048  14.584  22.983  0.00  0.00    +0.000 C 
ATOM     12  C   UNL     1      -7.626  13.484  23.875  0.00  0.00    +0.000 C 
ATOM     13  N   UNL     1      -5.247  12.357  23.367  0.00  0.00    +0.000 NA
ATOM     14  N   UNL     1      -4.139  12.140  24.077  0.00  0.00    +0.000 NA
ATOM     15  C   UNL     1      -2.945  12.368  23.501  0.00  0.00    +0.000 A 
ATOM     16  C   UNL     1      -2.828  12.573  22.139  0.00  0.00    +0.000 A 
ATOM     17  C   UNL     1      -1.579  12.515  21.483  0.00  0.00    +0.000 A 
ENDROOT
BRANCH   1  24
ATOM     18  C   UNL     1       3.844  16.666  18.339  0.00  0.00    +0.000 C 
ATOM     19  N   UNL     1       3.347  15.361  17.945  0.00  0.00    +0.000 N 
ATOM     20  C   UNL     1       2.161  14.925  18.405  0.00  0.00    +0.000 A 
ATOM     21  N   UNL     1       1.150  15.677  18.878  0.00  0.00    +0.000 NA
ATOM     22  O   UNL     1       0.161  14.796  19.277  0.00  0.00    +0.000 OA
ATOM     23  C   UNL     1       0.571  13.522  19.076  0.00  0.00    +0.000 A 
ATOM     24  C   UNL     1      -0.148  12.338  19.421  0.00  0.00    +0.000 A 
ATOM     25  C   UNL     1       0.544  11.149  19.077  0.00  0.00    +0.000 A 
ATOM     26 CL   UNL     1      -0.082   9.575  19.464  0.00  0.00    +0.000 Cl
ATOM     27  C   UNL     1       1.808  11.150  18.454  0.00  0.00    +0.000 A 
ATOM     28  C   UNL     1       2.471  12.335  18.148  0.00  0.00    +0.000 A 
ATOM     29  C   UNL     1       1.828  13.543  18.486  0.00  0.00    +0.000 A 
ATOM     30  H   UNL     1       4.088  14.681  17.795  0.00  0.00    +0.000 HD
ENDBRANCH   1  24
TORSDOF 1
ENDMDL
MODEL 6
REMARK VINA RESULT:      -8.0      3.732      5.289
REMARK  Name = 
REMARK  3 active torsions:
REMARK  status: ('A' for Active; 'I' for Inactive)
REMARK    1  A    between atoms: C_1  and  N_2
REMARK    2  A    between atoms: C_7  and  C_8
REMARK    3  A    between atoms: C_18  and  C_19
REMARK                            x       y       z     vdW  Elec       q    Type
REMARK                         _______ _______ _______ _____ _____    ______ ____
ROOT
ATOM      1  C   UNL     1       0.542  10.435  20.942  0.00  0.00    +0.000 A 
ATOM      2  C   UNL     1      -0.150   9.885  22.040  0.00  0.00    +0.000 A 
ATOM      3  C   UNL     1      -0.947  10.684  22.890  0.00  0.00    +0.000 A 
ATOM      4  C   UNL     1      -0.974  12.101  22.737  0.00  0.00    +0.000 A 
ATOM      5  C   UNL     1      -1.738  13.055  23.474  0.00  0.00    +0.000 A 
ATOM      6  N   UNL     1      -3.108  13.259  23.283  0.00  0.00    +0.000 N 
ATOM      7  C   UNL     1      -3.795  12.719  22.089  0.00  0.00    +0.000 C 
ATOM      8  C   UNL     1      -4.665  13.774  21.374  0.00  0.00    +0.000 C 
ATOM      9  O   UNL     1      -5.569  14.420  22.274  0.00  0.00    +0.000 OA
ATOM     10  C   UNL     1      -4.814  15.130  23.261  0.00  0.00    +0.000 C 
ATOM     11  C   UNL     1      -3.941  14.179  24.122  0.00  0.00    +0.000 C 
ATOM     12  C   UNL     1      -3.232  15.048  25.162  0.00  0.00    +0.000 C 
ATOM     13  N   UNL     1      -1.063  14.153  23.866  0.00  0.00    +0.000 NA
ATOM     14  N   UNL     1      -0.176  14.696  23.030  0.00  0.00    +0.000 NA
ATOM     15  C   UNL     1       0.216  13.992  21.954  0.00  0.00    +0.000 A 
ATOM     16  C   UNL     1      -0.074  12.646  21.826  0.00  0.00    +0.000 A 
ATOM     17  C   UNL     1       0.572  11.833  20.871  0.00  0.00    +0.000 A 
ENDROOT
BRANCH   1  24
ATOM     18  C   UNL     1       2.173   3.690  19.720  0.00  0.00    +0.000 C 
ATOM     19  N   UNL     1       2.612   4.995  19.264  0.00  0.00    +0.000 N 
ATOM     20  C   UNL     1       2.160   6.107  19.869  0.00  0.00    +0.000 A 
ATOM     21  N   UNL     1       1.652   6.203  21.112  0.00  0.00    +0.000 NA
ATOM     22  O   UNL     1       1.280   7.524  21.282  0.00  0.00    +0.000 OA
ATOM     23  C   UNL     1       1.531   8.222  20.150  0.00  0.00    +0.000 A 
ATOM     24  C   UNL     1       1.224   9.597  19.919  0.00  0.00    +0.000 A 
ATOM     25  C   UNL     1       1.617  10.044  18.631  0.00  0.00    +0.000 A 
ATOM     26 CL   UNL     1       1.284  11.657  18.076  0.00  0.00    +0.000 Cl
ATOM     27  C   UNL     1       2.248   9.208  17.688  0.00  0.00    +0.000 A 
ATOM     28  C   UNL     1       2.514   7.869  17.962  0.00  0.00    +0.000 A 
ATOM     29  C   UNL     1       2.128   7.377  19.224  0.00  0.00    +0.000 A 
ATOM     30  H   UNL     1       2.792   5.028  18.263  0.00  0.00    +0.000 HD
ENDBRANCH   1  24
TORSDOF 1
ENDMDL
MODEL 7
REMARK VINA RESULT:      -8.0      3.362      5.311
REMARK  Name = 
REMARK  3 active torsions:
REMARK  status: ('A' for Active; 'I' for Inactive)
REMARK    1  A    between atoms: C_1  and  N_2
REMARK    2  A    between atoms: C_7  and  C_8
REMARK    3  A    between atoms: C_18  and  C_19
REMARK                            x       y       z     vdW  Elec       q    Type
REMARK                         _______ _______ _______ _____ _____    ______ ____
ROOT
ATOM      1  C   UNL     1       0.219  10.966  20.053  0.00  0.00    +0.000 A 
ATOM      2  C   UNL     1      -0.501  11.420  18.929  0.00  0.00    +0.000 A 
ATOM      3  C   UNL     1      -0.826  12.784  18.758  0.00  0.00    +0.000 A 
ATOM      4  C   UNL     1      -0.545  13.731  19.785  0.00  0.00    +0.000 A 
ATOM      5  C   UNL     1      -0.769  15.140  19.773  0.00  0.00    +0.000 A 
ATOM      6  N   UNL     1       0.031  16.043  19.067  0.00  0.00    +0.000 N 
ATOM      7  C   UNL     1       1.350  15.632  18.537  0.00  0.00    +0.000 C 
ATOM      8  C   UNL     1       2.475  16.626  18.896  0.00  0.00    +0.000 C 
ATOM      9  O   UNL     1       2.137  17.967  18.533  0.00  0.00    +0.000 OA
ATOM     10  C   UNL     1       0.989  18.377  19.282  0.00  0.00    +0.000 C 
ATOM     11  C   UNL     1      -0.256  17.509  18.961  0.00  0.00    +0.000 C 
ATOM     12  C   UNL     1      -1.416  18.079  19.779  0.00  0.00    +0.000 C 
ATOM     13  N   UNL     1      -1.316  15.645  20.897  0.00  0.00    +0.000 NA
ATOM     14  N   UNL     1      -0.917  15.167  22.077  0.00  0.00    +0.000 NA
ATOM     15  C   UNL     1      -0.201  14.029  22.108  0.00  0.00    +0.000 A 
ATOM     16  C   UNL     1      -0.085  13.219  20.994  0.00  0.00    +0.000 A 
ATOM     17  C   UNL     1       0.401  11.897  21.083  0.00  0.00    +0.000 A 
ENDROOT
BRANCH   1  24
ATOM     18  C   UNL     1       4.770   6.656  16.836  0.00  0.00    +0.000 C 
ATOM     19  N   UNL     1       3.642   6.537  17.739  0.00  0.00    +0.000 N 
ATOM     20  C   UNL     1       2.886   7.613  18.019  0.00  0.00    +0.000 A 
ATOM     21  N   UNL     1       2.765   8.732  17.280  0.00  0.00    +0.000 NA
ATOM     22  O   UNL     1       1.924   9.575  17.982  0.00  0.00    +0.000 OA
ATOM     23  C   UNL     1       1.556   8.994  19.147  0.00  0.00    +0.000 A 
ATOM     24  C   UNL     1       0.746   9.579  20.166  0.00  0.00    +0.000 A 
ATOM     25  C   UNL     1       0.530   8.714  21.269  0.00  0.00    +0.000 A 
ATOM     26 CL   UNL     1      -0.357   9.220  22.675  0.00  0.00    +0.000 Cl
ATOM     27  C   UNL     1       1.063   7.411  21.338  0.00  0.00    +0.000 A 
ATOM     28  C   UNL     1       1.858   6.893  20.319  0.00  0.00    +0.000 A 
ATOM     29  C   UNL     1       2.111   7.723  19.209  0.00  0.00    +0.000 A 
ATOM     30  H   UNL     1       3.788   5.845  18.470  0.00  0.00    +0.000 HD
ENDBRANCH   1  24
TORSDOF 1
ENDMDL
MODEL 8
REMARK VINA RESULT:      -7.9      4.532      7.477
REMARK  Name = 
REMARK  3 active torsions:
REMARK  status: ('A' for Active; 'I' for Inactive)
REMARK    1  A    between atoms: C_1  and  N_2
REMARK    2  A    between atoms: C_7  and  C_8
REMARK    3  A    between atoms: C_18  and  C_19
REMARK                            x       y       z     vdW  Elec       q    Type
REMARK                         _______ _______ _______ _____ _____    ______ ____
ROOT
ATOM      1  C   UNL     1      -1.648  12.320  20.176  0.00  0.00    +0.000 A 
ATOM      2  C   UNL     1      -2.877  12.296  19.485  0.00  0.00    +0.000 A 
ATOM      3  C   UNL     1      -4.097  12.592  20.133  0.00  0.00    +0.000 A 
ATOM      4  C   UNL     1      -4.138  12.801  21.543  0.00  0.00    +0.000 A 
ATOM      5  C   UNL     1      -5.263  13.141  22.353  0.00  0.00    +0.000 A 
ATOM      6  N   UNL     1      -5.823  14.420  22.399  0.00  0.00    +0.000 N 
ATOM      7  C   UNL     1      -5.096  15.585  21.848  0.00  0.00    +0.000 C 
ATOM      8  C   UNL     1      -5.049  16.777  22.826  0.00  0.00    +0.000 C 
ATOM      9  O   UNL     1      -6.350  17.126  23.306  0.00  0.00    +0.000 OA
ATOM     10  C   UNL     1      -6.883  16.024  24.047  0.00  0.00    +0.000 C 
ATOM     11  C   UNL     1      -7.065  14.762  23.163  0.00  0.00    +0.000 C 
ATOM     12  C   UNL     1      -7.686  13.683  24.053  0.00  0.00    +0.000 C 
ATOM     13  N   UNL     1      -5.373  12.445  23.502  0.00  0.00    +0.000 NA
ATOM     14  N   UNL     1      -4.268  12.166  24.195  0.00  0.00    +0.000 NA
ATOM     15  C   UNL     1      -3.072  12.339  23.605  0.00  0.00    +0.000 A 
ATOM     16  C   UNL     1      -2.963  12.551  22.243  0.00  0.00    +0.000 A 
ATOM     17  C   UNL     1      -1.727  12.437  21.569  0.00  0.00    +0.000 A 
ENDROOT
BRANCH   1  24
ATOM     18  C   UNL     1       2.751   7.389  17.731  0.00  0.00    +0.000 C 
ATOM     19  N   UNL     1       2.816   8.789  18.104  0.00  0.00    +0.000 N 
ATOM     20  C   UNL     1       1.768   9.375  18.708  0.00  0.00    +0.000 A 
ATOM     21  N   UNL     1       0.782   8.764  19.392  0.00  0.00    +0.000 NA
ATOM     22  O   UNL     1      -0.093   9.758  19.789  0.00  0.00    +0.000 OA
ATOM     23  C   UNL     1       0.335  10.957  19.333  0.00  0.00    +0.000 A 
ATOM     24  C   UNL     1      -0.335  12.209  19.486  0.00  0.00    +0.000 A 
ATOM     25  C   UNL     1       0.371  13.291  18.901  0.00  0.00    +0.000 A 
ATOM     26 CL   UNL     1      -0.271  14.906  18.883  0.00  0.00    +0.000 Cl
ATOM     27  C   UNL     1       1.608  13.135  18.243  0.00  0.00    +0.000 A 
ATOM     28  C   UNL     1       2.213  11.888  18.113  0.00  0.00    +0.000 A 
ATOM     29  C   UNL     1       1.540  10.780  18.666  0.00  0.00    +0.000 A 
ATOM     30  H   UNL     1       3.380   9.346  17.467  0.00  0.00    +0.000 HD
ENDBRANCH   1  24
TORSDOF 1
ENDMDL
MODEL 9
REMARK VINA RESULT:      -7.8      2.263      3.339
REMARK  Name = 
REMARK  3 active torsions:
REMARK  status: ('A' for Active; 'I' for Inactive)
REMARK    1  A    between atoms: C_1  and  N_2
REMARK    2  A    between atoms: C_7  and  C_8
REMARK    3  A    between atoms: C_18  and  C_19
REMARK                            x       y       z     vdW  Elec       q    Type
REMARK                         _______ _______ _______ _____ _____    ______ ____
ROOT
ATOM      1  C   UNL     1       1.944   8.501  18.895  0.00  0.00    +0.000 A 
ATOM      2  C   UNL     1       2.203   9.297  17.760  0.00  0.00    +0.000 A 
ATOM      3  C   UNL     1       1.824  10.657  17.706  0.00  0.00    +0.000 A 
ATOM      4  C   UNL     1       1.050  11.236  18.754  0.00  0.00    +0.000 A 
ATOM      5  C   UNL     1       0.610  12.587  18.884  0.00  0.00    +0.000 A 
ATOM      6  N   UNL     1       1.448  13.639  19.262  0.00  0.00    +0.000 N 
ATOM      7  C   UNL     1       2.778  13.372  19.853  0.00  0.00    +0.000 C 
ATOM      8  C   UNL     1       3.029  14.176  21.147  0.00  0.00    +0.000 C 
ATOM      9  O   UNL     1       2.787  15.573  20.962  0.00  0.00    +0.000 OA
ATOM     10  C   UNL     1       1.408  15.767  20.633  0.00  0.00    +0.000 C 
ATOM     11  C   UNL     1       1.025  15.075  19.299  0.00  0.00    +0.000 C 
ATOM     12  C   UNL     1      -0.448  15.400  19.038  0.00  0.00    +0.000 C 
ATOM     13  N   UNL     1      -0.675  12.739  19.263  0.00  0.00    +0.000 NA
ATOM     14  N   UNL     1      -1.177  11.912  20.181  0.00  0.00    +0.000 NA
ATOM     15  C   UNL     1      -0.491  10.799  20.497  0.00  0.00    +0.000 A 
ATOM     16  C   UNL     1       0.574  10.366  19.730  0.00  0.00    +0.000 A 
ATOM     17  C   UNL     1       1.108   9.066  19.865  0.00  0.00    +0.000 A 
ENDROOT
BRANCH   1  24
ATOM     18  C   UNL     1       7.147   4.463  16.391  0.00  0.00    +0.000 C 
ATOM     19  N   UNL     1       5.889   4.274  17.087  0.00  0.00    +0.000 N 
ATOM     20  C   UNL     1       5.053   5.313  17.261  0.00  0.00    +0.000 A 
ATOM     21  N   UNL     1       5.011   6.449  16.539  0.00  0.00    +0.000 NA
ATOM     22  O   UNL     1       4.030   7.239  17.109  0.00  0.00    +0.000 OA
ATOM     23  C   UNL     1       3.496   6.608  18.180  0.00  0.00    +0.000 A 
ATOM     24  C   UNL     1       2.502   7.132  19.061  0.00  0.00    +0.000 A 
ATOM     25  C   UNL     1       2.140   6.226  20.091  0.00  0.00    +0.000 A 
ATOM     26 CL   UNL     1       1.009   6.654  21.338  0.00  0.00    +0.000 Cl
ATOM     27  C   UNL     1       2.708   4.942  20.217  0.00  0.00    +0.000 A 
ATOM     28  C   UNL     1       3.683   4.485  19.336  0.00  0.00    +0.000 A 
ATOM     29  C   UNL     1       4.085   5.357  18.305  0.00  0.00    +0.000 A 
ATOM     30  H   UNL     1       5.938   3.566  17.815  0.00  0.00    +0.000 HD
ENDBRANCH   1  24
TORSDOF 1
ENDMDL
