MODEL 1
REMARK VINA RESULT:      -5.9      0.000      0.000
REMARK  Name = 
REMARK  0 active torsions:
REMARK  status: ('A' for Active; 'I' for Inactive)
REMARK                            x       y       z     vdW  Elec       q    Type
REMARK                         _______ _______ _______ _____ _____    ______ ____
ROOT
ATOM      1  O   UNL     1       4.942   1.800  20.536  0.00  0.00    +0.000 OA
ATOM      2  C   UNL     1       4.574   2.688  19.775  0.00  0.00    +0.000 C 
ATOM      3  N   UNL     1       5.454   3.460  19.029  0.00  0.00    +0.000 N 
ATOM      4  N   UNL     1       5.084   4.364  18.055  0.00  0.00    +0.000 NA
ATOM      5  C   UNL     1       3.825   4.450  17.765  0.00  0.00    +0.000 C 
ATOM      6  N   UNL     1       2.869   3.754  18.448  0.00  0.00    +0.000 N 
ATOM      7  C   UNL     1       1.523   3.687  18.137  0.00  0.00    +0.000 C 
ATOM      8  O   UNL     1       0.963   4.214  17.191  0.00  0.00    +0.000 OA
ATOM      9  C   UNL     1       0.849   2.853  19.199  0.00  0.00    +0.000 C 
ATOM     10  C   UNL     1       1.998   2.318  20.060  0.00  0.00    +0.000 C 
ATOM     11  C   UNL     1       3.157   3.249  19.756  0.00  0.00    +0.000 C 
ATOM     12  H   UNL     1       6.449   3.264  19.096  0.00  0.00    +0.000 HD
ENDROOT
TORSDOF 0
ENDMDL
MODEL 2
REMARK VINA RESULT:      -5.8      2.029      2.916
REMARK  Name = 
REMARK  0 active torsions:
REMARK  status: ('A' for Active; 'I' for Inactive)
REMARK                            x       y       z     vdW  Elec       q    Type
REMARK                         _______ _______ _______ _____ _____    ______ ____
ROOT
ATOM      1  O   UNL     1       4.414   4.789  17.813  0.00  0.00    +0.000 OA
ATOM      2  C   UNL     1       4.226   3.911  18.647  0.00  0.00    +0.000 C 
ATOM      3  N   UNL     1       5.232   3.066  19.098  0.00  0.00    +0.000 N 
ATOM      4  N   UNL     1       5.104   2.167  20.136  0.00  0.00    +0.000 NA
ATOM      5  C   UNL     1       3.983   2.158  20.785  0.00  0.00    +0.000 C 
ATOM      6  N   UNL     1       2.920   2.931  20.418  0.00  0.00    +0.000 N 
ATOM      7  C   UNL     1       1.734   3.079  21.114  0.00  0.00    +0.000 C 
ATOM      8  O   UNL     1       1.443   2.569  22.182  0.00  0.00    +0.000 OA
ATOM      9  C   UNL     1       0.836   3.979  20.300  0.00  0.00    +0.000 C 
ATOM     10  C   UNL     1       1.714   4.457  19.139  0.00  0.00    +0.000 C 
ATOM     11  C   UNL     1       2.843   3.445  19.084  0.00  0.00    +0.000 C 
ATOM     12  H   UNL     1       6.174   3.197  18.739  0.00  0.00    +0.000 HD
ENDROOT
TORSDOF 0
ENDMDL
MODEL 3
REMARK VINA RESULT:      -5.6      1.912      3.821
REMARK  Name = 
REMARK  0 active torsions:
REMARK  status: ('A' for Active; 'I' for Inactive)
REMARK                            x       y       z     vdW  Elec       q    Type
REMARK                         _______ _______ _______ _____ _____    ______ ____
ROOT
ATOM      1  O   UNL     1       0.117   2.171  18.436  0.00  0.00    +0.000 OA
ATOM      2  C   UNL     1       0.937   2.779  19.113  0.00  0.00    +0.000 C 
ATOM      3  N   UNL     1       0.772   3.018  20.471  0.00  0.00    +0.000 N 
ATOM      4  N   UNL     1       1.728   3.563  21.301  0.00  0.00    +0.000 NA
ATOM      5  C   UNL     1       2.894   3.807  20.792  0.00  0.00    +0.000 C 
ATOM      6  N   UNL     1       3.163   3.629  19.466  0.00  0.00    +0.000 N 
ATOM      7  C   UNL     1       4.400   3.745  18.857  0.00  0.00    +0.000 C 
ATOM      8  O   UNL     1       5.462   3.999  19.399  0.00  0.00    +0.000 OA
ATOM      9  C   UNL     1       4.204   3.519  17.377  0.00  0.00    +0.000 C 
ATOM     10  C   UNL     1       2.737   3.100  17.239  0.00  0.00    +0.000 C 
ATOM     11  C   UNL     1       2.088   3.584  18.523  0.00  0.00    +0.000 C 
ATOM     12  H   UNL     1      -0.057   2.651  20.931  0.00  0.00    +0.000 HD
ENDROOT
TORSDOF 0
ENDMDL
MODEL 4
REMARK VINA RESULT:      -5.6      1.898      1.949
REMARK  Name = 
REMARK  0 active torsions:
REMARK  status: ('A' for Active; 'I' for Inactive)
REMARK                            x       y       z     vdW  Elec       q    Type
REMARK                         _______ _______ _______ _____ _____    ______ ____
ROOT
ATOM      1  O   UNL     1       3.770   1.286  18.783  0.00  0.00    +0.000 OA
ATOM      2  C   UNL     1       4.001   2.433  19.146  0.00  0.00    +0.000 C 
ATOM      3  N   UNL     1       5.216   3.068  18.929  0.00  0.00    +0.000 N 
ATOM      4  N   UNL     1       5.472   4.399  19.184  0.00  0.00    +0.000 NA
ATOM      5  C   UNL     1       4.484   5.130  19.593  0.00  0.00    +0.000 C 
ATOM      6  N   UNL     1       3.251   4.609  19.860  0.00  0.00    +0.000 N 
ATOM      7  C   UNL     1       2.111   5.322  20.182  0.00  0.00    +0.000 C 
ATOM      8  O   UNL     1       2.002   6.534  20.258  0.00  0.00    +0.000 OA
ATOM      9  C   UNL     1       1.008   4.326  20.449  0.00  0.00    +0.000 C 
ATOM     10  C   UNL     1       1.614   2.968  20.081  0.00  0.00    +0.000 C 
ATOM     11  C   UNL     1       3.113   3.207  20.113  0.00  0.00    +0.000 C 
ATOM     12  H   UNL     1       5.942   2.567  18.422  0.00  0.00    +0.000 HD
ENDROOT
TORSDOF 0
ENDMDL
MODEL 5
REMARK VINA RESULT:      -5.5      3.302      4.506
REMARK  Name = 
REMARK  0 active torsions:
REMARK  status: ('A' for Active; 'I' for Inactive)
REMARK                            x       y       z     vdW  Elec       q    Type
REMARK                         _______ _______ _______ _____ _____    ______ ____
ROOT
ATOM      1  O   UNL     1       4.300   3.257  18.893  0.00  0.00    +0.000 OA
ATOM      2  C   UNL     1       5.212   4.003  18.556  0.00  0.00    +0.000 C 
ATOM      3  N   UNL     1       6.176   4.470  19.439  0.00  0.00    +0.000 N 
ATOM      4  N   UNL     1       7.299   5.186  19.080  0.00  0.00    +0.000 NA
ATOM      5  C   UNL     1       7.507   5.378  17.816  0.00  0.00    +0.000 C 
ATOM      6  N   UNL     1       6.616   4.981  16.861  0.00  0.00    +0.000 N 
ATOM      7  C   UNL     1       6.804   5.033  15.491  0.00  0.00    +0.000 C 
ATOM      8  O   UNL     1       7.801   5.417  14.903  0.00  0.00    +0.000 OA
ATOM      9  C   UNL     1       5.535   4.546  14.836  0.00  0.00    +0.000 C 
ATOM     10  C   UNL     1       4.662   4.056  15.997  0.00  0.00    +0.000 C 
ATOM     11  C   UNL     1       5.253   4.734  17.219  0.00  0.00    +0.000 C 
ATOM     12  H   UNL     1       6.140   4.159  20.406  0.00  0.00    +0.000 HD
ENDROOT
TORSDOF 0
ENDMDL
MODEL 6
REMARK VINA RESULT:      -5.5      3.577      5.694
REMARK  Name = 
REMARK  0 active torsions:
REMARK  status: ('A' for Active; 'I' for Inactive)
REMARK                            x       y       z     vdW  Elec       q    Type
REMARK                         _______ _______ _______ _____ _____    ______ ____
ROOT
ATOM      1  O   UNL     1       5.482   6.260  15.199  0.00  0.00    +0.000 OA
ATOM      2  C   UNL     1       5.412   5.860  16.356  0.00  0.00    +0.000 C 
ATOM      3  N   UNL     1       4.493   4.907  16.774  0.00  0.00    +0.000 N 
ATOM      4  N   UNL     1       4.473   4.320  18.022  0.00  0.00    +0.000 NA
ATOM      5  C   UNL     1       5.425   4.628  18.843  0.00  0.00    +0.000 C 
ATOM      6  N   UNL     1       6.371   5.566  18.546  0.00  0.00    +0.000 N 
ATOM      7  C   UNL     1       7.488   5.874  19.302  0.00  0.00    +0.000 C 
ATOM      8  O   UNL     1       7.834   5.347  20.345  0.00  0.00    +0.000 OA
ATOM      9  C   UNL     1       8.208   7.008  18.614  0.00  0.00    +0.000 C 
ATOM     10  C   UNL     1       7.458   7.199  17.291  0.00  0.00    +0.000 C 
ATOM     11  C   UNL     1       6.112   6.537  17.527  0.00  0.00    +0.000 C 
ATOM     12  H   UNL     1       3.864   4.504  16.085  0.00  0.00    +0.000 HD
ENDROOT
TORSDOF 0
ENDMDL
MODEL 7
REMARK VINA RESULT:      -5.5      2.164      3.164
REMARK  Name = 
REMARK  0 active torsions:
REMARK  status: ('A' for Active; 'I' for Inactive)
REMARK                            x       y       z     vdW  Elec       q    Type
REMARK                         _______ _______ _______ _____ _____    ______ ____
ROOT
ATOM      1  O   UNL     1       0.105   2.030  18.774  0.00  0.00    +0.000 OA
ATOM      2  C   UNL     1       1.302   2.290  18.794  0.00  0.00    +0.000 C 
ATOM      3  N   UNL     1       2.243   1.588  18.052  0.00  0.00    +0.000 N 
ATOM      4  N   UNL     1       3.572   1.936  17.926  0.00  0.00    +0.000 NA
ATOM      5  C   UNL     1       3.957   3.039  18.485  0.00  0.00    +0.000 C 
ATOM      6  N   UNL     1       3.123   3.799  19.254  0.00  0.00    +0.000 N 
ATOM      7  C   UNL     1       3.405   5.043  19.787  0.00  0.00    +0.000 C 
ATOM      8  O   UNL     1       4.432   5.686  19.644  0.00  0.00    +0.000 OA
ATOM      9  C   UNL     1       2.214   5.469  20.610  0.00  0.00    +0.000 C 
ATOM     10  C   UNL     1       1.156   4.392  20.348  0.00  0.00    +0.000 C 
ATOM     11  C   UNL     1       1.949   3.210  19.822  0.00  0.00    +0.000 C 
ATOM     12  H   UNL     1       1.922   0.839  17.445  0.00  0.00    +0.000 HD
ENDROOT
TORSDOF 0
ENDMDL
MODEL 8
REMARK VINA RESULT:      -5.4      1.772      2.470
REMARK  Name = 
REMARK  0 active torsions:
REMARK  status: ('A' for Active; 'I' for Inactive)
REMARK                            x       y       z     vdW  Elec       q    Type
REMARK                         _______ _______ _______ _____ _____    ______ ____
ROOT
ATOM      1  O   UNL     1       5.493   5.404  18.825  0.00  0.00    +0.000 OA
ATOM      2  C   UNL     1       4.888   4.342  18.910  0.00  0.00    +0.000 C 
ATOM      3  N   UNL     1       5.391   3.234  19.579  0.00  0.00    +0.000 N 
ATOM      4  N   UNL     1       4.690   2.073  19.828  0.00  0.00    +0.000 NA
ATOM      5  C   UNL     1       3.445   2.038  19.472  0.00  0.00    +0.000 C 
ATOM      6  N   UNL     1       2.851   3.061  18.791  0.00  0.00    +0.000 N 
ATOM      7  C   UNL     1       1.508   3.168  18.477  0.00  0.00    +0.000 C 
ATOM      8  O   UNL     1       0.623   2.384  18.774  0.00  0.00    +0.000 OA
ATOM      9  C   UNL     1       1.326   4.431  17.671  0.00  0.00    +0.000 C 
ATOM     10  C   UNL     1       2.697   5.115  17.704  0.00  0.00    +0.000 C 
ATOM     11  C   UNL     1       3.659   4.002  18.076  0.00  0.00    +0.000 C 
ATOM     12  H   UNL     1       6.293   3.315  20.042  0.00  0.00    +0.000 HD
ENDROOT
TORSDOF 0
ENDMDL
MODEL 9
REMARK VINA RESULT:      -5.4      1.677      1.952
REMARK  Name = 
REMARK  0 active torsions:
REMARK  status: ('A' for Active; 'I' for Inactive)
REMARK                            x       y       z     vdW  Elec       q    Type
REMARK                         _______ _______ _______ _____ _____    ______ ____
ROOT
ATOM      1  O   UNL     1       3.686   1.137  18.646  0.00  0.00    +0.000 OA
ATOM      2  C   UNL     1       3.964   2.305  18.892  0.00  0.00    +0.000 C 
ATOM      3  N   UNL     1       5.204   2.705  19.370  0.00  0.00    +0.000 N 
ATOM      4  N   UNL     1       5.611   4.014  19.520  0.00  0.00    +0.000 NA
ATOM      5  C   UNL     1       4.800   4.942  19.120  0.00  0.00    +0.000 C 
ATOM      6  N   UNL     1       3.548   4.665  18.653  0.00  0.00    +0.000 N 
ATOM      7  C   UNL     1       2.662   5.569  18.094  0.00  0.00    +0.000 C 
ATOM      8  O   UNL     1       2.854   6.758  17.901  0.00  0.00    +0.000 OA
ATOM      9  C   UNL     1       1.387   4.826  17.779  0.00  0.00    +0.000 C 
ATOM     10  C   UNL     1       1.711   3.357  18.074  0.00  0.00    +0.000 C 
ATOM     11  C   UNL     1       2.927   3.418  18.979  0.00  0.00    +0.000 C 
ATOM     12  H   UNL     1       5.926   2.000  19.498  0.00  0.00    +0.000 HD
ENDROOT
TORSDOF 0
ENDMDL
