MODEL 1
REMARK VINA RESULT:      -6.5      0.000      0.000
REMARK  Name = 
REMARK  8 active torsions:
REMARK  status: ('A' for Active; 'I' for Inactive)
REMARK    1  A    between atoms: C_1  and  O_2
REMARK    2  A    between atoms: O_2  and  C_3
REMARK    3  A    between atoms: C_3  and  C_4
REMARK    4  A    between atoms: C_9  and  C_10
REMARK    5  A    between atoms: C_12  and  N_13
REMARK    6  A    between atoms: N_13  and  C_14
REMARK    7  A    between atoms: N_13  and  C_15
REMARK    8  A    between atoms: C_17  and  C_18
REMARK                            x       y       z     vdW  Elec       q    Type
REMARK                         _______ _______ _______ _____ _____    ______ ____
ROOT
ATOM      1  C   UNL     1       3.071   6.423  17.848  0.00  0.00    +0.000 C 
ATOM      2  O   UNL     1       2.093   5.745  18.158  0.00  0.00    +0.000 OA
ATOM      3  N   UNL     1       4.178   5.885  17.198  0.00  0.00    +0.000 N 
ATOM      4  C   UNL     1       4.050   4.564  16.594  0.00  0.00    +0.000 C 
ATOM      5  C   UNL     1       5.325   3.745  16.754  0.00  0.00    +0.000 C 
ATOM      6  C   UNL     1       6.594   4.496  16.327  0.00  0.00    +0.000 C 
ATOM      7  C   UNL     1       6.627   5.910  16.918  0.00  0.00    +0.000 C 
ATOM      8  C   UNL     1       5.320   6.677  16.736  0.00  0.00    +0.000 C 
ENDROOT
BRANCH   6   9
ATOM      9  C   UNL     1       6.804   4.494  14.822  0.00  0.00    +0.000 A 
ATOM     10  C   UNL     1       6.063   3.623  14.022  0.00  0.00    +0.000 A 
ATOM     11  C   UNL     1       6.223   3.602  12.632  0.00  0.00    +0.000 A 
ATOM     12  C   UNL     1       7.175   4.484  12.115  0.00  0.00    +0.000 A 
ATOM     13  C   UNL     1       7.893   5.328  12.962  0.00  0.00    +0.000 A 
ATOM     14  C   UNL     1       8.908   6.288  12.415  0.00  0.00    +0.000 C 
ATOM     15  N   UNL     1       7.717   5.340  14.302  0.00  0.00    +0.000 NA
BRANCH  11  16
ATOM     16  N   UNL     1       5.473   2.765  11.823  0.00  0.00    +0.000 N 
ATOM     17  C   UNL     1       4.145   3.135  11.347  0.00  0.00    +0.000 C 
ATOM     18  C   UNL     1       5.935   1.436  11.436  0.00  0.00    +0.000 C 
ENDBRANCH  11  16
ENDBRANCH   6   9
BRANCH   1  19
ATOM     19  C   UNL     1       3.083   7.926  18.172  0.00  0.00    +0.000 C 
BRANCH  19  21
ATOM     20  C   UNL     1       1.339   9.508  18.019  0.00  0.00    +0.000 C 
ATOM     21  O   UNL     1       2.309   8.746  17.306  0.00  0.00    +0.000 OA
ENDBRANCH  19  21
ENDBRANCH   1  19
TORSDOF 4
ENDMDL
MODEL 2
REMARK VINA RESULT:      -6.1      3.043      7.485
REMARK  Name = 
REMARK  8 active torsions:
REMARK  status: ('A' for Active; 'I' for Inactive)
REMARK    1  A    between atoms: C_1  and  O_2
REMARK    2  A    between atoms: O_2  and  C_3
REMARK    3  A    between atoms: C_3  and  C_4
REMARK    4  A    between atoms: C_9  and  C_10
REMARK    5  A    between atoms: C_12  and  N_13
REMARK    6  A    between atoms: N_13  and  C_14
REMARK    7  A    between atoms: N_13  and  C_15
REMARK    8  A    between atoms: C_17  and  C_18
REMARK                            x       y       z     vdW  Elec       q    Type
REMARK                         _______ _______ _______ _____ _____    ______ ____
ROOT
ATOM      1  C   UNL     1       6.298   4.765  14.765  0.00  0.00    +0.000 C 
ATOM      2  O   UNL     1       6.874   5.723  14.251  0.00  0.00    +0.000 OA
ATOM      3  N   UNL     1       5.852   4.780  16.084  0.00  0.00    +0.000 N 
ATOM      4  C   UNL     1       5.786   6.063  16.775  0.00  0.00    +0.000 C 
ATOM      5  C   UNL     1       6.189   5.935  18.239  0.00  0.00    +0.000 C 
ATOM      6  C   UNL     1       5.468   4.799  18.978  0.00  0.00    +0.000 C 
ATOM      7  C   UNL     1       5.492   3.502  18.161  0.00  0.00    +0.000 C 
ATOM      8  C   UNL     1       5.088   3.695  16.702  0.00  0.00    +0.000 C 
ENDROOT
BRANCH   6   9
ATOM      9  C   UNL     1       4.064   5.179  19.418  0.00  0.00    +0.000 A 
ATOM     10  C   UNL     1       3.615   6.489  19.241  0.00  0.00    +0.000 A 
ATOM     11  C   UNL     1       2.324   6.870  19.626  0.00  0.00    +0.000 A 
ATOM     12  C   UNL     1       1.540   5.870  20.206  0.00  0.00    +0.000 A 
ATOM     13  C   UNL     1       2.043   4.579  20.366  0.00  0.00    +0.000 A 
ATOM     14  C   UNL     1       1.204   3.495  20.975  0.00  0.00    +0.000 C 
ATOM     15  N   UNL     1       3.289   4.227  19.979  0.00  0.00    +0.000 NA
BRANCH  11  16
ATOM     16  N   UNL     1       1.854   8.157  19.428  0.00  0.00    +0.000 N 
ATOM     17  C   UNL     1       1.158   8.896  20.476  0.00  0.00    +0.000 C 
ATOM     18  C   UNL     1       1.974   8.843  18.145  0.00  0.00    +0.000 C 
ENDBRANCH  11  16
ENDBRANCH   6   9
BRANCH   1  19
ATOM     19  C   UNL     1       6.042   3.500  13.931  0.00  0.00    +0.000 C 
BRANCH  19  21
ATOM     20  C   UNL     1       5.057   3.159  11.814  0.00  0.00    +0.000 C 
ATOM     21  O   UNL     1       6.189   3.652  12.524  0.00  0.00    +0.000 OA
ENDBRANCH  19  21
ENDBRANCH   1  19
TORSDOF 4
ENDMDL
MODEL 3
REMARK VINA RESULT:      -5.9      0.949      1.054
REMARK  Name = 
REMARK  8 active torsions:
REMARK  status: ('A' for Active; 'I' for Inactive)
REMARK    1  A    between atoms: C_1  and  O_2
REMARK    2  A    between atoms: O_2  and  C_3
REMARK    3  A    between atoms: C_3  and  C_4
REMARK    4  A    between atoms: C_9  and  C_10
REMARK    5  A    between atoms: C_12  and  N_13
REMARK    6  A    between atoms: N_13  and  C_14
REMARK    7  A    between atoms: N_13  and  C_15
REMARK    8  A    between atoms: C_17  and  C_18
REMARK                            x       y       z     vdW  Elec       q    Type
REMARK                         _______ _______ _______ _____ _____    ______ ____
ROOT
ATOM      1  C   UNL     1       2.723   5.487  17.826  0.00  0.00    +0.000 C 
ATOM      2  O   UNL     1       1.990   4.568  18.188  0.00  0.00    +0.000 OA
ATOM      3  N   UNL     1       3.939   5.267  17.185  0.00  0.00    +0.000 N 
ATOM      4  C   UNL     1       4.207   3.935  16.654  0.00  0.00    +0.000 C 
ATOM      5  C   UNL     1       5.668   3.541  16.834  0.00  0.00    +0.000 C 
ATOM      6  C   UNL     1       6.657   4.608  16.346  0.00  0.00    +0.000 C 
ATOM      7  C   UNL     1       6.270   6.000  16.861  0.00  0.00    +0.000 C 
ATOM      8  C   UNL     1       4.794   6.334  16.663  0.00  0.00    +0.000 C 
ENDROOT
BRANCH   6   9
ATOM      9  C   UNL     1       6.856   4.586  14.839  0.00  0.00    +0.000 A 
ATOM     10  C   UNL     1       6.077   3.735  14.053  0.00  0.00    +0.000 A 
ATOM     11  C   UNL     1       6.227   3.696  12.662  0.00  0.00    +0.000 A 
ATOM     12  C   UNL     1       7.206   4.538  12.130  0.00  0.00    +0.000 A 
ATOM     13  C   UNL     1       7.961   5.363  12.964  0.00  0.00    +0.000 A 
ATOM     14  C   UNL     1       9.006   6.280  12.402  0.00  0.00    +0.000 C 
ATOM     15  N   UNL     1       7.795   5.393  14.305  0.00  0.00    +0.000 NA
BRANCH  11  16
ATOM     16  N   UNL     1       5.441   2.880  11.866  0.00  0.00    +0.000 N 
ATOM     17  C   UNL     1       4.113   3.283  11.418  0.00  0.00    +0.000 C 
ATOM     18  C   UNL     1       5.863   1.542  11.465  0.00  0.00    +0.000 C 
ENDBRANCH  11  16
ENDBRANCH   6   9
BRANCH   1  19
ATOM     19  C   UNL     1       2.289   6.942  18.070  0.00  0.00    +0.000 C 
BRANCH  19  21
ATOM     20  C   UNL     1       1.824   7.049  20.381  0.00  0.00    +0.000 C 
ATOM     21  O   UNL     1       2.670   7.493  19.325  0.00  0.00    +0.000 OA
ENDBRANCH  19  21
ENDBRANCH   1  19
TORSDOF 4
ENDMDL
MODEL 4
REMARK VINA RESULT:      -5.8      3.300      7.543
REMARK  Name = 
REMARK  8 active torsions:
REMARK  status: ('A' for Active; 'I' for Inactive)
REMARK    1  A    between atoms: C_1  and  O_2
REMARK    2  A    between atoms: O_2  and  C_3
REMARK    3  A    between atoms: C_3  and  C_4
REMARK    4  A    between atoms: C_9  and  C_10
REMARK    5  A    between atoms: C_12  and  N_13
REMARK    6  A    between atoms: N_13  and  C_14
REMARK    7  A    between atoms: N_13  and  C_15
REMARK    8  A    between atoms: C_17  and  C_18
REMARK                            x       y       z     vdW  Elec       q    Type
REMARK                         _______ _______ _______ _____ _____    ______ ____
ROOT
ATOM      1  C   UNL     1       6.644   5.403  15.544  0.00  0.00    +0.000 C 
ATOM      2  O   UNL     1       7.605   6.161  15.663  0.00  0.00    +0.000 OA
ATOM      3  N   UNL     1       5.970   4.871  16.640  0.00  0.00    +0.000 N 
ATOM      4  C   UNL     1       6.208   5.465  17.951  0.00  0.00    +0.000 C 
ATOM      5  C   UNL     1       6.235   4.410  19.050  0.00  0.00    +0.000 C 
ATOM      6  C   UNL     1       5.033   3.457  19.016  0.00  0.00    +0.000 C 
ATOM      7  C   UNL     1       4.777   2.938  17.596  0.00  0.00    +0.000 C 
ATOM      8  C   UNL     1       4.771   4.037  16.538  0.00  0.00    +0.000 C 
ENDROOT
BRANCH   6   9
ATOM      9  C   UNL     1       3.786   4.054  19.646  0.00  0.00    +0.000 A 
ATOM     10  C   UNL     1       3.493   5.405  19.450  0.00  0.00    +0.000 A 
ATOM     11  C   UNL     1       2.348   5.987  20.007  0.00  0.00    +0.000 A 
ATOM     12  C   UNL     1       1.546   5.139  20.774  0.00  0.00    +0.000 A 
ATOM     13  C   UNL     1       1.890   3.798  20.943  0.00  0.00    +0.000 A 
ATOM     14  C   UNL     1       1.028   2.876  21.753  0.00  0.00    +0.000 C 
ATOM     15  N   UNL     1       2.996   3.252  20.388  0.00  0.00    +0.000 NA
BRANCH  11  16
ATOM     16  N   UNL     1       2.029   7.317  19.796  0.00  0.00    +0.000 N 
ATOM     17  C   UNL     1       2.329   7.996  18.541  0.00  0.00    +0.000 C 
ATOM     18  C   UNL     1       1.421   8.146  20.833  0.00  0.00    +0.000 C 
ENDBRANCH  11  16
ENDBRANCH   6   9
BRANCH   1  19
ATOM     19  C   UNL     1       6.145   5.028  14.138  0.00  0.00    +0.000 C 
BRANCH  19  21
ATOM     20  C   UNL     1       5.911   3.317  12.531  0.00  0.00    +0.000 C 
ATOM     21  O   UNL     1       6.714   3.851  13.579  0.00  0.00    +0.000 OA
ENDBRANCH  19  21
ENDBRANCH   1  19
TORSDOF 4
ENDMDL
MODEL 5
REMARK VINA RESULT:      -5.7      3.073      6.959
REMARK  Name = 
REMARK  8 active torsions:
REMARK  status: ('A' for Active; 'I' for Inactive)
REMARK    1  A    between atoms: C_1  and  O_2
REMARK    2  A    between atoms: O_2  and  C_3
REMARK    3  A    between atoms: C_3  and  C_4
REMARK    4  A    between atoms: C_9  and  C_10
REMARK    5  A    between atoms: C_12  and  N_13
REMARK    6  A    between atoms: N_13  and  C_14
REMARK    7  A    between atoms: N_13  and  C_15
REMARK    8  A    between atoms: C_17  and  C_18
REMARK                            x       y       z     vdW  Elec       q    Type
REMARK                         _______ _______ _______ _____ _____    ______ ____
ROOT
ATOM      1  C   UNL     1       6.914   4.812  13.765  0.00  0.00    +0.000 C 
ATOM      2  O   UNL     1       7.438   5.760  13.183  0.00  0.00    +0.000 OA
ATOM      3  N   UNL     1       6.466   4.897  15.081  0.00  0.00    +0.000 N 
ATOM      4  C   UNL     1       6.330   6.221  15.679  0.00  0.00    +0.000 C 
ATOM      5  C   UNL     1       6.738   6.220  17.147  0.00  0.00    +0.000 C 
ATOM      6  C   UNL     1       6.078   5.104  17.967  0.00  0.00    +0.000 C 
ATOM      7  C   UNL     1       6.173   3.754  17.245  0.00  0.00    +0.000 C 
ATOM      8  C   UNL     1       5.762   3.819  15.777  0.00  0.00    +0.000 C 
ENDROOT
BRANCH   6   9
ATOM      9  C   UNL     1       4.654   5.437  18.382  0.00  0.00    +0.000 A 
ATOM     10  C   UNL     1       3.909   4.502  19.104  0.00  0.00    +0.000 A 
ATOM     11  C   UNL     1       2.599   4.779  19.510  0.00  0.00    +0.000 A 
ATOM     12  C   UNL     1       2.093   6.026  19.132  0.00  0.00    +0.000 A 
ATOM     13  C   UNL     1       2.880   6.918  18.404  0.00  0.00    +0.000 A 
ATOM     14  C   UNL     1       2.352   8.263  18.005  0.00  0.00    +0.000 C 
ATOM     15  N   UNL     1       4.148   6.636  18.029  0.00  0.00    +0.000 NA
BRANCH  11  16
ATOM     16  N   UNL     1       1.858   3.876  20.253  0.00  0.00    +0.000 N 
ATOM     17  C   UNL     1       2.154   3.599  21.654  0.00  0.00    +0.000 C 
ATOM     18  C   UNL     1       0.768   3.098  19.672  0.00  0.00    +0.000 C 
ENDBRANCH  11  16
ENDBRANCH   6   9
BRANCH   1  19
ATOM     19  C   UNL     1       6.729   3.478  13.025  0.00  0.00    +0.000 C 
BRANCH  19  21
ATOM     20  C   UNL     1       5.513   2.154  11.497  0.00  0.00    +0.000 C 
ATOM     21  O   UNL     1       5.563   3.382  12.216  0.00  0.00    +0.000 OA
ENDBRANCH  19  21
ENDBRANCH   1  19
TORSDOF 4
ENDMDL
MODEL 6
REMARK VINA RESULT:      -5.6      3.344      7.140
REMARK  Name = 
REMARK  8 active torsions:
REMARK  status: ('A' for Active; 'I' for Inactive)
REMARK    1  A    between atoms: C_1  and  O_2
REMARK    2  A    between atoms: O_2  and  C_3
REMARK    3  A    between atoms: C_3  and  C_4
REMARK    4  A    between atoms: C_9  and  C_10
REMARK    5  A    between atoms: C_12  and  N_13
REMARK    6  A    between atoms: N_13  and  C_14
REMARK    7  A    between atoms: N_13  and  C_15
REMARK    8  A    between atoms: C_17  and  C_18
REMARK                            x       y       z     vdW  Elec       q    Type
REMARK                         _______ _______ _______ _____ _____    ______ ____
ROOT
ATOM      1  C   UNL     1       6.256   4.899  14.398  0.00  0.00    +0.000 C 
ATOM      2  O   UNL     1       6.513   5.894  13.724  0.00  0.00    +0.000 OA
ATOM      3  N   UNL     1       5.905   4.977  15.744  0.00  0.00    +0.000 N 
ATOM      4  C   UNL     1       5.532   6.279  16.285  0.00  0.00    +0.000 C 
ATOM      5  C   UNL     1       6.045   6.465  17.708  0.00  0.00    +0.000 C 
ATOM      6  C   UNL     1       5.710   5.293  18.640  0.00  0.00    +0.000 C 
ATOM      7  C   UNL     1       6.038   3.948  17.980  0.00  0.00    +0.000 C 
ATOM      8  C   UNL     1       5.508   3.824  16.554  0.00  0.00    +0.000 C 
ENDROOT
BRANCH   6   9
ATOM      9  C   UNL     1       4.286   5.344  19.166  0.00  0.00    +0.000 A 
ATOM     10  C   UNL     1       3.626   4.157  19.490  0.00  0.00    +0.000 A 
ATOM     11  C   UNL     1       2.317   4.168  19.987  0.00  0.00    +0.000 A 
ATOM     12  C   UNL     1       1.724   5.426  20.113  0.00  0.00    +0.000 A 
ATOM     13  C   UNL     1       2.427   6.580  19.767  0.00  0.00    +0.000 A 
ATOM     14  C   UNL     1       1.804   7.936  19.912  0.00  0.00    +0.000 C 
ATOM     15  N   UNL     1       3.695   6.549  19.298  0.00  0.00    +0.000 NA
BRANCH  11  16
ATOM     16  N   UNL     1       1.662   3.002  20.341  0.00  0.00    +0.000 N 
ATOM     17  C   UNL     1       1.352   2.680  21.730  0.00  0.00    +0.000 C 
ATOM     18  C   UNL     1       1.284   1.990  19.359  0.00  0.00    +0.000 C 
ENDBRANCH  11  16
ENDBRANCH   6   9
BRANCH   1  19
ATOM     19  C   UNL     1       6.306   3.508  13.745  0.00  0.00    +0.000 C 
BRANCH  19  21
ATOM     20  C   UNL     1       5.462   2.543  11.764  0.00  0.00    +0.000 C 
ATOM     21  O   UNL     1       6.357   3.499  12.324  0.00  0.00    +0.000 OA
ENDBRANCH  19  21
ENDBRANCH   1  19
TORSDOF 4
ENDMDL
MODEL 7
REMARK VINA RESULT:      -5.6      3.960      8.366
REMARK  Name = 
REMARK  8 active torsions:
REMARK  status: ('A' for Active; 'I' for Inactive)
REMARK    1  A    between atoms: C_1  and  O_2
REMARK    2  A    between atoms: O_2  and  C_3
REMARK    3  A    between atoms: C_3  and  C_4
REMARK    4  A    between atoms: C_9  and  C_10
REMARK    5  A    between atoms: C_12  and  N_13
REMARK    6  A    between atoms: N_13  and  C_14
REMARK    7  A    between atoms: N_13  and  C_15
REMARK    8  A    between atoms: C_17  and  C_18
REMARK                            x       y       z     vdW  Elec       q    Type
REMARK                         _______ _______ _______ _____ _____    ______ ____
ROOT
ATOM      1  C   UNL     1       5.596   4.807  19.060  0.00  0.00    +0.000 C 
ATOM      2  O   UNL     1       5.353   3.695  19.525  0.00  0.00    +0.000 OA
ATOM      3  N   UNL     1       4.596   5.727  18.758  0.00  0.00    +0.000 N 
ATOM      4  C   UNL     1       3.259   5.493  19.293  0.00  0.00    +0.000 C 
ATOM      5  C   UNL     1       2.176   5.890  18.296  0.00  0.00    +0.000 C 
ATOM      6  C   UNL     1       2.367   7.295  17.711  0.00  0.00    +0.000 C 
ATOM      7  C   UNL     1       3.813   7.514  17.251  0.00  0.00    +0.000 C 
ATOM      8  C   UNL     1       4.852   7.089  18.286  0.00  0.00    +0.000 C 
ENDROOT
BRANCH   6   9
ATOM      9  C   UNL     1       1.886   8.395  18.643  0.00  0.00    +0.000 A 
ATOM     10  C   UNL     1       1.776   9.703  18.169  0.00  0.00    +0.000 A 
ATOM     11  C   UNL     1       1.328  10.739  18.997  0.00  0.00    +0.000 A 
ATOM     12  C   UNL     1       1.023  10.379  20.312  0.00  0.00    +0.000 A 
ATOM     13  C   UNL     1       1.158   9.056  20.735  0.00  0.00    +0.000 A 
ATOM     14  C   UNL     1       0.821   8.658  22.140  0.00  0.00    +0.000 C 
ATOM     15  N   UNL     1       1.584   8.068  19.917  0.00  0.00    +0.000 NA
BRANCH  11  16
ATOM     16  N   UNL     1       1.184  12.035  18.533  0.00  0.00    +0.000 N 
ATOM     17  C   UNL     1      -0.120  12.678  18.425  0.00  0.00    +0.000 C 
ATOM     18  C   UNL     1       2.320  12.826  18.069  0.00  0.00    +0.000 C 
ENDBRANCH  11  16
ENDBRANCH   6   9
BRANCH   1  19
ATOM     19  C   UNL     1       7.055   5.218  18.805  0.00  0.00    +0.000 C 
BRANCH  19  21
ATOM     20  C   UNL     1       7.196   4.467  16.573  0.00  0.00    +0.000 C 
ATOM     21  O   UNL     1       7.768   4.410  17.877  0.00  0.00    +0.000 OA
ENDBRANCH  19  21
ENDBRANCH   1  19
TORSDOF 4
ENDMDL
MODEL 8
REMARK VINA RESULT:      -5.6      3.114      6.758
REMARK  Name = 
REMARK  8 active torsions:
REMARK  status: ('A' for Active; 'I' for Inactive)
REMARK    1  A    between atoms: C_1  and  O_2
REMARK    2  A    between atoms: O_2  and  C_3
REMARK    3  A    between atoms: C_3  and  C_4
REMARK    4  A    between atoms: C_9  and  C_10
REMARK    5  A    between atoms: C_12  and  N_13
REMARK    6  A    between atoms: N_13  and  C_14
REMARK    7  A    between atoms: N_13  and  C_15
REMARK    8  A    between atoms: C_17  and  C_18
REMARK                            x       y       z     vdW  Elec       q    Type
REMARK                         _______ _______ _______ _____ _____    ______ ____
ROOT
ATOM      1  C   UNL     1       7.360   5.040  13.142  0.00  0.00    +0.000 C 
ATOM      2  O   UNL     1       8.274   5.854  13.022  0.00  0.00    +0.000 OA
ATOM      3  N   UNL     1       6.738   4.788  14.362  0.00  0.00    +0.000 N 
ATOM      4  C   UNL     1       6.959   5.726  15.456  0.00  0.00    +0.000 C 
ATOM      5  C   UNL     1       7.069   5.011  16.798  0.00  0.00    +0.000 C 
ATOM      6  C   UNL     1       5.928   4.019  17.060  0.00  0.00    +0.000 C 
ATOM      7  C   UNL     1       5.682   3.122  15.840  0.00  0.00    +0.000 C 
ATOM      8  C   UNL     1       5.592   3.893  14.526  0.00  0.00    +0.000 C 
ENDROOT
BRANCH   6   9
ATOM      9  C   UNL     1       4.656   4.695  17.545  0.00  0.00    +0.000 A 
ATOM     10  C   UNL     1       3.658   3.932  18.153  0.00  0.00    +0.000 A 
ATOM     11  C   UNL     1       2.478   4.522  18.621  0.00  0.00    +0.000 A 
ATOM     12  C   UNL     1       2.365   5.900  18.419  0.00  0.00    +0.000 A 
ATOM     13  C   UNL     1       3.391   6.612  17.798  0.00  0.00    +0.000 A 
ATOM     14  C   UNL     1       3.285   8.093  17.589  0.00  0.00    +0.000 C 
ATOM     15  N   UNL     1       4.527   6.025  17.362  0.00  0.00    +0.000 NA
BRANCH  11  16
ATOM     16  N   UNL     1       1.493   3.784  19.254  0.00  0.00    +0.000 N 
ATOM     17  C   UNL     1       0.969   4.156  20.563  0.00  0.00    +0.000 C 
ATOM     18  C   UNL     1       0.952   2.555  18.683  0.00  0.00    +0.000 C 
ENDBRANCH  11  16
ENDBRANCH   6   9
BRANCH   1  19
ATOM     19  C   UNL     1       6.864   4.272  11.906  0.00  0.00    +0.000 C 
BRANCH  19  21
ATOM     20  C   UNL     1       5.979   2.128  11.478  0.00  0.00    +0.000 C 
ATOM     21  O   UNL     1       7.113   2.872  11.913  0.00  0.00    +0.000 OA
ENDBRANCH  19  21
ENDBRANCH   1  19
TORSDOF 4
ENDMDL
MODEL 9
REMARK VINA RESULT:      -5.5      2.896      5.083
REMARK  Name = 
REMARK  8 active torsions:
REMARK  status: ('A' for Active; 'I' for Inactive)
REMARK    1  A    between atoms: C_1  and  O_2
REMARK    2  A    between atoms: O_2  and  C_3
REMARK    3  A    between atoms: C_3  and  C_4
REMARK    4  A    between atoms: C_9  and  C_10
REMARK    5  A    between atoms: C_12  and  N_13
REMARK    6  A    between atoms: N_13  and  C_14
REMARK    7  A    between atoms: N_13  and  C_15
REMARK    8  A    between atoms: C_17  and  C_18
REMARK                            x       y       z     vdW  Elec       q    Type
REMARK                         _______ _______ _______ _____ _____    ______ ____
ROOT
ATOM      1  C   UNL     1       1.847   4.542  20.499  0.00  0.00    +0.000 C 
ATOM      2  O   UNL     1       0.769   5.115  20.355  0.00  0.00    +0.000 OA
ATOM      3  N   UNL     1       2.662   4.198  19.424  0.00  0.00    +0.000 N 
ATOM      4  C   UNL     1       2.384   4.803  18.126  0.00  0.00    +0.000 C 
ATOM      5  C   UNL     1       2.609   3.817  16.986  0.00  0.00    +0.000 C 
ATOM      6  C   UNL     1       3.964   3.100  17.052  0.00  0.00    +0.000 C 
ATOM      7  C   UNL     1       4.241   2.567  18.463  0.00  0.00    +0.000 C 
ATOM      8  C   UNL     1       3.989   3.594  19.563  0.00  0.00    +0.000 C 
ENDROOT
BRANCH   6   9
ATOM      9  C   UNL     1       5.108   3.947  16.521  0.00  0.00    +0.000 A 
ATOM     10  C   UNL     1       5.750   4.850  17.370  0.00  0.00    +0.000 A 
ATOM     11  C   UNL     1       6.814   5.639  16.917  0.00  0.00    +0.000 A 
ATOM     12  C   UNL     1       7.166   5.476  15.575  0.00  0.00    +0.000 A 
ATOM     13  C   UNL     1       6.484   4.563  14.769  0.00  0.00    +0.000 A 
ATOM     14  C   UNL     1       6.863   4.371  13.331  0.00  0.00    +0.000 C 
ATOM     15  N   UNL     1       5.465   3.803  15.228  0.00  0.00    +0.000 NA
BRANCH  11  16
ATOM     16  N   UNL     1       7.481   6.516  17.755  0.00  0.00    +0.000 N 
ATOM     17  C   UNL     1       7.989   6.105  19.058  0.00  0.00    +0.000 C 
ATOM     18  C   UNL     1       7.673   7.923  17.417  0.00  0.00    +0.000 C 
ENDBRANCH  11  16
ENDBRANCH   6   9
BRANCH   1  19
ATOM     19  C   UNL     1       2.336   4.195  21.915  0.00  0.00    +0.000 C 
BRANCH  19  21
ATOM     20  C   UNL     1       1.182   2.139  22.009  0.00  0.00    +0.000 C 
ATOM     21  O   UNL     1       2.424   2.807  22.211  0.00  0.00    +0.000 OA
ENDBRANCH  19  21
ENDBRANCH   1  19
TORSDOF 4
ENDMDL
