MODEL 1
REMARK VINA RESULT:      -5.4      0.000      0.000
REMARK  Name = 
REMARK  11 active torsions:
REMARK  status: ('A' for Active; 'I' for Inactive)
REMARK    1  A    between atoms: C_1  and  C_2
REMARK    2  A    between atoms: C_2  and  O_4
REMARK    3  A    between atoms: O_4  and  C_5
REMARK    4  A    between atoms: C_6  and  N_7
REMARK    5  A    between atoms: N_7  and  C_8
REMARK    6  A    between atoms: C_21  and  N_22
REMARK    7  A    between atoms: N_22  and  C_23
REMARK    8  A    between atoms: N_22  and  C_24
REMARK    9  A    between atoms: N_22  and  C_25
REMARK   10  A    between atoms: C_28  and  C_29
REMARK   11  A    between atoms: C_33  and  C_34
REMARK                            x       y       z     vdW  Elec       q    Type
REMARK                         _______ _______ _______ _____ _____    ______ ____
ROOT
ATOM      1  C   UNL     1       8.859  15.714  20.909  0.00  0.00    +0.000 C 
ATOM      2  C   UNL     1       9.234  15.191  19.478  0.00  0.00    +0.000 C 
ATOM      3  C   UNL     1       7.912  14.729  18.823  0.00  0.00    +0.000 C 
ATOM      4  C   UNL     1       6.839  15.424  19.651  0.00  0.00    +0.000 C 
ATOM      5  C   UNL     1       5.411  14.887  19.558  0.00  0.00    +0.000 C 
ATOM      6  C   UNL     1       4.852  14.869  18.123  0.00  0.00    +0.000 C 
ATOM      7  C   UNL     1       3.399  14.376  18.092  0.00  0.00    +0.000 C 
ATOM      8  C   UNL     1       2.552  15.226  19.051  0.00  0.00    +0.000 C 
ATOM      9  C   UNL     1       1.049  15.034  18.875  0.00  0.00    +0.000 C 
ATOM     10  C   UNL     1       0.223  16.014  19.732  0.00  0.00    +0.000 C 
ATOM     11  C   UNL     1       0.643  15.880  21.205  0.00  0.00    +0.000 C 
ATOM     12  C   UNL     1       2.140  15.998  21.468  0.00  0.00    +0.000 C 
ATOM     13  C   UNL     1       3.036  15.141  20.531  0.00  0.00    +0.000 C 
ATOM     14  C   UNL     1       2.997  13.685  21.068  0.00  0.00    +0.000 C 
ATOM     15  C   UNL     1       4.497  15.719  20.516  0.00  0.00    +0.000 C 
ATOM     16  C   UNL     1       5.079  15.991  21.927  0.00  0.00    +0.000 C 
ATOM     17  C   UNL     1       6.573  16.336  21.933  0.00  0.00    +0.000 C 
ATOM     18  C   UNL     1       7.373  15.325  21.098  0.00  0.00    +0.000 C 
ATOM     19  C   UNL     1       7.234  13.922  21.736  0.00  0.00    +0.000 C 
ENDROOT
BRANCH   2  20
ATOM     20  N   UNL     1      10.413  14.195  19.310  0.00  0.00    +0.000 N 
ATOM     21  C   UNL     1      11.726  14.964  19.544  0.00  0.00    +0.000 C 
ATOM     22  C   UNL     1      10.366  12.956  20.245  0.00  0.00    +0.000 C 
ATOM     23  C   UNL     1      11.487  11.963  19.888  0.00  0.00    +0.000 C 
ATOM     24  O   UNL     1      11.360  11.507  18.538  0.00  0.00    +0.000 OA
ATOM     25  C   UNL     1      11.442  12.572  17.588  0.00  0.00    +0.000 C 
ATOM     26  C   UNL     1      10.369  13.637  17.846  0.00  0.00    +0.000 C 
ENDBRANCH   2  20
BRANCH  10  27
ATOM     27  N   UNL     1       0.170  17.501  19.187  0.00  0.00    +0.000 N 
ATOM     28  C   UNL     1       1.470  18.192  18.789  0.00  0.00    +0.000 C 
ATOM     29  C   UNL     1      -0.733  17.537  17.939  0.00  0.00    +0.000 C 
ATOM     30  C   UNL     1      -0.495  18.404  20.243  0.00  0.00    +0.000 C 
ENDBRANCH  10  27
BRANCH   1  31
ATOM     31  O   UNL     1       9.679  15.246  21.987  0.00  0.00    +0.000 OA
BRANCH  31  33
ATOM     32  C   UNL     1       9.623  16.189  24.151  0.00  0.00    +0.000 C 
ATOM     33  C   UNL     1      10.228  16.212  22.781  0.00  0.00    +0.000 C 
ATOM     34  O   UNL     1      11.120  16.975  22.433  0.00  0.00    +0.000 OA
ENDBRANCH  31  33
ENDBRANCH   1  31
TORSDOF 4
ENDMDL
MODEL 2
REMARK VINA RESULT:      -5.3      4.702      8.087
REMARK  Name = 
REMARK  11 active torsions:
REMARK  status: ('A' for Active; 'I' for Inactive)
REMARK    1  A    between atoms: C_1  and  C_2
REMARK    2  A    between atoms: C_2  and  O_4
REMARK    3  A    between atoms: O_4  and  C_5
REMARK    4  A    between atoms: C_6  and  N_7
REMARK    5  A    between atoms: N_7  and  C_8
REMARK    6  A    between atoms: C_21  and  N_22
REMARK    7  A    between atoms: N_22  and  C_23
REMARK    8  A    between atoms: N_22  and  C_24
REMARK    9  A    between atoms: N_22  and  C_25
REMARK   10  A    between atoms: C_28  and  C_29
REMARK   11  A    between atoms: C_33  and  C_34
REMARK                            x       y       z     vdW  Elec       q    Type
REMARK                         _______ _______ _______ _____ _____    ______ ____
ROOT
ATOM      1  C   UNL     1       1.288  16.599  18.985  0.00  0.00    +0.000 C 
ATOM      2  C   UNL     1       2.283  15.685  19.783  0.00  0.00    +0.000 C 
ATOM      3  C   UNL     1       1.554  15.283  21.086  0.00  0.00    +0.000 C 
ATOM      4  C   UNL     1       0.087  15.548  20.774  0.00  0.00    +0.000 C 
ATOM      5  C   UNL     1      -0.882  15.656  21.950  0.00  0.00    +0.000 C 
ATOM      6  C   UNL     1      -0.890  14.410  22.856  0.00  0.00    +0.000 C 
ATOM      7  C   UNL     1      -1.919  14.545  23.988  0.00  0.00    +0.000 C 
ATOM      8  C   UNL     1      -3.298  14.855  23.387  0.00  0.00    +0.000 C 
ATOM      9  C   UNL     1      -4.446  14.705  24.381  0.00  0.00    +0.000 C 
ATOM     10  C   UNL     1      -5.828  14.862  23.717  0.00  0.00    +0.000 C 
ATOM     11  C   UNL     1      -5.889  16.210  22.979  0.00  0.00    +0.000 C 
ATOM     12  C   UNL     1      -4.744  16.471  22.007  0.00  0.00    +0.000 C 
ATOM     13  C   UNL     1      -3.327  16.188  22.577  0.00  0.00    +0.000 C 
ATOM     14  C   UNL     1      -2.936  17.406  23.457  0.00  0.00    +0.000 C 
ATOM     15  C   UNL     1      -2.311  15.969  21.399  0.00  0.00    +0.000 C 
ATOM     16  C   UNL     1      -2.380  17.062  20.301  0.00  0.00    +0.000 C 
ATOM     17  C   UNL     1      -1.248  16.986  19.270  0.00  0.00    +0.000 C 
ATOM     18  C   UNL     1       0.118  16.864  19.962  0.00  0.00    +0.000 C 
ATOM     19  C   UNL     1       0.369  18.133  20.811  0.00  0.00    +0.000 C 
ENDROOT
BRANCH   2  20
ATOM     20  N   UNL     1       3.751  16.145  19.988  0.00  0.00    +0.000 N 
ATOM     21  C   UNL     1       4.454  15.116  20.893  0.00  0.00    +0.000 C 
ATOM     22  C   UNL     1       4.572  16.328  18.681  0.00  0.00    +0.000 C 
ATOM     23  C   UNL     1       5.953  16.934  18.987  0.00  0.00    +0.000 C 
ATOM     24  O   UNL     1       5.827  18.213  19.617  0.00  0.00    +0.000 OA
ATOM     25  C   UNL     1       5.127  18.146  20.862  0.00  0.00    +0.000 C 
ATOM     26  C   UNL     1       3.725  17.549  20.685  0.00  0.00    +0.000 C 
ENDBRANCH   2  20
BRANCH  10  27
ATOM     27  N   UNL     1      -6.308  13.615  22.864  0.00  0.00    +0.000 N 
ATOM     28  C   UNL     1      -5.296  12.878  21.992  0.00  0.00    +0.000 C 
ATOM     29  C   UNL     1      -6.895  12.560  23.822  0.00  0.00    +0.000 C 
ATOM     30  C   UNL     1      -7.451  14.050  21.928  0.00  0.00    +0.000 C 
ENDBRANCH  10  27
BRANCH   1  31
ATOM     31  O   UNL     1       1.833  17.815  18.456  0.00  0.00    +0.000 OA
BRANCH  31  33
ATOM     32  C   UNL     1       0.511  18.625  16.676  0.00  0.00    +0.000 C 
ATOM     33  C   UNL     1       1.780  17.951  17.098  0.00  0.00    +0.000 C 
ATOM     34  O   UNL     1       2.665  17.601  16.328  0.00  0.00    +0.000 OA
ENDBRANCH  31  33
ENDBRANCH   1  31
TORSDOF 4
ENDMDL
MODEL 3
REMARK VINA RESULT:      -5.3      1.520      1.805
REMARK  Name = 
REMARK  11 active torsions:
REMARK  status: ('A' for Active; 'I' for Inactive)
REMARK    1  A    between atoms: C_1  and  C_2
REMARK    2  A    between atoms: C_2  and  O_4
REMARK    3  A    between atoms: O_4  and  C_5
REMARK    4  A    between atoms: C_6  and  N_7
REMARK    5  A    between atoms: N_7  and  C_8
REMARK    6  A    between atoms: C_21  and  N_22
REMARK    7  A    between atoms: N_22  and  C_23
REMARK    8  A    between atoms: N_22  and  C_24
REMARK    9  A    between atoms: N_22  and  C_25
REMARK   10  A    between atoms: C_28  and  C_29
REMARK   11  A    between atoms: C_33  and  C_34
REMARK                            x       y       z     vdW  Elec       q    Type
REMARK                         _______ _______ _______ _____ _____    ______ ____
ROOT
ATOM      1  C   UNL     1       8.896  16.047  18.891  0.00  0.00    +0.000 C 
ATOM      2  C   UNL     1       8.826  14.797  17.945  0.00  0.00    +0.000 C 
ATOM      3  C   UNL     1       7.396  14.228  18.082  0.00  0.00    +0.000 C 
ATOM      4  C   UNL     1       6.602  15.386  18.672  0.00  0.00    +0.000 C 
ATOM      5  C   UNL     1       5.256  15.067  19.322  0.00  0.00    +0.000 C 
ATOM      6  C   UNL     1       4.270  14.355  18.377  0.00  0.00    +0.000 C 
ATOM      7  C   UNL     1       2.917  14.110  19.059  0.00  0.00    +0.000 C 
ATOM      8  C   UNL     1       2.370  15.440  19.599  0.00  0.00    +0.000 C 
ATOM      9  C   UNL     1       0.905  15.374  20.017  0.00  0.00    +0.000 C 
ATOM     10  C   UNL     1       0.336  16.755  20.401  0.00  0.00    +0.000 C 
ATOM     11  C   UNL     1       1.213  17.378  21.500  0.00  0.00    +0.000 C 
ATOM     12  C   UNL     1       2.705  17.429  21.191  0.00  0.00    +0.000 C 
ATOM     13  C   UNL     1       3.306  16.100  20.657  0.00  0.00    +0.000 C 
ATOM     14  C   UNL     1       3.531  15.175  21.884  0.00  0.00    +0.000 C 
ATOM     15  C   UNL     1       4.646  16.390  19.891  0.00  0.00    +0.000 C 
ATOM     16  C   UNL     1       5.630  17.299  20.671  0.00  0.00    +0.000 C 
ATOM     17  C   UNL     1       7.023  17.402  20.039  0.00  0.00    +0.000 C 
ATOM     18  C   UNL     1       7.576  16.011  19.698  0.00  0.00    +0.000 C 
ATOM     19  C   UNL     1       7.736  15.197  21.005  0.00  0.00    +0.000 C 
ENDROOT
BRANCH   2  20
ATOM     20  N   UNL     1       9.949  13.727  18.003  0.00  0.00    +0.000 N 
ATOM     21  C   UNL     1      10.954  14.026  16.875  0.00  0.00    +0.000 C 
ATOM     22  C   UNL     1      10.705  13.639  19.358  0.00  0.00    +0.000 C 
ATOM     23  C   UNL     1      11.681  12.449  19.359  0.00  0.00    +0.000 C 
ATOM     24  O   UNL     1      10.988  11.214  19.154  0.00  0.00    +0.000 OA
ATOM     25  C   UNL     1      10.297  11.172  17.903  0.00  0.00    +0.000 C 
ATOM     26  C   UNL     1       9.290  12.323  17.780  0.00  0.00    +0.000 C 
ENDBRANCH   2  20
BRANCH  10  27
ATOM     27  N   UNL     1       0.019  17.713  19.179  0.00  0.00    +0.000 N 
ATOM     28  C   UNL     1       1.117  18.631  18.651  0.00  0.00    +0.000 C 
ATOM     29  C   UNL     1      -0.431  16.853  17.982  0.00  0.00    +0.000 C 
ATOM     30  C   UNL     1      -1.168  18.624  19.543  0.00  0.00    +0.000 C 
ENDBRANCH  10  27
BRANCH   1  31
ATOM     31  O   UNL     1      10.046  16.129  19.744  0.00  0.00    +0.000 OA
BRANCH  31  33
ATOM     32  C   UNL     1      10.987  18.093  20.657  0.00  0.00    +0.000 C 
ATOM     33  C   UNL     1      10.904  17.160  19.488  0.00  0.00    +0.000 C 
ATOM     34  O   UNL     1      11.549  17.289  18.455  0.00  0.00    +0.000 OA
ENDBRANCH  31  33
ENDBRANCH   1  31
TORSDOF 4
ENDMDL
MODEL 4
REMARK VINA RESULT:      -5.2      0.859      1.005
REMARK  Name = 
REMARK  11 active torsions:
REMARK  status: ('A' for Active; 'I' for Inactive)
REMARK    1  A    between atoms: C_1  and  C_2
REMARK    2  A    between atoms: C_2  and  O_4
REMARK    3  A    between atoms: O_4  and  C_5
REMARK    4  A    between atoms: C_6  and  N_7
REMARK    5  A    between atoms: N_7  and  C_8
REMARK    6  A    between atoms: C_21  and  N_22
REMARK    7  A    between atoms: N_22  and  C_23
REMARK    8  A    between atoms: N_22  and  C_24
REMARK    9  A    between atoms: N_22  and  C_25
REMARK   10  A    between atoms: C_28  and  C_29
REMARK   11  A    between atoms: C_33  and  C_34
REMARK                            x       y       z     vdW  Elec       q    Type
REMARK                         _______ _______ _______ _____ _____    ______ ____
ROOT
ATOM      1  C   UNL     1       8.325  15.749  20.535  0.00  0.00    +0.000 C 
ATOM      2  C   UNL     1       8.632  15.011  19.185  0.00  0.00    +0.000 C 
ATOM      3  C   UNL     1       7.272  14.523  18.636  0.00  0.00    +0.000 C 
ATOM      4  C   UNL     1       6.255  15.378  19.383  0.00  0.00    +0.000 C 
ATOM      5  C   UNL     1       4.804  14.900  19.404  0.00  0.00    +0.000 C 
ATOM      6  C   UNL     1       4.200  14.705  18.000  0.00  0.00    +0.000 C 
ATOM      7  C   UNL     1       2.727  14.280  18.077  0.00  0.00    +0.000 C 
ATOM      8  C   UNL     1       1.948  15.296  18.925  0.00  0.00    +0.000 C 
ATOM      9  C   UNL     1       0.433  15.151  18.816  0.00  0.00    +0.000 C 
ATOM     10  C   UNL     1      -0.324  16.280  19.544  0.00  0.00    +0.000 C 
ATOM     11  C   UNL     1       0.136  16.337  21.010  0.00  0.00    +0.000 C 
ATOM     12  C   UNL     1       1.645  16.422  21.216  0.00  0.00    +0.000 C 
ATOM     13  C   UNL     1       2.474  15.400  20.390  0.00  0.00    +0.000 C 
ATOM     14  C   UNL     1       2.390  14.038  21.131  0.00  0.00    +0.000 C 
ATOM     15  C   UNL     1       3.956  15.901  20.255  0.00  0.00    +0.000 C 
ATOM     16  C   UNL     1       4.593  16.344  21.597  0.00  0.00    +0.000 C 
ATOM     17  C   UNL     1       6.100  16.616  21.516  0.00  0.00    +0.000 C 
ATOM     18  C   UNL     1       6.830  15.461  20.815  0.00  0.00    +0.000 C 
ATOM     19  C   UNL     1       6.652  14.171  21.651  0.00  0.00    +0.000 C 
ENDROOT
BRANCH   2  20
ATOM     20  N   UNL     1       9.761  13.948  19.132  0.00  0.00    +0.000 N 
ATOM     21  C   UNL     1      11.109  14.686  19.024  0.00  0.00    +0.000 C 
ATOM     22  C   UNL     1       9.803  12.971  20.339  0.00  0.00    +0.000 C 
ATOM     23  C   UNL     1      10.853  11.868  20.109  0.00  0.00    +0.000 C 
ATOM     24  O   UNL     1      10.555  11.111  18.933  0.00  0.00    +0.000 OA
ATOM     25  C   UNL     1      10.543  11.914  17.750  0.00  0.00    +0.000 C 
ATOM     26  C   UNL     1       9.531  13.061  17.861  0.00  0.00    +0.000 C 
ENDBRANCH   2  20
BRANCH  10  27
ATOM     27  N   UNL     1      -0.331  17.676  18.793  0.00  0.00    +0.000 N 
ATOM     28  C   UNL     1       0.005  17.720  17.306  0.00  0.00    +0.000 C 
ATOM     29  C   UNL     1      -1.731  18.304  18.934  0.00  0.00    +0.000 C 
ATOM     30  C   UNL     1       0.657  18.631  19.489  0.00  0.00    +0.000 C 
ENDBRANCH  10  27
BRANCH   1  31
ATOM     31  O   UNL     1       9.158  15.402  21.648  0.00  0.00    +0.000 OA
BRANCH  31  33
ATOM     32  C   UNL     1       9.620  17.712  21.499  0.00  0.00    +0.000 C 
ATOM     33  C   UNL     1       9.971  16.394  22.117  0.00  0.00    +0.000 C 
ATOM     34  O   UNL     1      10.848  16.236  22.956  0.00  0.00    +0.000 OA
ENDBRANCH  31  33
ENDBRANCH   1  31
TORSDOF 4
ENDMDL
MODEL 5
REMARK VINA RESULT:      -5.2      3.297      8.891
REMARK  Name = 
REMARK  11 active torsions:
REMARK  status: ('A' for Active; 'I' for Inactive)
REMARK    1  A    between atoms: C_1  and  C_2
REMARK    2  A    between atoms: C_2  and  O_4
REMARK    3  A    between atoms: O_4  and  C_5
REMARK    4  A    between atoms: C_6  and  N_7
REMARK    5  A    between atoms: N_7  and  C_8
REMARK    6  A    between atoms: C_21  and  N_22
REMARK    7  A    between atoms: N_22  and  C_23
REMARK    8  A    between atoms: N_22  and  C_24
REMARK    9  A    between atoms: N_22  and  C_25
REMARK   10  A    between atoms: C_28  and  C_29
REMARK   11  A    between atoms: C_33  and  C_34
REMARK                            x       y       z     vdW  Elec       q    Type
REMARK                         _______ _______ _______ _____ _____    ______ ____
ROOT
ATOM      1  C   UNL     1       2.105  15.471  20.734  0.00  0.00    +0.000 C 
ATOM      2  C   UNL     1       1.863  15.970  19.266  0.00  0.00    +0.000 C 
ATOM      3  C   UNL     1       3.261  16.171  18.638  0.00  0.00    +0.000 C 
ATOM      4  C   UNL     1       4.180  15.355  19.539  0.00  0.00    +0.000 C 
ATOM      5  C   UNL     1       5.679  15.644  19.473  0.00  0.00    +0.000 C 
ATOM      6  C   UNL     1       6.274  15.491  18.060  0.00  0.00    +0.000 C 
ATOM      7  C   UNL     1       7.789  15.735  18.059  0.00  0.00    +0.000 C 
ATOM      8  C   UNL     1       8.455  14.811  19.089  0.00  0.00    +0.000 C 
ATOM      9  C   UNL     1       9.973  14.743  18.959  0.00  0.00    +0.000 C 
ATOM     10  C   UNL     1      10.600  13.689  19.893  0.00  0.00    +0.000 C 
ATOM     11  C   UNL     1      10.167  13.970  21.342  0.00  0.00    +0.000 C 
ATOM     12  C   UNL     1       8.664  14.114  21.554  0.00  0.00    +0.000 C 
ATOM     13  C   UNL     1       7.950  15.055  20.544  0.00  0.00    +0.000 C 
ATOM     14  C   UNL     1       8.216  16.512  21.010  0.00  0.00    +0.000 C 
ATOM     15  C   UNL     1       6.415  14.726  20.503  0.00  0.00    +0.000 C 
ATOM     16  C   UNL     1       5.756  14.630  21.903  0.00  0.00    +0.000 C 
ATOM     17  C   UNL     1       4.226  14.537  21.871  0.00  0.00    +0.000 C 
ATOM     18  C   UNL     1       3.629  15.619  20.959  0.00  0.00    +0.000 C 
ATOM     19  C   UNL     1       3.982  17.013  21.532  0.00  0.00    +0.000 C 
ENDROOT
BRANCH   2  20
ATOM     20  N   UNL     1       0.872  17.136  19.006  0.00  0.00    +0.000 N 
ATOM     21  C   UNL     1       1.303  18.334  19.873  0.00  0.00    +0.000 C 
ATOM     22  C   UNL     1       0.759  17.586  17.523  0.00  0.00    +0.000 C 
ATOM     23  C   UNL     1      -0.359  18.631  17.356  0.00  0.00    +0.000 C 
ATOM     24  O   UNL     1      -1.625  18.100  17.758  0.00  0.00    +0.000 OA
ATOM     25  C   UNL     1      -1.643  17.701  19.131  0.00  0.00    +0.000 C 
ATOM     26  C   UNL     1      -0.560  16.656  19.425  0.00  0.00    +0.000 C 
ENDBRANCH   2  20
BRANCH  10  27
ATOM     27  N   UNL     1      10.421  12.185  19.424  0.00  0.00    +0.000 N 
ATOM     28  C   UNL     1       9.477  11.877  18.266  0.00  0.00    +0.000 C 
ATOM     29  C   UNL     1      11.798  11.629  19.013  0.00  0.00    +0.000 C 
ATOM     30  C   UNL     1       9.937  11.337  20.615  0.00  0.00    +0.000 C 
ENDBRANCH  10  27
BRANCH   1  31
ATOM     31  O   UNL     1       1.344  16.126  21.757  0.00  0.00    +0.000 OA
BRANCH  31  33
ATOM     32  C   UNL     1      -0.479  16.140  23.257  0.00  0.00    +0.000 C 
ATOM     33  C   UNL     1       0.512  15.325  22.485  0.00  0.00    +0.000 C 
ATOM     34  O   UNL     1       0.547  14.101  22.483  0.00  0.00    +0.000 OA
ENDBRANCH  31  33
ENDBRANCH   1  31
TORSDOF 4
ENDMDL
MODEL 6
REMARK VINA RESULT:      -5.0      0.860      1.154
REMARK  Name = 
REMARK  11 active torsions:
REMARK  status: ('A' for Active; 'I' for Inactive)
REMARK    1  A    between atoms: C_1  and  C_2
REMARK    2  A    between atoms: C_2  and  O_4
REMARK    3  A    between atoms: O_4  and  C_5
REMARK    4  A    between atoms: C_6  and  N_7
REMARK    5  A    between atoms: N_7  and  C_8
REMARK    6  A    between atoms: C_21  and  N_22
REMARK    7  A    between atoms: N_22  and  C_23
REMARK    8  A    between atoms: N_22  and  C_24
REMARK    9  A    between atoms: N_22  and  C_25
REMARK   10  A    between atoms: C_28  and  C_29
REMARK   11  A    between atoms: C_33  and  C_34
REMARK                            x       y       z     vdW  Elec       q    Type
REMARK                         _______ _______ _______ _____ _____    ______ ____
ROOT
ATOM      1  C   UNL     1       8.988  16.165  19.965  0.00  0.00    +0.000 C 
ATOM      2  C   UNL     1       9.193  15.265  18.696  0.00  0.00    +0.000 C 
ATOM      3  C   UNL     1       7.811  14.653  18.369  0.00  0.00    +0.000 C 
ATOM      4  C   UNL     1       6.833  15.559  19.107  0.00  0.00    +0.000 C 
ATOM      5  C   UNL     1       5.421  15.029  19.350  0.00  0.00    +0.000 C 
ATOM      6  C   UNL     1       4.685  14.623  18.059  0.00  0.00    +0.000 C 
ATOM      7  C   UNL     1       3.253  14.154  18.353  0.00  0.00    +0.000 C 
ATOM      8  C   UNL     1       2.512  15.242  19.144  0.00  0.00    +0.000 C 
ATOM      9  C   UNL     1       1.005  15.022  19.223  0.00  0.00    +0.000 C 
ATOM     10  C   UNL     1       0.268  16.207  19.878  0.00  0.00    +0.000 C 
ATOM     11  C   UNL     1       0.874  16.480  21.265  0.00  0.00    +0.000 C 
ATOM     12  C   UNL     1       2.389  16.653  21.289  0.00  0.00    +0.000 C 
ATOM     13  C   UNL     1       3.182  15.563  20.515  0.00  0.00    +0.000 C 
ATOM     14  C   UNL     1       3.251  14.311  21.431  0.00  0.00    +0.000 C 
ATOM     15  C   UNL     1       4.613  16.101  20.153  0.00  0.00    +0.000 C 
ATOM     16  C   UNL     1       5.361  16.746  21.348  0.00  0.00    +0.000 C 
ATOM     17  C   UNL     1       6.834  17.065  21.066  0.00  0.00    +0.000 C 
ATOM     18  C   UNL     1       7.549  15.857  20.444  0.00  0.00    +0.000 C 
ATOM     19  C   UNL     1       7.530  14.685  21.454  0.00  0.00    +0.000 C 
ENDROOT
BRANCH   2  20
ATOM     20  N   UNL     1      10.367  14.252  18.656  0.00  0.00    +0.000 N 
ATOM     21  C   UNL     1      11.627  14.997  18.178  0.00  0.00    +0.000 C 
ATOM     22  C   UNL     1      10.668  13.539  20.004  0.00  0.00    +0.000 C 
ATOM     23  C   UNL     1      11.738  12.448  19.815  0.00  0.00    +0.000 C 
ATOM     24  O   UNL     1      11.305  11.460  18.876  0.00  0.00    +0.000 OA
ATOM     25  C   UNL     1      11.049  12.007  17.580  0.00  0.00    +0.000 C 
ATOM     26  C   UNL     1       9.993  13.118  17.639  0.00  0.00    +0.000 C 
ENDBRANCH   2  20
BRANCH  10  27
ATOM     27  N   UNL     1       0.106  17.488  18.959  0.00  0.00    +0.000 N 
ATOM     28  C   UNL     1      -0.725  17.385  17.684  0.00  0.00    +0.000 C 
ATOM     29  C   UNL     1      -0.529  18.617  19.793  0.00  0.00    +0.000 C 
ATOM     30  C   UNL     1       1.499  17.983  18.528  0.00  0.00    +0.000 C 
ENDBRANCH  10  27
BRANCH   1  31
ATOM     31  O   UNL     1       9.951  16.004  21.015  0.00  0.00    +0.000 OA
BRANCH  31  33
ATOM     32  C   UNL     1      10.923  17.227  22.785  0.00  0.00    +0.000 C 
ATOM     33  C   UNL     1      10.701  17.107  21.309  0.00  0.00    +0.000 C 
ATOM     34  O   UNL     1      11.162  17.878  20.476  0.00  0.00    +0.000 OA
ENDBRANCH  31  33
ENDBRANCH   1  31
TORSDOF 4
ENDMDL
MODEL 7
REMARK VINA RESULT:      -5.0      5.386      9.625
REMARK  Name = 
REMARK  11 active torsions:
REMARK  status: ('A' for Active; 'I' for Inactive)
REMARK    1  A    between atoms: C_1  and  C_2
REMARK    2  A    between atoms: C_2  and  O_4
REMARK    3  A    between atoms: O_4  and  C_5
REMARK    4  A    between atoms: C_6  and  N_7
REMARK    5  A    between atoms: N_7  and  C_8
REMARK    6  A    between atoms: C_21  and  N_22
REMARK    7  A    between atoms: N_22  and  C_23
REMARK    8  A    between atoms: N_22  and  C_24
REMARK    9  A    between atoms: N_22  and  C_25
REMARK   10  A    between atoms: C_28  and  C_29
REMARK   11  A    between atoms: C_33  and  C_34
REMARK                            x       y       z     vdW  Elec       q    Type
REMARK                         _______ _______ _______ _____ _____    ______ ____
ROOT
ATOM      1  C   UNL     1      -1.163  12.284  20.770  0.00  0.00    +0.000 C 
ATOM      2  C   UNL     1      -1.038  11.547  19.390  0.00  0.00    +0.000 C 
ATOM      3  C   UNL     1       0.002  12.341  18.566  0.00  0.00    +0.000 C 
ATOM      4  C   UNL     1       0.752  13.149  19.617  0.00  0.00    +0.000 C 
ATOM      5  C   UNL     1       1.571  14.348  19.139  0.00  0.00    +0.000 C 
ATOM      6  C   UNL     1       2.635  13.986  18.086  0.00  0.00    +0.000 C 
ATOM      7  C   UNL     1       3.467  15.212  17.684  0.00  0.00    +0.000 C 
ATOM      8  C   UNL     1       4.068  15.855  18.942  0.00  0.00    +0.000 C 
ATOM      9  C   UNL     1       5.154  16.884  18.644  0.00  0.00    +0.000 C 
ATOM     10  C   UNL     1       5.853  17.394  19.920  0.00  0.00    +0.000 C 
ATOM     11  C   UNL     1       4.797  17.947  20.892  0.00  0.00    +0.000 C 
ATOM     12  C   UNL     1       3.639  17.005  21.200  0.00  0.00    +0.000 C 
ATOM     13  C   UNL     1       2.987  16.344  19.954  0.00  0.00    +0.000 C 
ATOM     14  C   UNL     1       2.039  17.397  19.321  0.00  0.00    +0.000 C 
ATOM     15  C   UNL     1       2.215  15.045  20.383  0.00  0.00    +0.000 C 
ATOM     16  C   UNL     1       1.272  15.248  21.597  0.00  0.00    +0.000 C 
ATOM     17  C   UNL     1       0.349  14.057  21.880  0.00  0.00    +0.000 C 
ATOM     18  C   UNL     1      -0.357  13.594  20.597  0.00  0.00    +0.000 C 
ATOM     19  C   UNL     1      -1.253  14.741  20.071  0.00  0.00    +0.000 C 
ENDROOT
BRANCH   2  20
ATOM     20  N   UNL     1      -2.321  11.167  18.605  0.00  0.00    +0.000 N 
ATOM     21  C   UNL     1      -2.579   9.662  18.808  0.00  0.00    +0.000 C 
ATOM     22  C   UNL     1      -3.595  11.967  18.997  0.00  0.00    +0.000 C 
ATOM     23  C   UNL     1      -4.763  11.624  18.055  0.00  0.00    +0.000 C 
ATOM     24  O   UNL     1      -4.440  11.940  16.698  0.00  0.00    +0.000 OA
ATOM     25  C   UNL     1      -3.305  11.213  16.220  0.00  0.00    +0.000 C 
ATOM     26  C   UNL     1      -2.068  11.470  17.088  0.00  0.00    +0.000 C 
ENDBRANCH   2  20
BRANCH  10  27
ATOM     27  N   UNL     1       6.888  16.382  20.567  0.00  0.00    +0.000 N 
ATOM     28  C   UNL     1       6.370  15.263  21.464  0.00  0.00    +0.000 C 
ATOM     29  C   UNL     1       7.678  15.695  19.437  0.00  0.00    +0.000 C 
ATOM     30  C   UNL     1       7.910  17.171  21.407  0.00  0.00    +0.000 C 
ENDBRANCH  10  27
BRANCH   1  31
ATOM     31  O   UNL     1      -2.496  12.530  21.236  0.00  0.00    +0.000 OA
BRANCH  31  33
ATOM     32  C   UNL     1      -1.608  11.359  23.083  0.00  0.00    +0.000 C 
ATOM     33  C   UNL     1      -2.782  12.076  22.492  0.00  0.00    +0.000 C 
ATOM     34  O   UNL     1      -3.843  12.261  23.074  0.00  0.00    +0.000 OA
ENDBRANCH  31  33
ENDBRANCH   1  31
TORSDOF 4
ENDMDL
MODEL 8
REMARK VINA RESULT:      -5.0      6.679     11.675
REMARK  Name = 
REMARK  11 active torsions:
REMARK  status: ('A' for Active; 'I' for Inactive)
REMARK    1  A    between atoms: C_1  and  C_2
REMARK    2  A    between atoms: C_2  and  O_4
REMARK    3  A    between atoms: O_4  and  C_5
REMARK    4  A    between atoms: C_6  and  N_7
REMARK    5  A    between atoms: N_7  and  C_8
REMARK    6  A    between atoms: C_21  and  N_22
REMARK    7  A    between atoms: N_22  and  C_23
REMARK    8  A    between atoms: N_22  and  C_24
REMARK    9  A    between atoms: N_22  and  C_25
REMARK   10  A    between atoms: C_28  and  C_29
REMARK   11  A    between atoms: C_33  and  C_34
REMARK                            x       y       z     vdW  Elec       q    Type
REMARK                         _______ _______ _______ _____ _____    ______ ____
ROOT
ATOM      1  C   UNL     1      -4.307  13.321  22.203  0.00  0.00    +0.000 C 
ATOM      2  C   UNL     1      -4.431  12.625  20.802  0.00  0.00    +0.000 C 
ATOM      3  C   UNL     1      -3.338  13.254  19.907  0.00  0.00    +0.000 C 
ATOM      4  C   UNL     1      -2.371  13.879  20.904  0.00  0.00    +0.000 C 
ATOM      5  C   UNL     1      -1.395  14.933  20.383  0.00  0.00    +0.000 C 
ATOM      6  C   UNL     1      -0.504  14.430  19.232  0.00  0.00    +0.000 C 
ATOM      7  C   UNL     1       0.496  15.505  18.784  0.00  0.00    +0.000 C 
ATOM      8  C   UNL     1       1.305  15.986  19.998  0.00  0.00    +0.000 C 
ATOM      9  C   UNL     1       2.527  16.819  19.628  0.00  0.00    +0.000 C 
ATOM     10  C   UNL     1       3.409  17.151  20.848  0.00  0.00    +0.000 C 
ATOM     11  C   UNL     1       2.554  17.845  21.921  0.00  0.00    +0.000 C 
ATOM     12  C   UNL     1       1.276  17.109  22.310  0.00  0.00    +0.000 C 
ATOM     13  C   UNL     1       0.416  16.618  21.112  0.00  0.00    +0.000 C 
ATOM     14  C   UNL     1      -0.380  17.845  20.589  0.00  0.00    +0.000 C 
ATOM     15  C   UNL     1      -0.537  15.460  21.579  0.00  0.00    +0.000 C 
ATOM     16  C   UNL     1      -1.324  15.780  22.877  0.00  0.00    +0.000 C 
ATOM     17  C   UNL     1      -2.418  14.760  23.213  0.00  0.00    +0.000 C 
ATOM     18  C   UNL     1      -3.299  14.474  21.988  0.00  0.00    +0.000 C 
ATOM     19  C   UNL     1      -4.017  15.780  21.569  0.00  0.00    +0.000 C 
ENDROOT
BRANCH   2  20
ATOM     20  N   UNL     1      -5.821  12.505  20.125  0.00  0.00    +0.000 N 
ATOM     21  C   UNL     1      -6.667  11.510  20.942  0.00  0.00    +0.000 C 
ATOM     22  C   UNL     1      -6.599  13.842  19.975  0.00  0.00    +0.000 C 
ATOM     23  C   UNL     1      -7.885  13.634  19.155  0.00  0.00    +0.000 C 
ATOM     24  O   UNL     1      -7.587  13.143  17.845  0.00  0.00    +0.000 OA
ATOM     25  C   UNL     1      -6.912  11.882  17.871  0.00  0.00    +0.000 C 
ATOM     26  C   UNL     1      -5.606  11.961  18.671  0.00  0.00    +0.000 C 
ENDBRANCH   2  20
BRANCH  10  27
ATOM     27  N   UNL     1       4.299  15.951  21.379  0.00  0.00    +0.000 N 
ATOM     28  C   UNL     1       3.647  14.863  22.226  0.00  0.00    +0.000 C 
ATOM     29  C   UNL     1       4.929  15.232  20.170  0.00  0.00    +0.000 C 
ATOM     30  C   UNL     1       5.462  16.514  22.217  0.00  0.00    +0.000 C 
ENDBRANCH  10  27
BRANCH   1  31
ATOM     31  O   UNL     1      -5.532  13.778  22.790  0.00  0.00    +0.000 OA
BRANCH  31  33
ATOM     32  C   UNL     1      -7.369  13.469  24.241  0.00  0.00    +0.000 C 
ATOM     33  C   UNL     1      -5.971  13.077  23.877  0.00  0.00    +0.000 C 
ATOM     34  O   UNL     1      -5.321  12.217  24.458  0.00  0.00    +0.000 OA
ENDBRANCH  31  33
ENDBRANCH   1  31
TORSDOF 4
ENDMDL
MODEL 9
REMARK VINA RESULT:      -5.0      6.961     11.180
REMARK  Name = 
REMARK  11 active torsions:
REMARK  status: ('A' for Active; 'I' for Inactive)
REMARK    1  A    between atoms: C_1  and  C_2
REMARK    2  A    between atoms: C_2  and  O_4
REMARK    3  A    between atoms: O_4  and  C_5
REMARK    4  A    between atoms: C_6  and  N_7
REMARK    5  A    between atoms: N_7  and  C_8
REMARK    6  A    between atoms: C_21  and  N_22
REMARK    7  A    between atoms: N_22  and  C_23
REMARK    8  A    between atoms: N_22  and  C_24
REMARK    9  A    between atoms: N_22  and  C_25
REMARK   10  A    between atoms: C_28  and  C_29
REMARK   11  A    between atoms: C_33  and  C_34
REMARK                            x       y       z     vdW  Elec       q    Type
REMARK                         _______ _______ _______ _____ _____    ______ ____
ROOT
ATOM      1  C   UNL     1       0.511  12.167  20.083  0.00  0.00    +0.000 C 
ATOM      2  C   UNL     1       0.129  11.687  21.528  0.00  0.00    +0.000 C 
ATOM      3  C   UNL     1       0.421  10.169  21.573  0.00  0.00    +0.000 C 
ATOM      4  C   UNL     1       1.367   9.950  20.399  0.00  0.00    +0.000 C 
ATOM      5  C   UNL     1       1.543   8.521  19.886  0.00  0.00    +0.000 C 
ATOM      6  C   UNL     1       2.021   7.534  20.967  0.00  0.00    +0.000 C 
ATOM      7  C   UNL     1       2.237   6.128  20.388  0.00  0.00    +0.000 C 
ATOM      8  C   UNL     1       3.196   6.212  19.191  0.00  0.00    +0.000 C 
ATOM      9  C   UNL     1       3.723   4.856  18.734  0.00  0.00    +0.000 C 
ATOM     10  C   UNL     1       4.805   4.979  17.642  0.00  0.00    +0.000 C 
ATOM     11  C   UNL     1       4.248   5.798  16.465  0.00  0.00    +0.000 C 
ATOM     12  C   UNL     1       3.644   7.147  16.840  0.00  0.00    +0.000 C 
ATOM     13  C   UNL     1       2.653   7.108  18.036  0.00  0.00    +0.000 C 
ATOM     14  C   UNL     1       1.297   6.585  17.489  0.00  0.00    +0.000 C 
ATOM     15  C   UNL     1       2.516   8.542  18.662  0.00  0.00    +0.000 C 
ATOM     16  C   UNL     1       2.257   9.660  17.619  0.00  0.00    +0.000 C 
ATOM     17  C   UNL     1       1.897  11.018  18.234  0.00  0.00    +0.000 C 
ATOM     18  C   UNL     1       0.795  10.867  19.293  0.00  0.00    +0.000 C 
ATOM     19  C   UNL     1      -0.487  10.327  18.615  0.00  0.00    +0.000 C 
ENDROOT
BRANCH   2  20
ATOM     20  N   UNL     1      -1.240  12.093  22.134  0.00  0.00    +0.000 N 
ATOM     21  C   UNL     1      -1.619  11.051  23.203  0.00  0.00    +0.000 C 
ATOM     22  C   UNL     1      -1.289  13.514  22.759  0.00  0.00    +0.000 C 
ATOM     23  C   UNL     1      -2.724  13.873  23.185  0.00  0.00    +0.000 C 
ATOM     24  O   UNL     1      -3.614  13.848  22.065  0.00  0.00    +0.000 OA
ATOM     25  C   UNL     1      -3.683  12.561  21.446  0.00  0.00    +0.000 C 
ATOM     26  C   UNL     1      -2.301  12.089  20.979  0.00  0.00    +0.000 C 
ENDBRANCH   2  20
BRANCH  10  27
ATOM     27  N   UNL     1       6.230   5.440  18.159  0.00  0.00    +0.000 N 
ATOM     28  C   UNL     1       6.680   6.877  17.914  0.00  0.00    +0.000 C 
ATOM     29  C   UNL     1       6.295   5.226  19.684  0.00  0.00    +0.000 C 
ATOM     30  C   UNL     1       7.311   4.537  17.538  0.00  0.00    +0.000 C 
ENDBRANCH  10  27
BRANCH   1  31
ATOM     31  O   UNL     1      -0.449  13.000  19.421  0.00  0.00    +0.000 OA
BRANCH  31  33
ATOM     32  C   UNL     1       1.304  14.524  18.999  0.00  0.00    +0.000 C 
ATOM     33  C   UNL     1      -0.138  14.328  19.351  0.00  0.00    +0.000 C 
ATOM     34  O   UNL     1      -0.938  15.240  19.519  0.00  0.00    +0.000 OA
ENDBRANCH  31  33
ENDBRANCH   1  31
TORSDOF 4
ENDMDL
