MODEL 1
REMARK VINA RESULT:      -5.4      0.000      0.000
REMARK  Name = 
REMARK  5 active torsions:
REMARK  status: ('A' for Active; 'I' for Inactive)
REMARK    1  A    between atoms: C_1  and  O_2
REMARK    2  A    between atoms: O_2  and  C_3
REMARK    3  A    between atoms: C_3  and  C_4
REMARK    4  A    between atoms: C_4  and  N_5
REMARK    5  A    between atoms: C_10  and  C_11
REMARK                            x       y       z     vdW  Elec       q    Type
REMARK                         _______ _______ _______ _____ _____    ______ ____
ROOT
ATOM      1  N   UNL     1       6.032   3.889  18.278  0.00  0.00    +0.000 N 
ATOM      2  C   UNL     1       4.908   3.944  19.025  0.00  0.00    +0.000 A 
ATOM      3  N   UNL     1       4.175   5.017  19.199  0.00  0.00    +0.000 NA
ATOM      4  C   UNL     1       3.095   4.739  20.016  0.00  0.00    +0.000 A 
ATOM      5 CL   UNL     1       1.971   5.986  20.368  0.00  0.00    +0.000 Cl
ATOM      6  C   UNL     1       3.044   3.447  20.494  0.00  0.00    +0.000 A 
ATOM      7  S   UNL     1       4.344   2.541  19.847  0.00  0.00    +0.000 S 
ATOM      8  H   UNL     1       6.615   3.060  18.382  0.00  0.00    +0.000 HD
ENDROOT
BRANCH   6   9
ATOM      9  C   UNL     1       2.078   2.919  21.392  0.00  0.00    +0.000 C 
ATOM     10  N   UNL     1       1.301   2.482  22.134  0.00  0.00    +0.000 NA
ENDBRANCH   6   9
BRANCH   1  11
ATOM     11  C   UNL     1       6.839   5.099  18.133  0.00  0.00    +0.000 C 
BRANCH  11  12
ATOM     12  C   UNL     1       6.876   5.542  16.664  0.00  0.00    +0.000 C 
BRANCH  12  14
ATOM     13  C   UNL     1       7.733   7.377  17.883  0.00  0.00    +0.000 C 
ATOM     14  O   UNL     1       7.343   6.898  16.602  0.00  0.00    +0.000 OA
ENDBRANCH  12  14
ENDBRANCH  11  12
ENDBRANCH   1  11
TORSDOF 4
ENDMDL
MODEL 2
REMARK VINA RESULT:      -5.3      0.886      1.349
REMARK  Name = 
REMARK  5 active torsions:
REMARK  status: ('A' for Active; 'I' for Inactive)
REMARK    1  A    between atoms: C_1  and  O_2
REMARK    2  A    between atoms: O_2  and  C_3
REMARK    3  A    between atoms: C_3  and  C_4
REMARK    4  A    between atoms: C_4  and  N_5
REMARK    5  A    between atoms: C_10  and  C_11
REMARK                            x       y       z     vdW  Elec       q    Type
REMARK                         _______ _______ _______ _____ _____    ______ ____
ROOT
ATOM      1  N   UNL     1       5.805   3.954  17.996  0.00  0.00    +0.000 N 
ATOM      2  C   UNL     1       4.748   3.982  18.837  0.00  0.00    +0.000 A 
ATOM      3  N   UNL     1       4.029   5.046  19.102  0.00  0.00    +0.000 NA
ATOM      4  C   UNL     1       3.023   4.740  19.999  0.00  0.00    +0.000 A 
ATOM      5 CL   UNL     1       1.929   5.970  20.480  0.00  0.00    +0.000 Cl
ATOM      6  C   UNL     1       3.017   3.435  20.443  0.00  0.00    +0.000 A 
ATOM      7  S   UNL     1       4.260   2.555  19.664  0.00  0.00    +0.000 S 
ATOM      8  H   UNL     1       6.397   3.126  18.027  0.00  0.00    +0.000 HD
ENDROOT
BRANCH   6   9
ATOM      9  C   UNL     1       2.132   2.878  21.406  0.00  0.00    +0.000 C 
ATOM     10  N   UNL     1       1.397   2.429  22.182  0.00  0.00    +0.000 NA
ENDBRANCH   6   9
BRANCH   1  11
ATOM     11  C   UNL     1       6.592   5.173  17.816  0.00  0.00    +0.000 C 
BRANCH  11  12
ATOM     12  C   UNL     1       6.292   5.806  16.451  0.00  0.00    +0.000 C 
BRANCH  12  14
ATOM     13  C   UNL     1       6.895   4.733  14.434  0.00  0.00    +0.000 C 
ATOM     14  O   UNL     1       7.360   5.484  15.548  0.00  0.00    +0.000 OA
ENDBRANCH  12  14
ENDBRANCH  11  12
ENDBRANCH   1  11
TORSDOF 4
ENDMDL
MODEL 3
REMARK VINA RESULT:      -5.2      1.452      1.588
REMARK  Name = 
REMARK  5 active torsions:
REMARK  status: ('A' for Active; 'I' for Inactive)
REMARK    1  A    between atoms: C_1  and  O_2
REMARK    2  A    between atoms: O_2  and  C_3
REMARK    3  A    between atoms: C_3  and  C_4
REMARK    4  A    between atoms: C_4  and  N_5
REMARK    5  A    between atoms: C_10  and  C_11
REMARK                            x       y       z     vdW  Elec       q    Type
REMARK                         _______ _______ _______ _____ _____    ______ ____
ROOT
ATOM      1  N   UNL     1       4.415   3.624  16.820  0.00  0.00    +0.000 N 
ATOM      2  C   UNL     1       3.709   3.744  17.966  0.00  0.00    +0.000 A 
ATOM      3  N   UNL     1       3.265   4.875  18.459  0.00  0.00    +0.000 NA
ATOM      4  C   UNL     1       2.581   4.654  19.639  0.00  0.00    +0.000 A 
ATOM      5 CL   UNL     1       1.880   5.987  20.461  0.00  0.00    +0.000 Cl
ATOM      6  C   UNL     1       2.550   3.341  20.057  0.00  0.00    +0.000 A 
ATOM      7  S   UNL     1       3.338   2.351  18.905  0.00  0.00    +0.000 S 
ATOM      8  H   UNL     1       4.869   2.729  16.650  0.00  0.00    +0.000 HD
ENDROOT
BRANCH   6   9
ATOM      9  C   UNL     1       1.967   2.853  21.258  0.00  0.00    +0.000 C 
ATOM     10  N   UNL     1       1.501   2.441  22.236  0.00  0.00    +0.000 NA
ENDBRANCH   6   9
BRANCH   1  11
ATOM     11  C   UNL     1       5.252   4.743  16.391  0.00  0.00    +0.000 C 
BRANCH  11  12
ATOM     12  C   UNL     1       6.477   4.230  15.623  0.00  0.00    +0.000 C 
BRANCH  12  14
ATOM     13  C   UNL     1       7.581   4.649  17.670  0.00  0.00    +0.000 C 
ATOM     14  O   UNL     1       7.663   4.735  16.253  0.00  0.00    +0.000 OA
ENDBRANCH  12  14
ENDBRANCH  11  12
ENDBRANCH   1  11
TORSDOF 4
ENDMDL
MODEL 4
REMARK VINA RESULT:      -5.1      1.534      1.826
REMARK  Name = 
REMARK  5 active torsions:
REMARK  status: ('A' for Active; 'I' for Inactive)
REMARK    1  A    between atoms: C_1  and  O_2
REMARK    2  A    between atoms: O_2  and  C_3
REMARK    3  A    between atoms: C_3  and  C_4
REMARK    4  A    between atoms: C_4  and  N_5
REMARK    5  A    between atoms: C_10  and  C_11
REMARK                            x       y       z     vdW  Elec       q    Type
REMARK                         _______ _______ _______ _____ _____    ______ ____
ROOT
ATOM      1  N   UNL     1       4.518   3.639  16.761  0.00  0.00    +0.000 N 
ATOM      2  C   UNL     1       3.814   3.773  17.906  0.00  0.00    +0.000 A 
ATOM      3  N   UNL     1       3.350   4.907  18.373  0.00  0.00    +0.000 NA
ATOM      4  C   UNL     1       2.675   4.702  19.561  0.00  0.00    +0.000 A 
ATOM      5 CL   UNL     1       1.951   6.040  20.353  0.00  0.00    +0.000 Cl
ATOM      6  C   UNL     1       2.671   3.399  20.011  0.00  0.00    +0.000 A 
ATOM      7  S   UNL     1       3.473   2.396  18.881  0.00  0.00    +0.000 S 
ATOM      8  H   UNL     1       4.988   2.749  16.611  0.00  0.00    +0.000 HD
ENDROOT
BRANCH   6   9
ATOM      9  C   UNL     1       2.102   2.929  21.226  0.00  0.00    +0.000 C 
ATOM     10  N   UNL     1       1.636   2.531  22.211  0.00  0.00    +0.000 NA
ENDBRANCH   6   9
BRANCH   1  11
ATOM     11  C   UNL     1       5.331   4.763  16.301  0.00  0.00    +0.000 C 
BRANCH  11  12
ATOM     12  C   UNL     1       6.813   4.512  16.613  0.00  0.00    +0.000 C 
BRANCH  12  14
ATOM     13  C   UNL     1       6.904   4.808  14.270  0.00  0.00    +0.000 C 
ATOM     14  O   UNL     1       7.601   4.958  15.500  0.00  0.00    +0.000 OA
ENDBRANCH  12  14
ENDBRANCH  11  12
ENDBRANCH   1  11
TORSDOF 4
ENDMDL
MODEL 5
REMARK VINA RESULT:      -5.1      2.163      2.386
REMARK  Name = 
REMARK  5 active torsions:
REMARK  status: ('A' for Active; 'I' for Inactive)
REMARK    1  A    between atoms: C_1  and  O_2
REMARK    2  A    between atoms: O_2  and  C_3
REMARK    3  A    between atoms: C_3  and  C_4
REMARK    4  A    between atoms: C_4  and  N_5
REMARK    5  A    between atoms: C_10  and  C_11
REMARK                            x       y       z     vdW  Elec       q    Type
REMARK                         _______ _______ _______ _____ _____    ______ ____
ROOT
ATOM      1  N   UNL     1       5.193   3.457  17.205  0.00  0.00    +0.000 N 
ATOM      2  C   UNL     1       4.161   3.202  18.039  0.00  0.00    +0.000 A 
ATOM      3  N   UNL     1       2.916   3.035  17.663  0.00  0.00    +0.000 NA
ATOM      4  C   UNL     1       2.108   2.790  18.756  0.00  0.00    +0.000 A 
ATOM      5 CL   UNL     1       0.434   2.509  18.512  0.00  0.00    +0.000 Cl
ATOM      6  C   UNL     1       2.753   2.816  19.974  0.00  0.00    +0.000 A 
ATOM      7  S   UNL     1       4.426   3.086  19.735  0.00  0.00    +0.000 S 
ATOM      8  H   UNL     1       6.066   3.761  17.632  0.00  0.00    +0.000 HD
ENDROOT
BRANCH   6   9
ATOM      9  C   UNL     1       2.149   2.654  21.251  0.00  0.00    +0.000 C 
ATOM     10  N   UNL     1       1.664   2.535  22.297  0.00  0.00    +0.000 NA
ENDBRANCH   6   9
BRANCH   1  11
ATOM     11  C   UNL     1       4.927   4.167  15.955  0.00  0.00    +0.000 C 
BRANCH  11  12
ATOM     12  C   UNL     1       5.400   5.623  16.058  0.00  0.00    +0.000 C 
BRANCH  12  14
ATOM     13  C   UNL     1       6.881   4.795  14.413  0.00  0.00    +0.000 C 
ATOM     14  O   UNL     1       6.186   5.936  14.899  0.00  0.00    +0.000 OA
ENDBRANCH  12  14
ENDBRANCH  11  12
ENDBRANCH   1  11
TORSDOF 4
ENDMDL
MODEL 6
REMARK VINA RESULT:      -5.0      1.948      2.081
REMARK  Name = 
REMARK  5 active torsions:
REMARK  status: ('A' for Active; 'I' for Inactive)
REMARK    1  A    between atoms: C_1  and  O_2
REMARK    2  A    between atoms: O_2  and  C_3
REMARK    3  A    between atoms: C_3  and  C_4
REMARK    4  A    between atoms: C_4  and  N_5
REMARK    5  A    between atoms: C_10  and  C_11
REMARK                            x       y       z     vdW  Elec       q    Type
REMARK                         _______ _______ _______ _____ _____    ______ ____
ROOT
ATOM      1  N   UNL     1       5.591   3.504  16.234  0.00  0.00    +0.000 N 
ATOM      2  C   UNL     1       4.572   3.978  16.984  0.00  0.00    +0.000 A 
ATOM      3  N   UNL     1       4.213   5.237  17.053  0.00  0.00    +0.000 NA
ATOM      4  C   UNL     1       3.137   5.389  17.906  0.00  0.00    +0.000 A 
ATOM      5 CL   UNL     1       2.468   6.951  18.139  0.00  0.00    +0.000 Cl
ATOM      6  C   UNL     1       2.711   4.228  18.517  0.00  0.00    +0.000 A 
ATOM      7  S   UNL     1       3.639   2.906  17.954  0.00  0.00    +0.000 S 
ATOM      8  H   UNL     1       5.893   2.550  16.417  0.00  0.00    +0.000 HD
ENDROOT
BRANCH   6   9
ATOM      9  C   UNL     1       1.668   4.116  19.477  0.00  0.00    +0.000 C 
ATOM     10  N   UNL     1       0.826   4.013  20.267  0.00  0.00    +0.000 NA
ENDBRANCH   6   9
BRANCH   1  11
ATOM     11  C   UNL     1       6.724   4.384  15.953  0.00  0.00    +0.000 C 
BRANCH  11  12
ATOM     12  C   UNL     1       7.602   4.538  17.201  0.00  0.00    +0.000 C 
BRANCH  12  14
ATOM     13  C   UNL     1       7.795   6.137  18.931  0.00  0.00    +0.000 C 
ATOM     14  O   UNL     1       7.703   5.932  17.527  0.00  0.00    +0.000 OA
ENDBRANCH  12  14
ENDBRANCH  11  12
ENDBRANCH   1  11
TORSDOF 4
ENDMDL
MODEL 7
REMARK VINA RESULT:      -5.0      1.545      1.595
REMARK  Name = 
REMARK  5 active torsions:
REMARK  status: ('A' for Active; 'I' for Inactive)
REMARK    1  A    between atoms: C_1  and  O_2
REMARK    2  A    between atoms: O_2  and  C_3
REMARK    3  A    between atoms: C_3  and  C_4
REMARK    4  A    between atoms: C_4  and  N_5
REMARK    5  A    between atoms: C_10  and  C_11
REMARK                            x       y       z     vdW  Elec       q    Type
REMARK                         _______ _______ _______ _____ _____    ______ ____
ROOT
ATOM      1  N   UNL     1       4.886   3.206  17.052  0.00  0.00    +0.000 N 
ATOM      2  C   UNL     1       4.079   3.419  18.114  0.00  0.00    +0.000 A 
ATOM      3  N   UNL     1       3.624   4.591  18.488  0.00  0.00    +0.000 NA
ATOM      4  C   UNL     1       2.826   4.466  19.609  0.00  0.00    +0.000 A 
ATOM      5 CL   UNL     1       2.090   5.866  20.272  0.00  0.00    +0.000 Cl
ATOM      6  C   UNL     1       2.715   3.184  20.104  0.00  0.00    +0.000 A 
ATOM      7  S   UNL     1       3.578   2.101  19.100  0.00  0.00    +0.000 S 
ATOM      8  H   UNL     1       5.326   2.291  16.984  0.00  0.00    +0.000 HD
ENDROOT
BRANCH   6   9
ATOM      9  C   UNL     1       2.006   2.792  21.272  0.00  0.00    +0.000 C 
ATOM     10  N   UNL     1       1.443   2.468  22.233  0.00  0.00    +0.000 NA
ENDBRANCH   6   9
BRANCH   1  11
ATOM     11  C   UNL     1       5.794   4.274  16.635  0.00  0.00    +0.000 C 
BRANCH  11  12
ATOM     12  C   UNL     1       5.485   4.706  15.195  0.00  0.00    +0.000 C 
BRANCH  12  14
ATOM     13  C   UNL     1       5.058   6.817  16.168  0.00  0.00    +0.000 C 
ATOM     14  O   UNL     1       5.671   6.125  15.088  0.00  0.00    +0.000 OA
ENDBRANCH  12  14
ENDBRANCH  11  12
ENDBRANCH   1  11
TORSDOF 4
ENDMDL
MODEL 8
REMARK VINA RESULT:      -5.0      2.502      2.943
REMARK  Name = 
REMARK  5 active torsions:
REMARK  status: ('A' for Active; 'I' for Inactive)
REMARK    1  A    between atoms: C_1  and  O_2
REMARK    2  A    between atoms: O_2  and  C_3
REMARK    3  A    between atoms: C_3  and  C_4
REMARK    4  A    between atoms: C_4  and  N_5
REMARK    5  A    between atoms: C_10  and  C_11
REMARK                            x       y       z     vdW  Elec       q    Type
REMARK                         _______ _______ _______ _____ _____    ______ ____
ROOT
ATOM      1  N   UNL     1       5.675   3.636  16.443  0.00  0.00    +0.000 N 
ATOM      2  C   UNL     1       4.634   4.106  17.166  0.00  0.00    +0.000 A 
ATOM      3  N   UNL     1       4.231   5.353  17.177  0.00  0.00    +0.000 NA
ATOM      4  C   UNL     1       3.144   5.504  18.015  0.00  0.00    +0.000 A 
ATOM      5 CL   UNL     1       2.418   7.050  18.174  0.00  0.00    +0.000 Cl
ATOM      6  C   UNL     1       2.754   4.358  18.674  0.00  0.00    +0.000 A 
ATOM      7  S   UNL     1       3.732   3.045  18.176  0.00  0.00    +0.000 S 
ATOM      8  H   UNL     1       6.009   2.702  16.671  0.00  0.00    +0.000 HD
ENDROOT
BRANCH   6   9
ATOM      9  C   UNL     1       1.708   4.251  19.632  0.00  0.00    +0.000 C 
ATOM     10  N   UNL     1       0.863   4.174  20.422  0.00  0.00    +0.000 NA
ENDBRANCH   6   9
BRANCH   1  11
ATOM     11  C   UNL     1       6.779   4.542  16.131  0.00  0.00    +0.000 C 
BRANCH  11  12
ATOM     12  C   UNL     1       6.911   4.720  14.613  0.00  0.00    +0.000 C 
BRANCH  12  14
ATOM     13  C   UNL     1       6.425   3.658  12.558  0.00  0.00    +0.000 C 
ATOM     14  O   UNL     1       6.192   3.663  13.960  0.00  0.00    +0.000 OA
ENDBRANCH  12  14
ENDBRANCH  11  12
ENDBRANCH   1  11
TORSDOF 4
ENDMDL
MODEL 9
REMARK VINA RESULT:      -5.0      3.274      5.553
REMARK  Name = 
REMARK  5 active torsions:
REMARK  status: ('A' for Active; 'I' for Inactive)
REMARK    1  A    between atoms: C_1  and  O_2
REMARK    2  A    between atoms: O_2  and  C_3
REMARK    3  A    between atoms: C_3  and  C_4
REMARK    4  A    between atoms: C_4  and  N_5
REMARK    5  A    between atoms: C_10  and  C_11
REMARK                            x       y       z     vdW  Elec       q    Type
REMARK                         _______ _______ _______ _____ _____    ______ ____
ROOT
ATOM      1  N   UNL     1       4.114   2.741  18.293  0.00  0.00    +0.000 N 
ATOM      2  C   UNL     1       4.485   4.020  18.071  0.00  0.00    +0.000 A 
ATOM      3  N   UNL     1       3.658   5.031  17.951  0.00  0.00    +0.000 NA
ATOM      4  C   UNL     1       4.355   6.204  17.732  0.00  0.00    +0.000 A 
ATOM      5 CL   UNL     1       3.487   7.674  17.570  0.00  0.00    +0.000 Cl
ATOM      6  C   UNL     1       5.723   6.061  17.645  0.00  0.00    +0.000 A 
ATOM      7  S   UNL     1       6.150   4.426  17.914  0.00  0.00    +0.000 S 
ATOM      8  H   UNL     1       4.828   2.026  18.168  0.00  0.00    +0.000 HD
ENDROOT
BRANCH   6   9
ATOM      9  C   UNL     1       6.662   7.091  17.368  0.00  0.00    +0.000 C 
ATOM     10  N   UNL     1       7.426   7.930  17.126  0.00  0.00    +0.000 NA
ENDBRANCH   6   9
BRANCH   1  11
ATOM     11  C   UNL     1       2.811   2.292  17.803  0.00  0.00    +0.000 C 
BRANCH  11  12
ATOM     12  C   UNL     1       1.845   2.078  18.975  0.00  0.00    +0.000 C 
BRANCH  12  14
ATOM     13  C   UNL     1       1.002   3.783  20.379  0.00  0.00    +0.000 C 
ATOM     14  O   UNL     1       0.979   3.219  19.074  0.00  0.00    +0.000 OA
ENDBRANCH  12  14
ENDBRANCH  11  12
ENDBRANCH   1  11
TORSDOF 4
ENDMDL
