MODEL 1
REMARK VINA RESULT:      -6.1      0.000      0.000
REMARK  Name = 
REMARK  5 active torsions:
REMARK  status: ('A' for Active; 'I' for Inactive)
REMARK    1  A    between atoms: C_2  and  C_3
REMARK    2  A    between atoms: C_2  and  C_4
REMARK    3  A    between atoms: C_7  and  C_8
REMARK    4  A    between atoms: C_7  and  O_9
REMARK    5  A    between atoms: O_9  and  O_10
REMARK                            x       y       z     vdW  Elec       q    Type
REMARK                         _______ _______ _______ _____ _____    ______ ____
ROOT
ATOM      1  C   UNL     1       1.874   4.464  18.105  0.00  0.00    +0.000 C 
ATOM      2  C   UNL     1       2.792   3.640  17.246  0.00  0.00    +0.000 C 
ATOM      3  C   UNL     1       4.121   3.811  17.190  0.00  0.00    +0.000 C 
ATOM      4  C   UNL     1       4.896   4.846  17.968  0.00  0.00    +0.000 C 
ATOM      5  C   UNL     1       5.558   5.795  16.959  0.00  0.00    +0.000 C 
ATOM      6  C   UNL     1       4.025   5.598  19.001  0.00  0.00    +0.000 C 
ATOM      7  C   UNL     1       2.548   5.749  18.626  0.00  0.00    +0.000 C 
ENDROOT
BRANCH   1   9
ATOM      8  C   UNL     1       1.028   4.092  20.430  0.00  0.00    +0.000 C 
ATOM      9  C   UNL     1       1.234   3.606  19.192  0.00  0.00    +0.000 C 
ATOM     10  C   UNL     1       0.797   2.208  18.845  0.00  0.00    +0.000 C 
ENDBRANCH   1   9
BRANCH   4  11
ATOM     11  O   UNL     1       5.928   4.100  18.654  0.00  0.00    +0.000 OA
BRANCH  11  12
ATOM     12  O   UNL     1       5.280   3.096  19.496  0.00  0.00    +0.000 OA
ATOM     13  H   UNL     1       5.964   3.090  20.192  0.00  0.00    +0.000 HD
ENDBRANCH  11  12
ENDBRANCH   4  11
TORSDOF 3
ENDMDL
MODEL 2
REMARK VINA RESULT:      -6.1      0.477      1.260
REMARK  Name = 
REMARK  5 active torsions:
REMARK  status: ('A' for Active; 'I' for Inactive)
REMARK    1  A    between atoms: C_2  and  C_3
REMARK    2  A    between atoms: C_2  and  C_4
REMARK    3  A    between atoms: C_7  and  C_8
REMARK    4  A    between atoms: C_7  and  O_9
REMARK    5  A    between atoms: O_9  and  O_10
REMARK                            x       y       z     vdW  Elec       q    Type
REMARK                         _______ _______ _______ _____ _____    ______ ____
ROOT
ATOM      1  C   UNL     1       1.930   4.389  17.948  0.00  0.00    +0.000 C 
ATOM      2  C   UNL     1       2.984   3.582  17.243  0.00  0.00    +0.000 C 
ATOM      3  C   UNL     1       4.298   3.843  17.310  0.00  0.00    +0.000 C 
ATOM      4  C   UNL     1       4.919   4.971  18.095  0.00  0.00    +0.000 C 
ATOM      5  C   UNL     1       5.623   5.905  17.099  0.00  0.00    +0.000 C 
ATOM      6  C   UNL     1       3.898   5.720  18.984  0.00  0.00    +0.000 C 
ATOM      7  C   UNL     1       2.462   5.745  18.452  0.00  0.00    +0.000 C 
ENDROOT
BRANCH   1   9
ATOM      8  C   UNL     1       0.883   2.275  18.784  0.00  0.00    +0.000 C 
ATOM      9  C   UNL     1       1.234   3.552  19.019  0.00  0.00    +0.000 C 
ATOM     10  C   UNL     1       0.981   4.172  20.367  0.00  0.00    +0.000 C 
ENDBRANCH   1   9
BRANCH   4  11
ATOM     11  O   UNL     1       5.918   4.341  18.928  0.00  0.00    +0.000 OA
BRANCH  11  12
ATOM     12  O   UNL     1       7.124   4.150  18.125  0.00  0.00    +0.000 OA
ATOM     13  H   UNL     1       7.090   3.174  18.120  0.00  0.00    +0.000 HD
ENDBRANCH  11  12
ENDBRANCH   4  11
TORSDOF 3
ENDMDL
MODEL 3
REMARK VINA RESULT:      -5.9      1.905      2.867
REMARK  Name = 
REMARK  5 active torsions:
REMARK  status: ('A' for Active; 'I' for Inactive)
REMARK    1  A    between atoms: C_2  and  C_3
REMARK    2  A    between atoms: C_2  and  C_4
REMARK    3  A    between atoms: C_7  and  C_8
REMARK    4  A    between atoms: C_7  and  O_9
REMARK    5  A    between atoms: O_9  and  O_10
REMARK                            x       y       z     vdW  Elec       q    Type
REMARK                         _______ _______ _______ _____ _____    ______ ____
ROOT
ATOM      1  C   UNL     1       3.858   5.864  18.098  0.00  0.00    +0.000 C 
ATOM      2  C   UNL     1       4.520   6.476  16.895  0.00  0.00    +0.000 C 
ATOM      3  C   UNL     1       5.846   6.494  16.697  0.00  0.00    +0.000 C 
ATOM      4  C   UNL     1       6.872   5.910  17.637  0.00  0.00    +0.000 C 
ATOM      5  C   UNL     1       7.760   7.059  18.136  0.00  0.00    +0.000 C 
ATOM      6  C   UNL     1       6.237   5.109  18.797  0.00  0.00    +0.000 C 
ATOM      7  C   UNL     1       4.852   5.589  19.243  0.00  0.00    +0.000 C 
ENDROOT
BRANCH   1   9
ATOM      8  C   UNL     1       1.691   4.622  17.932  0.00  0.00    +0.000 C 
ATOM      9  C   UNL     1       3.015   4.656  17.696  0.00  0.00    +0.000 C 
ATOM     10  C   UNL     1       3.688   3.510  16.989  0.00  0.00    +0.000 C 
ENDBRANCH   1   9
BRANCH   4  11
ATOM     11  O   UNL     1       7.669   5.027  16.816  0.00  0.00    +0.000 OA
BRANCH  11  12
ATOM     12  O   UNL     1       8.267   4.015  17.686  0.00  0.00    +0.000 OA
ATOM     13  H   UNL     1       7.515   3.956  18.306  0.00  0.00    +0.000 HD
ENDBRANCH  11  12
ENDBRANCH   4  11
TORSDOF 3
ENDMDL
MODEL 4
REMARK VINA RESULT:      -5.9      2.449      3.415
REMARK  Name = 
REMARK  5 active torsions:
REMARK  status: ('A' for Active; 'I' for Inactive)
REMARK    1  A    between atoms: C_2  and  C_3
REMARK    2  A    between atoms: C_2  and  C_4
REMARK    3  A    between atoms: C_7  and  C_8
REMARK    4  A    between atoms: C_7  and  O_9
REMARK    5  A    between atoms: O_9  and  O_10
REMARK                            x       y       z     vdW  Elec       q    Type
REMARK                         _______ _______ _______ _____ _____    ______ ____
ROOT
ATOM      1  C   UNL     1       4.699   5.437  18.834  0.00  0.00    +0.000 C 
ATOM      2  C   UNL     1       4.538   6.355  17.655  0.00  0.00    +0.000 C 
ATOM      3  C   UNL     1       5.561   6.834  16.932  0.00  0.00    +0.000 C 
ATOM      4  C   UNL     1       7.018   6.532  17.184  0.00  0.00    +0.000 C 
ATOM      5  C   UNL     1       7.719   7.853  17.531  0.00  0.00    +0.000 C 
ATOM      6  C   UNL     1       7.229   5.450  18.269  0.00  0.00    +0.000 C 
ATOM      7  C   UNL     1       6.149   5.393  19.354  0.00  0.00    +0.000 C 
ENDROOT
BRANCH   1   9
ATOM      8  C   UNL     1       4.379   3.001  19.312  0.00  0.00    +0.000 C 
ATOM      9  C   UNL     1       4.097   4.066  18.539  0.00  0.00    +0.000 C 
ATOM     10  C   UNL     1       3.144   3.930  17.381  0.00  0.00    +0.000 C 
ENDBRANCH   1   9
BRANCH   4  11
ATOM     11  O   UNL     1       7.524   6.054  15.917  0.00  0.00    +0.000 OA
BRANCH  11  12
ATOM     12  O   UNL     1       7.593   4.595  15.977  0.00  0.00    +0.000 OA
ATOM     13  H   UNL     1       6.633   4.444  15.892  0.00  0.00    +0.000 HD
ENDBRANCH  11  12
ENDBRANCH   4  11
TORSDOF 3
ENDMDL
MODEL 5
REMARK VINA RESULT:      -5.8      1.403      1.986
REMARK  Name = 
REMARK  5 active torsions:
REMARK  status: ('A' for Active; 'I' for Inactive)
REMARK    1  A    between atoms: C_2  and  C_3
REMARK    2  A    between atoms: C_2  and  C_4
REMARK    3  A    between atoms: C_7  and  C_8
REMARK    4  A    between atoms: C_7  and  O_9
REMARK    5  A    between atoms: O_9  and  O_10
REMARK                            x       y       z     vdW  Elec       q    Type
REMARK                         _______ _______ _______ _____ _____    ______ ____
ROOT
ATOM      1  C   UNL     1       3.313   4.430  17.386  0.00  0.00    +0.000 C 
ATOM      2  C   UNL     1       4.494   4.067  16.530  0.00  0.00    +0.000 C 
ATOM      3  C   UNL     1       5.760   4.404  16.817  0.00  0.00    +0.000 C 
ATOM      4  C   UNL     1       6.195   5.191  18.028  0.00  0.00    +0.000 C 
ATOM      5  C   UNL     1       6.826   6.501  17.536  0.00  0.00    +0.000 C 
ATOM      6  C   UNL     1       5.045   5.433  19.033  0.00  0.00    +0.000 C 
ATOM      7  C   UNL     1       3.646   5.527  18.417  0.00  0.00    +0.000 C 
ENDROOT
BRANCH   1   9
ATOM      8  C   UNL     1       1.408   3.197  18.442  0.00  0.00    +0.000 C 
ATOM      9  C   UNL     1       2.673   3.180  17.985  0.00  0.00    +0.000 C 
ATOM     10  C   UNL     1       3.475   1.906  18.020  0.00  0.00    +0.000 C 
ENDBRANCH   1   9
BRANCH   4  11
ATOM     11  O   UNL     1       7.221   4.384  18.648  0.00  0.00    +0.000 OA
BRANCH  11  12
ATOM     12  O   UNL     1       8.223   4.064  17.633  0.00  0.00    +0.000 OA
ATOM     13  H   UNL     1       8.578   3.276  18.086  0.00  0.00    +0.000 HD
ENDBRANCH  11  12
ENDBRANCH   4  11
TORSDOF 3
ENDMDL
MODEL 6
REMARK VINA RESULT:      -5.8      1.892      4.144
REMARK  Name = 
REMARK  5 active torsions:
REMARK  status: ('A' for Active; 'I' for Inactive)
REMARK    1  A    between atoms: C_2  and  C_3
REMARK    2  A    between atoms: C_2  and  C_4
REMARK    3  A    between atoms: C_7  and  C_8
REMARK    4  A    between atoms: C_7  and  O_9
REMARK    5  A    between atoms: O_9  and  O_10
REMARK                            x       y       z     vdW  Elec       q    Type
REMARK                         _______ _______ _______ _____ _____    ______ ____
ROOT
ATOM      1  C   UNL     1       3.803   5.484  18.173  0.00  0.00    +0.000 C 
ATOM      2  C   UNL     1       4.223   4.553  19.277  0.00  0.00    +0.000 C 
ATOM      3  C   UNL     1       3.432   3.603  19.798  0.00  0.00    +0.000 C 
ATOM      4  C   UNL     1       2.014   3.321  19.365  0.00  0.00    +0.000 C 
ATOM      5  C   UNL     1       1.095   3.587  20.565  0.00  0.00    +0.000 C 
ATOM      6  C   UNL     1       1.596   4.127  18.113  0.00  0.00    +0.000 C 
ATOM      7  C   UNL     1       2.278   5.489  17.952  0.00  0.00    +0.000 C 
ENDROOT
BRANCH   1   9
ATOM      8  C   UNL     1       4.893   3.975  16.501  0.00  0.00    +0.000 C 
ATOM      9  C   UNL     1       4.619   5.227  16.909  0.00  0.00    +0.000 C 
ATOM     10  C   UNL     1       5.082   6.407  16.097  0.00  0.00    +0.000 C 
ENDBRANCH   1   9
BRANCH   4  11
ATOM     11  O   UNL     1       1.991   1.908  19.064  0.00  0.00    +0.000 OA
BRANCH  11  12
ATOM     12  O   UNL     1       2.408   1.733  17.674  0.00  0.00    +0.000 OA
ATOM     13  H   UNL     1       1.508   1.652  17.306  0.00  0.00    +0.000 HD
ENDBRANCH  11  12
ENDBRANCH   4  11
TORSDOF 3
ENDMDL
MODEL 7
REMARK VINA RESULT:      -5.7      1.274      1.878
REMARK  Name = 
REMARK  5 active torsions:
REMARK  status: ('A' for Active; 'I' for Inactive)
REMARK    1  A    between atoms: C_2  and  C_3
REMARK    2  A    between atoms: C_2  and  C_4
REMARK    3  A    between atoms: C_7  and  C_8
REMARK    4  A    between atoms: C_7  and  O_9
REMARK    5  A    between atoms: O_9  and  O_10
REMARK                            x       y       z     vdW  Elec       q    Type
REMARK                         _______ _______ _______ _____ _____    ______ ____
ROOT
ATOM      1  C   UNL     1       3.076   4.096  17.478  0.00  0.00    +0.000 C 
ATOM      2  C   UNL     1       4.306   3.822  16.659  0.00  0.00    +0.000 C 
ATOM      3  C   UNL     1       5.525   4.297  16.956  0.00  0.00    +0.000 C 
ATOM      4  C   UNL     1       5.851   5.170  18.144  0.00  0.00    +0.000 C 
ATOM      5  C   UNL     1       6.358   6.518  17.611  0.00  0.00    +0.000 C 
ATOM      6  C   UNL     1       4.659   5.331  19.116  0.00  0.00    +0.000 C 
ATOM      7  C   UNL     1       3.272   5.259  18.470  0.00  0.00    +0.000 C 
ENDROOT
BRANCH   1   9
ATOM      8  C   UNL     1       3.346   1.736  18.266  0.00  0.00    +0.000 C 
ATOM      9  C   UNL     1       2.552   2.812  18.114  0.00  0.00    +0.000 C 
ATOM     10  C   UNL     1       1.130   2.779  18.608  0.00  0.00    +0.000 C 
ENDBRANCH   1   9
BRANCH   4  11
ATOM     11  O   UNL     1       6.938   4.495  18.815  0.00  0.00    +0.000 OA
BRANCH  11  12
ATOM     12  O   UNL     1       7.903   4.069  17.803  0.00  0.00    +0.000 OA
ATOM     13  H   UNL     1       8.523   3.645  18.425  0.00  0.00    +0.000 HD
ENDBRANCH  11  12
ENDBRANCH   4  11
TORSDOF 3
ENDMDL
MODEL 8
REMARK VINA RESULT:      -5.7      1.879      4.041
REMARK  Name = 
REMARK  5 active torsions:
REMARK  status: ('A' for Active; 'I' for Inactive)
REMARK    1  A    between atoms: C_2  and  C_3
REMARK    2  A    between atoms: C_2  and  C_4
REMARK    3  A    between atoms: C_7  and  C_8
REMARK    4  A    between atoms: C_7  and  O_9
REMARK    5  A    between atoms: O_9  and  O_10
REMARK                            x       y       z     vdW  Elec       q    Type
REMARK                         _______ _______ _______ _____ _____    ______ ____
ROOT
ATOM      1  C   UNL     1       3.773   5.540  18.198  0.00  0.00    +0.000 C 
ATOM      2  C   UNL     1       4.196   4.585  19.279  0.00  0.00    +0.000 C 
ATOM      3  C   UNL     1       3.407   3.623  19.781  0.00  0.00    +0.000 C 
ATOM      4  C   UNL     1       1.989   3.350  19.345  0.00  0.00    +0.000 C 
ATOM      5  C   UNL     1       1.072   3.588  20.554  0.00  0.00    +0.000 C 
ATOM      6  C   UNL     1       1.567   4.183  18.112  0.00  0.00    +0.000 C 
ATOM      7  C   UNL     1       2.247   5.549  17.981  0.00  0.00    +0.000 C 
ENDROOT
BRANCH   1   9
ATOM      8  C   UNL     1       5.041   6.348  16.197  0.00  0.00    +0.000 C 
ATOM      9  C   UNL     1       4.585   5.313  16.926  0.00  0.00    +0.000 C 
ATOM     10  C   UNL     1       4.905   3.899  16.518  0.00  0.00    +0.000 C 
ENDBRANCH   1   9
BRANCH   4  11
ATOM     11  O   UNL     1       1.965   1.943  19.012  0.00  0.00    +0.000 OA
BRANCH  11  12
ATOM     12  O   UNL     1       2.467   1.791  17.647  0.00  0.00    +0.000 OA
ATOM     13  H   UNL     1       2.163   2.662  17.329  0.00  0.00    +0.000 HD
ENDBRANCH  11  12
ENDBRANCH   4  11
TORSDOF 3
ENDMDL
MODEL 9
REMARK VINA RESULT:      -5.7      2.317      3.059
REMARK  Name = 
REMARK  5 active torsions:
REMARK  status: ('A' for Active; 'I' for Inactive)
REMARK    1  A    between atoms: C_2  and  C_3
REMARK    2  A    between atoms: C_2  and  C_4
REMARK    3  A    between atoms: C_7  and  C_8
REMARK    4  A    between atoms: C_7  and  O_9
REMARK    5  A    between atoms: O_9  and  O_10
REMARK                            x       y       z     vdW  Elec       q    Type
REMARK                         _______ _______ _______ _____ _____    ______ ____
ROOT
ATOM      1  C   UNL     1       3.999   5.459  17.209  0.00  0.00    +0.000 C 
ATOM      2  C   UNL     1       4.441   4.099  16.748  0.00  0.00    +0.000 C 
ATOM      3  C   UNL     1       5.651   3.838  16.231  0.00  0.00    +0.000 C 
ATOM      4  C   UNL     1       6.747   4.857  16.033  0.00  0.00    +0.000 C 
ATOM      5  C   UNL     1       7.033   4.952  14.527  0.00  0.00    +0.000 C 
ATOM      6  C   UNL     1       6.410   6.231  16.657  0.00  0.00    +0.000 C 
ATOM      7  C   UNL     1       4.921   6.585  16.700  0.00  0.00    +0.000 C 
ENDROOT
BRANCH   1   9
ATOM      8  C   UNL     1       4.438   4.631  19.530  0.00  0.00    +0.000 C 
ATOM      9  C   UNL     1       3.771   5.472  18.719  0.00  0.00    +0.000 C 
ATOM     10  C   UNL     1       2.808   6.476  19.294  0.00  0.00    +0.000 C 
ENDBRANCH   1   9
BRANCH   4  11
ATOM     11  O   UNL     1       7.903   4.293  16.693  0.00  0.00    +0.000 OA
BRANCH  11  12
ATOM     12  O   UNL     1       7.644   4.281  18.132  0.00  0.00    +0.000 OA
ATOM     13  H   UNL     1       6.835   3.738  18.085  0.00  0.00    +0.000 HD
ENDBRANCH  11  12
ENDBRANCH   4  11
TORSDOF 3
ENDMDL
