MODEL 1
REMARK VINA RESULT:      -7.8      0.000      0.000
REMARK  Name = 
REMARK  6 active torsions:
REMARK  status: ('A' for Active; 'I' for Inactive)
REMARK    1  A    between atoms: C_1  and  O_2
REMARK    2  A    between atoms: O_2  and  C_3
REMARK    3  A    between atoms: C_6  and  O_7
REMARK    4  A    between atoms: O_7  and  C_8
REMARK    5  A    between atoms: C_9  and  C_10
REMARK    6  A    between atoms: C_16  and  C_17
REMARK                            x       y       z     vdW  Elec       q    Type
REMARK                         _______ _______ _______ _____ _____    ______ ____
ROOT
ATOM      1  C   UNL     1       4.791   4.637  18.012  0.00  0.00    +0.000 C 
ATOM      2  N   UNL     1       3.810   5.494  18.123  0.00  0.00    +0.000 NA
ATOM      3  N   UNL     1       3.028   5.427  19.250  0.00  0.00    +0.000 N 
ATOM      4  C   UNL     1       2.873   4.382  20.130  0.00  0.00    +0.000 A 
ATOM      5  N   UNL     1       2.015   4.673  21.075  0.00  0.00    +0.000 NA
ATOM      6  N   UNL     1       1.580   5.960  20.833  0.00  0.00    +0.000 NA
ATOM      7  C   UNL     1       2.174   6.400  19.739  0.00  0.00    +0.000 A 
ATOM      8  S   UNL     1       3.752   2.920  19.910  0.00  0.00    +0.000 S 
ATOM      9  C   UNL     1       5.199   3.652  19.099  0.00  0.00    +0.000 C 
ENDROOT
BRANCH   1  14
ATOM     10  C   UNL     1       5.599   4.241  14.339  0.00  0.00    +0.000 A 
ATOM     11  C   UNL     1       6.890   4.746  14.256  0.00  0.00    +0.000 A 
ATOM     12  C   UNL     1       7.544   5.209  15.395  0.00  0.00    +0.000 A 
ATOM     13  C   UNL     1       6.929   5.153  16.653  0.00  0.00    +0.000 A 
ATOM     14  C   UNL     1       5.603   4.686  16.741  0.00  0.00    +0.000 A 
ATOM     15  C   UNL     1       4.951   4.234  15.573  0.00  0.00    +0.000 A 
BRANCH  10  17
ATOM     16  C   UNL     1       6.024   3.249  12.222  0.00  0.00    +0.000 C 
ATOM     17  O   UNL     1       5.097   3.794  13.150  0.00  0.00    +0.000 OA
ENDBRANCH  10  17
BRANCH  13  18
ATOM     18  O   UNL     1       7.570   5.606  17.780  0.00  0.00    +0.000 OA
ATOM     19  C   UNL     1       7.640   7.030  17.906  0.00  0.00    +0.000 C 
ENDBRANCH  13  18
ENDBRANCH   1  14
BRANCH   7  20
ATOM     20  C   UNL     1       2.012   7.706  19.186  0.00  0.00    +0.000 A 
ATOM     21  C   UNL     1       2.411   8.167  17.936  0.00  0.00    +0.000 A 
ATOM     22  C   UNL     1       1.996   9.518  17.840  0.00  0.00    +0.000 A 
ATOM     23  C   UNL     1       1.380   9.816  19.029  0.00  0.00    +0.000 A 
ATOM     24  O   UNL     1       1.391   8.737  19.847  0.00  0.00    +0.000 OA
ENDBRANCH   7  20
TORSDOF 4
ENDMDL
MODEL 2
REMARK VINA RESULT:      -7.5      2.638      6.944
REMARK  Name = 
REMARK  6 active torsions:
REMARK  status: ('A' for Active; 'I' for Inactive)
REMARK    1  A    between atoms: C_1  and  O_2
REMARK    2  A    between atoms: O_2  and  C_3
REMARK    3  A    between atoms: C_6  and  O_7
REMARK    4  A    between atoms: O_7  and  C_8
REMARK    5  A    between atoms: C_9  and  C_10
REMARK    6  A    between atoms: C_16  and  C_17
REMARK                            x       y       z     vdW  Elec       q    Type
REMARK                         _______ _______ _______ _____ _____    ______ ____
ROOT
ATOM      1  C   UNL     1       2.002   6.158  20.151  0.00  0.00    +0.000 C 
ATOM      2  N   UNL     1       3.288   5.948  20.041  0.00  0.00    +0.000 NA
ATOM      3  N   UNL     1       3.717   4.646  19.958  0.00  0.00    +0.000 N 
ATOM      4  C   UNL     1       3.057   3.497  20.325  0.00  0.00    +0.000 A 
ATOM      5  N   UNL     1       3.795   2.434  20.126  0.00  0.00    +0.000 NA
ATOM      6  N   UNL     1       4.992   2.876  19.601  0.00  0.00    +0.000 NA
ATOM      7  C   UNL     1       4.947   4.192  19.516  0.00  0.00    +0.000 A 
ATOM      8  S   UNL     1       1.458   3.573  20.955  0.00  0.00    +0.000 S 
ATOM      9  C   UNL     1       0.942   5.069  20.070  0.00  0.00    +0.000 C 
ENDROOT
BRANCH   1  14
ATOM     10  C   UNL     1       0.821   9.310  21.875  0.00  0.00    +0.000 A 
ATOM     11  C   UNL     1       0.763  10.224  20.831  0.00  0.00    +0.000 A 
ATOM     12  C   UNL     1       1.084   9.837  19.532  0.00  0.00    +0.000 A 
ATOM     13  C   UNL     1       1.448   8.515  19.242  0.00  0.00    +0.000 A 
ATOM     14  C   UNL     1       1.554   7.592  20.302  0.00  0.00    +0.000 A 
ATOM     15  C   UNL     1       1.238   8.007  21.614  0.00  0.00    +0.000 A 
BRANCH  10  17
ATOM     16  C   UNL     1      -0.782  10.532  23.135  0.00  0.00    +0.000 C 
ATOM     17  O   UNL     1       0.447   9.822  23.086  0.00  0.00    +0.000 OA
ENDBRANCH  10  17
BRANCH  13  18
ATOM     18  O   UNL     1       1.763   8.127  17.964  0.00  0.00    +0.000 OA
ATOM     19  C   UNL     1       3.110   8.399  17.562  0.00  0.00    +0.000 C 
ENDBRANCH  13  18
ENDBRANCH   1  14
BRANCH   7  20
ATOM     20  C   UNL     1       5.983   5.016  18.983  0.00  0.00    +0.000 A 
ATOM     21  C   UNL     1       6.066   5.585  17.716  0.00  0.00    +0.000 A 
ATOM     22  C   UNL     1       7.262   6.342  17.678  0.00  0.00    +0.000 A 
ATOM     23  C   UNL     1       7.851   6.193  18.909  0.00  0.00    +0.000 A 
ATOM     24  O   UNL     1       7.096   5.392  19.697  0.00  0.00    +0.000 OA
ENDBRANCH   7  20
TORSDOF 4
ENDMDL
MODEL 3
REMARK VINA RESULT:      -7.2      2.617      6.679
REMARK  Name = 
REMARK  6 active torsions:
REMARK  status: ('A' for Active; 'I' for Inactive)
REMARK    1  A    between atoms: C_1  and  O_2
REMARK    2  A    between atoms: O_2  and  C_3
REMARK    3  A    between atoms: C_6  and  O_7
REMARK    4  A    between atoms: O_7  and  C_8
REMARK    5  A    between atoms: C_9  and  C_10
REMARK    6  A    between atoms: C_16  and  C_17
REMARK                            x       y       z     vdW  Elec       q    Type
REMARK                         _______ _______ _______ _____ _____    ______ ____
ROOT
ATOM      1  C   UNL     1       3.422   5.966  18.476  0.00  0.00    +0.000 C 
ATOM      2  N   UNL     1       4.688   6.284  18.534  0.00  0.00    +0.000 NA
ATOM      3  N   UNL     1       5.561   5.577  17.742  0.00  0.00    +0.000 N 
ATOM      4  C   UNL     1       5.386   4.348  17.153  0.00  0.00    +0.000 A 
ATOM      5  N   UNL     1       6.453   3.976  16.492  0.00  0.00    +0.000 NA
ATOM      6  N   UNL     1       7.379   4.990  16.631  0.00  0.00    +0.000 NA
ATOM      7  C   UNL     1       6.850   5.934  17.387  0.00  0.00    +0.000 A 
ATOM      8  S   UNL     1       3.902   3.498  17.334  0.00  0.00    +0.000 S 
ATOM      9  C   UNL     1       2.833   4.952  17.506  0.00  0.00    +0.000 C 
ENDROOT
BRANCH   1  14
ATOM     10  C   UNL     1       1.321   8.821  19.795  0.00  0.00    +0.000 A 
ATOM     11  C   UNL     1       0.722   8.264  20.918  0.00  0.00    +0.000 A 
ATOM     12  C   UNL     1       1.001   6.952  21.292  0.00  0.00    +0.000 A 
ATOM     13  C   UNL     1       1.909   6.171  20.563  0.00  0.00    +0.000 A 
ATOM     14  C   UNL     1       2.486   6.711  19.397  0.00  0.00    +0.000 A 
ATOM     15  C   UNL     1       2.180   8.039  19.025  0.00  0.00    +0.000 A 
BRANCH  10  17
ATOM     16  C   UNL     1       0.710  10.928  20.708  0.00  0.00    +0.000 C 
ATOM     17  O   UNL     1       0.980  10.124  19.568  0.00  0.00    +0.000 OA
ENDBRANCH  10  17
BRANCH  13  18
ATOM     18  O   UNL     1       2.190   4.878  20.929  0.00  0.00    +0.000 OA
ATOM     19  C   UNL     1       1.154   3.930  20.649  0.00  0.00    +0.000 C 
ENDBRANCH  13  18
ENDBRANCH   1  14
BRANCH   7  20
ATOM     20  C   UNL     1       7.486   7.166  17.727  0.00  0.00    +0.000 A 
ATOM     21  C   UNL     1       8.378   7.417  18.763  0.00  0.00    +0.000 A 
ATOM     22  C   UNL     1       8.755   8.778  18.666  0.00  0.00    +0.000 A 
ATOM     23  C   UNL     1       8.073   9.290  17.591  0.00  0.00    +0.000 A 
ATOM     24  O   UNL     1       7.301   8.333  17.025  0.00  0.00    +0.000 OA
ENDBRANCH   7  20
TORSDOF 4
ENDMDL
MODEL 4
REMARK VINA RESULT:      -6.9      1.167      1.412
REMARK  Name = 
REMARK  6 active torsions:
REMARK  status: ('A' for Active; 'I' for Inactive)
REMARK    1  A    between atoms: C_1  and  O_2
REMARK    2  A    between atoms: O_2  and  C_3
REMARK    3  A    between atoms: C_6  and  O_7
REMARK    4  A    between atoms: O_7  and  C_8
REMARK    5  A    between atoms: C_9  and  C_10
REMARK    6  A    between atoms: C_16  and  C_17
REMARK                            x       y       z     vdW  Elec       q    Type
REMARK                         _______ _______ _______ _____ _____    ______ ____
ROOT
ATOM      1  C   UNL     1       4.427   3.753  18.078  0.00  0.00    +0.000 C 
ATOM      2  N   UNL     1       3.502   4.633  18.360  0.00  0.00    +0.000 NA
ATOM      3  N   UNL     1       2.573   4.300  19.315  0.00  0.00    +0.000 N 
ATOM      4  C   UNL     1       2.229   3.054  19.784  0.00  0.00    +0.000 A 
ATOM      5  N   UNL     1       1.275   3.124  20.678  0.00  0.00    +0.000 NA
ATOM      6  N   UNL     1       0.967   4.460  20.825  0.00  0.00    +0.000 NA
ATOM      7  C   UNL     1       1.731   5.155  20.003  0.00  0.00    +0.000 A 
ATOM      8  S   UNL     1       3.027   1.649  19.192  0.00  0.00    +0.000 S 
ATOM      9  C   UNL     1       4.616   2.437  18.820  0.00  0.00    +0.000 C 
ENDROOT
BRANCH   1  14
ATOM     10  C   UNL     1       5.734   4.297  14.571  0.00  0.00    +0.000 A 
ATOM     11  C   UNL     1       7.015   4.784  14.796  0.00  0.00    +0.000 A 
ATOM     12  C   UNL     1       7.499   4.929  16.094  0.00  0.00    +0.000 A 
ATOM     13  C   UNL     1       6.720   4.563  17.200  0.00  0.00    +0.000 A 
ATOM     14  C   UNL     1       5.403   4.112  16.984  0.00  0.00    +0.000 A 
ATOM     15  C   UNL     1       4.924   3.986  15.662  0.00  0.00    +0.000 A 
BRANCH  10  17
ATOM     16  C   UNL     1       6.238   3.349  12.451  0.00  0.00    +0.000 C 
ATOM     17  O   UNL     1       5.406   4.178  13.250  0.00  0.00    +0.000 OA
ENDBRANCH  10  17
BRANCH  13  18
ATOM     18  O   UNL     1       7.193   4.702  18.482  0.00  0.00    +0.000 OA
ATOM     19  C   UNL     1       7.670   6.010  18.814  0.00  0.00    +0.000 C 
ENDBRANCH  13  18
ENDBRANCH   1  14
BRANCH   7  20
ATOM     20  C   UNL     1       1.735   6.579  19.892  0.00  0.00    +0.000 A 
ATOM     21  C   UNL     1       1.421   7.519  20.867  0.00  0.00    +0.000 A 
ATOM     22  C   UNL     1       1.608   8.797  20.287  0.00  0.00    +0.000 A 
ATOM     23  C   UNL     1       2.013   8.577  18.994  0.00  0.00    +0.000 A 
ATOM     24  O   UNL     1       2.085   7.248  18.745  0.00  0.00    +0.000 OA
ENDBRANCH   7  20
TORSDOF 4
ENDMDL
MODEL 5
REMARK VINA RESULT:      -6.4      7.382      9.410
REMARK  Name = 
REMARK  6 active torsions:
REMARK  status: ('A' for Active; 'I' for Inactive)
REMARK    1  A    between atoms: C_1  and  O_2
REMARK    2  A    between atoms: O_2  and  C_3
REMARK    3  A    between atoms: C_6  and  O_7
REMARK    4  A    between atoms: O_7  and  C_8
REMARK    5  A    between atoms: C_9  and  C_10
REMARK    6  A    between atoms: C_16  and  C_17
REMARK                            x       y       z     vdW  Elec       q    Type
REMARK                         _______ _______ _______ _____ _____    ______ ____
ROOT
ATOM      1  C   UNL     1      -1.261  10.620  18.989  0.00  0.00    +0.000 C 
ATOM      2  N   UNL     1      -1.662  10.814  20.218  0.00  0.00    +0.000 NA
ATOM      3  N   UNL     1      -0.767  10.566  21.229  0.00  0.00    +0.000 N 
ATOM      4  C   UNL     1       0.379   9.808  21.198  0.00  0.00    +0.000 A 
ATOM      5  N   UNL     1       0.967   9.774  22.367  0.00  0.00    +0.000 NA
ATOM      6  N   UNL     1       0.198  10.541  23.218  0.00  0.00    +0.000 NA
ATOM      7  C   UNL     1      -0.839  10.999  22.542  0.00  0.00    +0.000 A 
ATOM      8  S   UNL     1       0.878   9.043  19.739  0.00  0.00    +0.000 S 
ATOM      9  C   UNL     1       0.165  10.257  18.598  0.00  0.00    +0.000 C 
ENDROOT
BRANCH   1  14
ATOM     10  C   UNL     1      -2.865  10.351  15.575  0.00  0.00    +0.000 A 
ATOM     11  C   UNL     1      -4.050  11.056  15.739  0.00  0.00    +0.000 A 
ATOM     12  C   UNL     1      -4.352  11.658  16.958  0.00  0.00    +0.000 A 
ATOM     13  C   UNL     1      -3.459  11.592  18.037  0.00  0.00    +0.000 A 
ATOM     14  C   UNL     1      -2.277  10.840  17.894  0.00  0.00    +0.000 A 
ATOM     15  C   UNL     1      -1.994  10.224  16.656  0.00  0.00    +0.000 A 
BRANCH  10  17
ATOM     16  C   UNL     1      -3.792   9.917  13.431  0.00  0.00    +0.000 C 
ATOM     17  O   UNL     1      -2.687   9.842  14.319  0.00  0.00    +0.000 OA
ENDBRANCH  10  17
BRANCH  13  18
ATOM     18  O   UNL     1      -3.751  12.186  19.240  0.00  0.00    +0.000 OA
ATOM     19  C   UNL     1      -5.142  12.227  19.575  0.00  0.00    +0.000 C 
ENDBRANCH  13  18
ENDBRANCH   1  14
BRANCH   7  20
ATOM     20  C   UNL     1      -1.844  11.866  23.067  0.00  0.00    +0.000 A 
ATOM     21  C   UNL     1      -1.859  13.256  23.086  0.00  0.00    +0.000 A 
ATOM     22  C   UNL     1      -3.082  13.651  23.680  0.00  0.00    +0.000 A 
ATOM     23  C   UNL     1      -3.744  12.493  24.001  0.00  0.00    +0.000 A 
ATOM     24  O   UNL     1      -3.006  11.415  23.646  0.00  0.00    +0.000 OA
ENDBRANCH   7  20
TORSDOF 4
ENDMDL
MODEL 6
REMARK VINA RESULT:      -6.3      2.161      3.521
REMARK  Name = 
REMARK  6 active torsions:
REMARK  status: ('A' for Active; 'I' for Inactive)
REMARK    1  A    between atoms: C_1  and  O_2
REMARK    2  A    between atoms: O_2  and  C_3
REMARK    3  A    between atoms: C_6  and  O_7
REMARK    4  A    between atoms: O_7  and  C_8
REMARK    5  A    between atoms: C_9  and  C_10
REMARK    6  A    between atoms: C_16  and  C_17
REMARK                            x       y       z     vdW  Elec       q    Type
REMARK                         _______ _______ _______ _____ _____    ______ ____
ROOT
ATOM      1  C   UNL     1       3.942   6.449  17.601  0.00  0.00    +0.000 C 
ATOM      2  N   UNL     1       3.527   5.900  18.712  0.00  0.00    +0.000 NA
ATOM      3  N   UNL     1       2.543   6.550  19.417  0.00  0.00    +0.000 N 
ATOM      4  C   UNL     1       2.157   7.867  19.341  0.00  0.00    +0.000 A 
ATOM      5  N   UNL     1       1.199   8.137  20.192  0.00  0.00    +0.000 NA
ATOM      6  N   UNL     1       0.920   6.963  20.860  0.00  0.00    +0.000 NA
ATOM      7  C   UNL     1       1.731   6.025  20.407  0.00  0.00    +0.000 A 
ATOM      8  S   UNL     1       2.916   8.935  18.226  0.00  0.00    +0.000 S 
ATOM      9  C   UNL     1       3.326   7.692  16.973  0.00  0.00    +0.000 C 
ENDROOT
BRANCH   1  14
ATOM     10  C   UNL     1       5.679   4.482  14.878  0.00  0.00    +0.000 A 
ATOM     11  C   UNL     1       6.998   4.459  15.313  0.00  0.00    +0.000 A 
ATOM     12  C   UNL     1       7.357   5.064  16.515  0.00  0.00    +0.000 A 
ATOM     13  C   UNL     1       6.396   5.684  17.326  0.00  0.00    +0.000 A 
ATOM     14  C   UNL     1       5.065   5.752  16.871  0.00  0.00    +0.000 A 
ATOM     15  C   UNL     1       4.723   5.146  15.643  0.00  0.00    +0.000 A 
BRANCH  10  17
ATOM     16  C   UNL     1       6.538   3.814  12.765  0.00  0.00    +0.000 C 
ATOM     17  O   UNL     1       5.469   3.822  13.700  0.00  0.00    +0.000 OA
ENDBRANCH  10  17
BRANCH  13  18
ATOM     18  O   UNL     1       6.744   6.280  18.514  0.00  0.00    +0.000 OA
ATOM     19  C   UNL     1       7.872   5.698  19.176  0.00  0.00    +0.000 C 
ENDBRANCH  13  18
ENDBRANCH   1  14
BRANCH   7  20
ATOM     20  C   UNL     1       1.723   4.660  20.825  0.00  0.00    +0.000 A 
ATOM     21  C   UNL     1       0.936   3.617  20.347  0.00  0.00    +0.000 A 
ATOM     22  C   UNL     1       1.320   2.451  21.052  0.00  0.00    +0.000 A 
ATOM     23  C   UNL     1       2.306   2.836  21.924  0.00  0.00    +0.000 A 
ATOM     24  O   UNL     1       2.550   4.162  21.802  0.00  0.00    +0.000 OA
ENDBRANCH   7  20
TORSDOF 4
ENDMDL
MODEL 7
REMARK VINA RESULT:      -6.3      2.154      6.865
REMARK  Name = 
REMARK  6 active torsions:
REMARK  status: ('A' for Active; 'I' for Inactive)
REMARK    1  A    between atoms: C_1  and  O_2
REMARK    2  A    between atoms: O_2  and  C_3
REMARK    3  A    between atoms: C_6  and  O_7
REMARK    4  A    between atoms: O_7  and  C_8
REMARK    5  A    between atoms: C_9  and  C_10
REMARK    6  A    between atoms: C_16  and  C_17
REMARK                            x       y       z     vdW  Elec       q    Type
REMARK                         _______ _______ _______ _____ _____    ______ ____
ROOT
ATOM      1  C   UNL     1       1.931   5.940  20.174  0.00  0.00    +0.000 C 
ATOM      2  N   UNL     1       2.967   5.763  19.397  0.00  0.00    +0.000 NA
ATOM      3  N   UNL     1       3.426   4.480  19.227  0.00  0.00    +0.000 N 
ATOM      4  C   UNL     1       3.203   3.375  20.013  0.00  0.00    +0.000 A 
ATOM      5  N   UNL     1       3.831   2.323  19.553  0.00  0.00    +0.000 NA
ATOM      6  N   UNL     1       4.495   2.725  18.412  0.00  0.00    +0.000 NA
ATOM      7  C   UNL     1       4.263   4.011  18.229  0.00  0.00    +0.000 A 
ATOM      8  S   UNL     1       2.203   3.486  21.409  0.00  0.00    +0.000 S 
ATOM      9  C   UNL     1       1.126   4.813  20.805  0.00  0.00    +0.000 C 
ENDROOT
BRANCH   1  14
ATOM     10  C   UNL     1       0.455   8.919  21.978  0.00  0.00    +0.000 A 
ATOM     11  C   UNL     1       0.624   9.946  21.057  0.00  0.00    +0.000 A 
ATOM     12  C   UNL     1       1.202   9.695  19.815  0.00  0.00    +0.000 A 
ATOM     13  C   UNL     1       1.602   8.401  19.453  0.00  0.00    +0.000 A 
ATOM     14  C   UNL     1       1.477   7.363  20.397  0.00  0.00    +0.000 A 
ATOM     15  C   UNL     1       0.902   7.639  21.657  0.00  0.00    +0.000 A 
BRANCH  10  17
ATOM     16  C   UNL     1      -0.919  10.501  23.100  0.00  0.00    +0.000 C 
ATOM     17  O   UNL     1      -0.154   9.304  23.138  0.00  0.00    +0.000 OA
ENDBRANCH  10  17
BRANCH  13  18
ATOM     18  O   UNL     1       2.170   8.148  18.229  0.00  0.00    +0.000 OA
ATOM     19  C   UNL     1       2.413   9.305  17.423  0.00  0.00    +0.000 C 
ENDBRANCH  13  18
ENDBRANCH   1  14
BRANCH   7  20
ATOM     20  C   UNL     1       4.746   4.785  17.131  0.00  0.00    +0.000 A 
ATOM     21  C   UNL     1       5.203   4.335  15.897  0.00  0.00    +0.000 A 
ATOM     22  C   UNL     1       5.538   5.482  15.136  0.00  0.00    +0.000 A 
ATOM     23  C   UNL     1       5.281   6.565  15.939  0.00  0.00    +0.000 A 
ATOM     24  O   UNL     1       4.812   6.157  17.142  0.00  0.00    +0.000 OA
ENDBRANCH   7  20
TORSDOF 4
ENDMDL
MODEL 8
REMARK VINA RESULT:      -6.1      2.713      6.550
REMARK  Name = 
REMARK  6 active torsions:
REMARK  status: ('A' for Active; 'I' for Inactive)
REMARK    1  A    between atoms: C_1  and  O_2
REMARK    2  A    between atoms: O_2  and  C_3
REMARK    3  A    between atoms: C_6  and  O_7
REMARK    4  A    between atoms: O_7  and  C_8
REMARK    5  A    between atoms: C_9  and  C_10
REMARK    6  A    between atoms: C_16  and  C_17
REMARK                            x       y       z     vdW  Elec       q    Type
REMARK                         _______ _______ _______ _____ _____    ______ ____
ROOT
ATOM      1  C   UNL     1       2.151   6.573  19.563  0.00  0.00    +0.000 C 
ATOM      2  N   UNL     1       3.429   6.308  19.642  0.00  0.00    +0.000 NA
ATOM      3  N   UNL     1       3.805   4.988  19.699  0.00  0.00    +0.000 N 
ATOM      4  C   UNL     1       3.051   3.892  20.043  0.00  0.00    +0.000 A 
ATOM      5  N   UNL     1       3.760   2.792  20.013  0.00  0.00    +0.000 NA
ATOM      6  N   UNL     1       5.035   3.153  19.629  0.00  0.00    +0.000 NA
ATOM      7  C   UNL     1       5.061   4.461  19.456  0.00  0.00    +0.000 A 
ATOM      8  S   UNL     1       1.388   4.070  20.446  0.00  0.00    +0.000 S 
ATOM      9  C   UNL     1       1.063   5.520  19.408  0.00  0.00    +0.000 C 
ENDROOT
BRANCH   1  14
ATOM     10  C   UNL     1       1.928  10.156  18.375  0.00  0.00    +0.000 A 
ATOM     11  C   UNL     1       1.089  10.737  19.318  0.00  0.00    +0.000 A 
ATOM     12  C   UNL     1       0.590   9.987  20.379  0.00  0.00    +0.000 A 
ATOM     13  C   UNL     1       0.940   8.639  20.538  0.00  0.00    +0.000 A 
ATOM     14  C   UNL     1       1.753   8.029  19.562  0.00  0.00    +0.000 A 
ATOM     15  C   UNL     1       2.238   8.802  18.485  0.00  0.00    +0.000 A 
BRANCH  10  17
ATOM     16  C   UNL     1       2.661  12.347  17.818  0.00  0.00    +0.000 C 
ATOM     17  O   UNL     1       2.366  11.019  17.410  0.00  0.00    +0.000 OA
ENDBRANCH  10  17
BRANCH  13  18
ATOM     18  O   UNL     1       0.453   7.895  21.584  0.00  0.00    +0.000 OA
ATOM     19  C   UNL     1      -0.454   8.586  22.449  0.00  0.00    +0.000 C 
ENDBRANCH  13  18
ENDBRANCH   1  14
BRANCH   7  20
ATOM     20  C   UNL     1       6.196   5.208  19.018  0.00  0.00    +0.000 A 
ATOM     21  C   UNL     1       6.398   5.826  17.788  0.00  0.00    +0.000 A 
ATOM     22  C   UNL     1       7.658   6.468  17.848  0.00  0.00    +0.000 A 
ATOM     23  C   UNL     1       8.164   6.206  19.096  0.00  0.00    +0.000 A 
ATOM     24  O   UNL     1       7.298   5.443  19.803  0.00  0.00    +0.000 OA
ENDBRANCH   7  20
TORSDOF 4
ENDMDL
MODEL 9
REMARK VINA RESULT:      -6.1      7.373     10.544
REMARK  Name = 
REMARK  6 active torsions:
REMARK  status: ('A' for Active; 'I' for Inactive)
REMARK    1  A    between atoms: C_1  and  O_2
REMARK    2  A    between atoms: O_2  and  C_3
REMARK    3  A    between atoms: C_6  and  O_7
REMARK    4  A    between atoms: O_7  and  C_8
REMARK    5  A    between atoms: C_9  and  C_10
REMARK    6  A    between atoms: C_16  and  C_17
REMARK                            x       y       z     vdW  Elec       q    Type
REMARK                         _______ _______ _______ _____ _____    ______ ____
ROOT
ATOM      1  C   UNL     1      -1.420  12.613  20.088  0.00  0.00    +0.000 C 
ATOM      2  N   UNL     1      -2.055  12.546  21.229  0.00  0.00    +0.000 NA
ATOM      3  N   UNL     1      -1.634  13.370  22.244  0.00  0.00    +0.000 N 
ATOM      4  C   UNL     1      -0.427  14.012  22.387  0.00  0.00    +0.000 A 
ATOM      5  N   UNL     1      -0.374  14.692  23.504  0.00  0.00    +0.000 NA
ATOM      6  N   UNL     1      -1.587  14.513  24.135  0.00  0.00    +0.000 NA
ATOM      7  C   UNL     1      -2.329  13.715  23.390  0.00  0.00    +0.000 A 
ATOM      8  S   UNL     1       0.788  13.863  21.179  0.00  0.00    +0.000 S 
ATOM      9  C   UNL     1      -0.328  13.625  19.770  0.00  0.00    +0.000 C 
ENDROOT
BRANCH   1  14
ATOM     10  C   UNL     1      -3.597  11.136  17.371  0.00  0.00    +0.000 A 
ATOM     11  C   UNL     1      -2.838  10.061  16.925  0.00  0.00    +0.000 A 
ATOM     12  C   UNL     1      -1.607   9.772  17.509  0.00  0.00    +0.000 A 
ATOM     13  C   UNL     1      -1.117  10.538  18.575  0.00  0.00    +0.000 A 
ATOM     14  C   UNL     1      -1.857  11.657  19.004  0.00  0.00    +0.000 A 
ATOM     15  C   UNL     1      -3.096  11.944  18.390  0.00  0.00    +0.000 A 
BRANCH  10  17
ATOM     16  C   UNL     1      -5.766  12.106  17.352  0.00  0.00    +0.000 C 
ATOM     17  O   UNL     1      -4.794  11.279  16.729  0.00  0.00    +0.000 OA
ENDBRANCH  10  17
BRANCH  13  18
ATOM     18  O   UNL     1       0.095  10.256  19.157  0.00  0.00    +0.000 OA
ATOM     19  C   UNL     1       1.085   9.727  18.269  0.00  0.00    +0.000 C 
ENDBRANCH  13  18
ENDBRANCH   1  14
BRANCH   7  20
ATOM     20  C   UNL     1      -3.669  13.324  23.687  0.00  0.00    +0.000 A 
ATOM     21  C   UNL     1      -4.849  13.787  23.114  0.00  0.00    +0.000 A 
ATOM     22  C   UNL     1      -5.912  13.073  23.718  0.00  0.00    +0.000 A 
ATOM     23  C   UNL     1      -5.336  12.223  24.628  0.00  0.00    +0.000 A 
ATOM     24  O   UNL     1      -3.991  12.372  24.624  0.00  0.00    +0.000 OA
ENDBRANCH   7  20
TORSDOF 4
ENDMDL
