MODEL 1
REMARK VINA RESULT:      -7.8      0.000      0.000
REMARK  Name = 
REMARK  10 active torsions:
REMARK  status: ('A' for Active; 'I' for Inactive)
REMARK    1  A    between atoms: C_1  and  O_2
REMARK    2  A    between atoms: O_2  and  C_3
REMARK    3  A    between atoms: C_3  and  C_5
REMARK    4  A    between atoms: C_9  and  C_10
REMARK    5  A    between atoms: C_9  and  C_11
REMARK    6  A    between atoms: N_13  and  S_14
REMARK    7  A    between atoms: S_14  and  C_17
REMARK    8  A    between atoms: C_20  and  C_21
REMARK    9  A    between atoms: C_24  and  C_25
REMARK   10  A    between atoms: C_24  and  C_26
REMARK                            x       y       z     vdW  Elec       q    Type
REMARK                         _______ _______ _______ _____ _____    ______ ____
ROOT
ATOM      1  C   UNL     1       2.732   7.400  17.907  0.00  0.00    +0.000 C 
ATOM      2  O   UNL     1       2.970   7.786  16.773  0.00  0.00    +0.000 OA
ATOM      3  N   UNL     1       1.942   8.177  18.775  0.00  0.00    +0.000 N 
ATOM      4  H   UNL     1       1.772   7.931  19.744  0.00  0.00    +0.000 HD
ENDROOT
BRANCH   1   9
ATOM      5  C   UNL     1       5.597   3.944  16.304  0.00  0.00    +0.000 C 
ATOM      6  C   UNL     1       4.732   4.473  17.198  0.00  0.00    +0.000 C 
ATOM      7  C   UNL     1       3.431   3.783  17.499  0.00  0.00    +0.000 C 
ATOM      8  C   UNL     1       2.471   4.922  17.754  0.00  0.00    +0.000 C 
ATOM      9  C   UNL     1       3.287   6.052  18.452  0.00  0.00    +0.000 C 
ATOM     10  C   UNL     1       3.002   5.963  19.970  0.00  0.00    +0.000 C 
ATOM     11  C   UNL     1       4.809   5.762  18.038  0.00  0.00    +0.000 C 
ATOM     12  C   UNL     1       5.701   5.455  19.263  0.00  0.00    +0.000 C 
ATOM     13  C   UNL     1       5.410   6.951  17.262  0.00  0.00    +0.000 C 
BRANCH   5  14
ATOM     14  C   UNL     1       6.991   4.380  16.047  0.00  0.00    +0.000 C 
ATOM     15  O   UNL     1       7.894   4.329  16.865  0.00  0.00    +0.000 OA
BRANCH  14  17
ATOM     16  C   UNL     1       6.315   4.033  13.841  0.00  0.00    +0.000 C 
ATOM     17  O   UNL     1       7.113   4.786  14.761  0.00  0.00    +0.000 OA
ENDBRANCH  14  17
ENDBRANCH   5  14
ENDBRANCH   1   9
BRANCH   3  18
ATOM     18  S   UNL     1       1.272   9.647  18.362  0.00  0.00    +0.000 S 
ATOM     19  O   UNL     1       2.401  10.522  18.124  0.00  0.00    +0.000 OA
ATOM     20  O   UNL     1       0.266   9.456  17.342  0.00  0.00    +0.000 OA
BRANCH  18  21
ATOM     21  C   UNL     1       0.483  10.202  19.861  0.00  0.00    +0.000 A 
ATOM     22  C   UNL     1      -0.195  11.426  19.886  0.00  0.00    +0.000 A 
ATOM     23  C   UNL     1      -0.885  11.815  21.040  0.00  0.00    +0.000 A 
ATOM     24  C   UNL     1      -0.911  10.985  22.169  0.00  0.00    +0.000 A 
ATOM     25  C   UNL     1      -1.664  11.378  23.408  0.00  0.00    +0.000 C 
ATOM     26  C   UNL     1      -0.238   9.757  22.128  0.00  0.00    +0.000 A 
ATOM     27  C   UNL     1       0.449   9.361  20.977  0.00  0.00    +0.000 A 
ENDBRANCH  18  21
ENDBRANCH   3  18
TORSDOF 5
ENDMDL
MODEL 2
REMARK VINA RESULT:      -7.0      1.910      2.481
REMARK  Name = 
REMARK  10 active torsions:
REMARK  status: ('A' for Active; 'I' for Inactive)
REMARK    1  A    between atoms: C_1  and  O_2
REMARK    2  A    between atoms: O_2  and  C_3
REMARK    3  A    between atoms: C_3  and  C_5
REMARK    4  A    between atoms: C_9  and  C_10
REMARK    5  A    between atoms: C_9  and  C_11
REMARK    6  A    between atoms: N_13  and  S_14
REMARK    7  A    between atoms: S_14  and  C_17
REMARK    8  A    between atoms: C_20  and  C_21
REMARK    9  A    between atoms: C_24  and  C_25
REMARK   10  A    between atoms: C_24  and  C_26
REMARK                            x       y       z     vdW  Elec       q    Type
REMARK                         _______ _______ _______ _____ _____    ______ ____
ROOT
ATOM      1  C   UNL     1       2.219   8.007  18.345  0.00  0.00    +0.000 C 
ATOM      2  O   UNL     1       2.487   8.443  17.237  0.00  0.00    +0.000 OA
ATOM      3  N   UNL     1       1.660   8.846  19.328  0.00  0.00    +0.000 N 
ATOM      4  H   UNL     1       1.481   8.548  20.280  0.00  0.00    +0.000 HD
ENDROOT
BRANCH   1   9
ATOM      5  C   UNL     1       4.408   4.260  16.376  0.00  0.00    +0.000 C 
ATOM      6  C   UNL     1       3.633   4.844  17.316  0.00  0.00    +0.000 C 
ATOM      7  C   UNL     1       2.213   4.394  17.519  0.00  0.00    +0.000 C 
ATOM      8  C   UNL     1       1.486   5.663  17.897  0.00  0.00    +0.000 C 
ATOM      9  C   UNL     1       2.481   6.523  18.733  0.00  0.00    +0.000 C 
ATOM     10  C   UNL     1       2.133   6.319  20.226  0.00  0.00    +0.000 C 
ATOM     11  C   UNL     1       3.931   5.987  18.305  0.00  0.00    +0.000 C 
ATOM     12  C   UNL     1       4.704   5.372  19.494  0.00  0.00    +0.000 C 
ATOM     13  C   UNL     1       4.778   7.115  17.681  0.00  0.00    +0.000 C 
BRANCH   5  14
ATOM     14  C   UNL     1       5.869   4.438  16.188  0.00  0.00    +0.000 C 
ATOM     15  O   UNL     1       6.717   4.101  16.996  0.00  0.00    +0.000 OA
BRANCH  14  17
ATOM     16  C   UNL     1       6.274   4.005  13.931  0.00  0.00    +0.000 C 
ATOM     17  O   UNL     1       6.110   4.978  14.969  0.00  0.00    +0.000 OA
ENDBRANCH  14  17
ENDBRANCH   5  14
ENDBRANCH   1   9
BRANCH   3  18
ATOM     18  S   UNL     1       1.317  10.461  19.090  0.00  0.00    +0.000 S 
ATOM     19  O   UNL     1       1.373  11.056  20.409  0.00  0.00    +0.000 OA
ATOM     20  O   UNL     1       2.134  10.981  18.017  0.00  0.00    +0.000 OA
BRANCH  18  21
ATOM     21  C   UNL     1      -0.391  10.472  18.579  0.00  0.00    +0.000 A 
ATOM     22  C   UNL     1      -1.310  11.308  19.223  0.00  0.00    +0.000 A 
ATOM     23  C   UNL     1      -2.629  11.375  18.761  0.00  0.00    +0.000 A 
ATOM     24  C   UNL     1      -3.037  10.620  17.653  0.00  0.00    +0.000 A 
ATOM     25  C   UNL     1      -4.443  10.698  17.132  0.00  0.00    +0.000 C 
ATOM     26  C   UNL     1      -2.104   9.797  17.010  0.00  0.00    +0.000 A 
ATOM     27  C   UNL     1      -0.784   9.728  17.464  0.00  0.00    +0.000 A 
ENDBRANCH  18  21
ENDBRANCH   3  18
TORSDOF 5
ENDMDL
MODEL 3
REMARK VINA RESULT:      -6.7      6.328     10.792
REMARK  Name = 
REMARK  10 active torsions:
REMARK  status: ('A' for Active; 'I' for Inactive)
REMARK    1  A    between atoms: C_1  and  O_2
REMARK    2  A    between atoms: O_2  and  C_3
REMARK    3  A    between atoms: C_3  and  C_5
REMARK    4  A    between atoms: C_9  and  C_10
REMARK    5  A    between atoms: C_9  and  C_11
REMARK    6  A    between atoms: N_13  and  S_14
REMARK    7  A    between atoms: S_14  and  C_17
REMARK    8  A    between atoms: C_20  and  C_21
REMARK    9  A    between atoms: C_24  and  C_25
REMARK   10  A    between atoms: C_24  and  C_26
REMARK                            x       y       z     vdW  Elec       q    Type
REMARK                         _______ _______ _______ _____ _____    ______ ____
ROOT
ATOM      1  C   UNL     1      -4.171  11.409  18.350  0.00  0.00    +0.000 C 
ATOM      2  O   UNL     1      -3.976  10.218  18.165  0.00  0.00    +0.000 OA
ATOM      3  N   UNL     1      -3.096  12.318  18.351  0.00  0.00    +0.000 N 
ATOM      4  H   UNL     1      -3.200  13.303  18.564  0.00  0.00    +0.000 HD
ENDROOT
BRANCH   1   9
ATOM      5  C   UNL     1      -7.088  11.902  22.087  0.00  0.00    +0.000 C 
ATOM      6  C   UNL     1      -6.804  11.954  20.766  0.00  0.00    +0.000 C 
ATOM      7  C   UNL     1      -7.575  11.114  19.787  0.00  0.00    +0.000 C 
ATOM      8  C   UNL     1      -6.549  10.756  18.737  0.00  0.00    +0.000 C 
ATOM      9  C   UNL     1      -5.596  11.981  18.600  0.00  0.00    +0.000 C 
ATOM     10  C   UNL     1      -6.045  12.784  17.356  0.00  0.00    +0.000 C 
ATOM     11  C   UNL     1      -5.747  12.764  19.991  0.00  0.00    +0.000 C 
ATOM     12  C   UNL     1      -6.312  14.190  19.804  0.00  0.00    +0.000 C 
ATOM     13  C   UNL     1      -4.395  12.849  20.729  0.00  0.00    +0.000 C 
BRANCH   5  14
ATOM     14  C   UNL     1      -6.573  12.802  23.146  0.00  0.00    +0.000 C 
ATOM     15  O   UNL     1      -6.822  13.994  23.224  0.00  0.00    +0.000 OA
BRANCH  14  17
ATOM     16  C   UNL     1      -4.623  12.741  24.425  0.00  0.00    +0.000 C 
ATOM     17  O   UNL     1      -5.837  12.091  24.033  0.00  0.00    +0.000 OA
ENDBRANCH  14  17
ENDBRANCH   5  14
ENDBRANCH   1   9
BRANCH   3  18
ATOM     18  S   UNL     1      -1.505  11.881  18.106  0.00  0.00    +0.000 S 
ATOM     19  O   UNL     1      -1.559  10.773  17.174  0.00  0.00    +0.000 OA
ATOM     20  O   UNL     1      -0.717  13.054  17.804  0.00  0.00    +0.000 OA
BRANCH  18  21
ATOM     21  C   UNL     1      -0.988  11.221  19.679  0.00  0.00    +0.000 A 
ATOM     22  C   UNL     1      -1.140  11.982  20.843  0.00  0.00    +0.000 A 
ATOM     23  C   UNL     1      -0.811  11.425  22.085  0.00  0.00    +0.000 A 
ATOM     24  C   UNL     1      -0.342  10.108  22.174  0.00  0.00    +0.000 A 
ATOM     25  C   UNL     1      -0.005   9.489  23.500  0.00  0.00    +0.000 C 
ATOM     26  C   UNL     1      -0.206   9.353  21.002  0.00  0.00    +0.000 A 
ATOM     27  C   UNL     1      -0.535   9.902  19.760  0.00  0.00    +0.000 A 
ENDBRANCH  18  21
ENDBRANCH   3  18
TORSDOF 5
ENDMDL
MODEL 4
REMARK VINA RESULT:      -6.7      0.910      1.602
REMARK  Name = 
REMARK  10 active torsions:
REMARK  status: ('A' for Active; 'I' for Inactive)
REMARK    1  A    between atoms: C_1  and  O_2
REMARK    2  A    between atoms: O_2  and  C_3
REMARK    3  A    between atoms: C_3  and  C_5
REMARK    4  A    between atoms: C_9  and  C_10
REMARK    5  A    between atoms: C_9  and  C_11
REMARK    6  A    between atoms: N_13  and  S_14
REMARK    7  A    between atoms: S_14  and  C_17
REMARK    8  A    between atoms: C_20  and  C_21
REMARK    9  A    between atoms: C_24  and  C_25
REMARK   10  A    between atoms: C_24  and  C_26
REMARK                            x       y       z     vdW  Elec       q    Type
REMARK                         _______ _______ _______ _____ _____    ______ ____
ROOT
ATOM      1  C   UNL     1       2.151   7.736  18.141  0.00  0.00    +0.000 C 
ATOM      2  O   UNL     1       2.516   8.173  17.061  0.00  0.00    +0.000 OA
ATOM      3  N   UNL     1       1.337   8.513  18.988  0.00  0.00    +0.000 N 
ATOM      4  H   UNL     1       1.063   8.221  19.919  0.00  0.00    +0.000 HD
ENDROOT
BRANCH   1   9
ATOM      5  C   UNL     1       4.666   4.068  16.428  0.00  0.00    +0.000 C 
ATOM      6  C   UNL     1       3.852   4.650  17.337  0.00  0.00    +0.000 C 
ATOM      7  C   UNL     1       2.486   4.084  17.609  0.00  0.00    +0.000 C 
ATOM      8  C   UNL     1       1.644   5.304  17.900  0.00  0.00    +0.000 C 
ATOM      9  C   UNL     1       2.563   6.321  18.640  0.00  0.00    +0.000 C 
ATOM     10  C   UNL     1       2.260   6.209  20.153  0.00  0.00    +0.000 C 
ATOM     11  C   UNL     1       4.052   5.894  18.223  0.00  0.00    +0.000 C 
ATOM     12  C   UNL     1       4.899   5.457  19.439  0.00  0.00    +0.000 C 
ATOM     13  C   UNL     1       4.774   7.044  17.491  0.00  0.00    +0.000 C 
BRANCH   5  14
ATOM     14  C   UNL     1       6.099   4.371  16.192  0.00  0.00    +0.000 C 
ATOM     15  O   UNL     1       6.528   4.987  15.231  0.00  0.00    +0.000 OA
BRANCH  14  17
ATOM     16  C   UNL     1       7.772   4.867  17.741  0.00  0.00    +0.000 C 
ATOM     17  O   UNL     1       6.840   3.908  17.227  0.00  0.00    +0.000 OA
ENDBRANCH  14  17
ENDBRANCH   5  14
ENDBRANCH   1   9
BRANCH   3  18
ATOM     18  S   UNL     1       0.805  10.050  18.618  0.00  0.00    +0.000 S 
ATOM     19  O   UNL     1       2.006  10.858  18.555  0.00  0.00    +0.000 OA
ATOM     20  O   UNL     1      -0.101   9.996  17.493  0.00  0.00    +0.000 OA
BRANCH  18  21
ATOM     21  C   UNL     1      -0.097  10.559  20.069  0.00  0.00    +0.000 A 
ATOM     22  C   UNL     1       0.192   9.986  21.312  0.00  0.00    +0.000 A 
ATOM     23  C   UNL     1      -0.460  10.451  22.460  0.00  0.00    +0.000 A 
ATOM     24  C   UNL     1      -1.393  11.493  22.377  0.00  0.00    +0.000 A 
ATOM     25  C   UNL     1      -2.085  12.018  23.603  0.00  0.00    +0.000 C 
ATOM     26  C   UNL     1      -1.664  12.067  21.128  0.00  0.00    +0.000 A 
ATOM     27  C   UNL     1      -1.015  11.609  19.979  0.00  0.00    +0.000 A 
ENDBRANCH  18  21
ENDBRANCH   3  18
TORSDOF 5
ENDMDL
MODEL 5
REMARK VINA RESULT:      -6.7      3.722      7.955
REMARK  Name = 
REMARK  10 active torsions:
REMARK  status: ('A' for Active; 'I' for Inactive)
REMARK    1  A    between atoms: C_1  and  O_2
REMARK    2  A    between atoms: O_2  and  C_3
REMARK    3  A    between atoms: C_3  and  C_5
REMARK    4  A    between atoms: C_9  and  C_10
REMARK    5  A    between atoms: C_9  and  C_11
REMARK    6  A    between atoms: N_13  and  S_14
REMARK    7  A    between atoms: S_14  and  C_17
REMARK    8  A    between atoms: C_20  and  C_21
REMARK    9  A    between atoms: C_24  and  C_25
REMARK   10  A    between atoms: C_24  and  C_26
REMARK                            x       y       z     vdW  Elec       q    Type
REMARK                         _______ _______ _______ _____ _____    ______ ____
ROOT
ATOM      1  C   UNL     1       4.342   6.227  17.261  0.00  0.00    +0.000 C 
ATOM      2  O   UNL     1       4.439   7.181  16.505  0.00  0.00    +0.000 OA
ATOM      3  N   UNL     1       5.437   5.366  17.468  0.00  0.00    +0.000 N 
ATOM      4  H   UNL     1       5.385   4.526  18.033  0.00  0.00    +0.000 HD
ENDROOT
BRANCH   1   9
ATOM      5  C   UNL     1       2.628   2.596  19.828  0.00  0.00    +0.000 C 
ATOM      6  C   UNL     1       2.509   3.781  19.190  0.00  0.00    +0.000 C 
ATOM      7  C   UNL     1       1.535   3.942  18.056  0.00  0.00    +0.000 C 
ATOM      8  C   UNL     1       2.226   4.911  17.125  0.00  0.00    +0.000 C 
ATOM      9  C   UNL     1       3.022   5.907  18.019  0.00  0.00    +0.000 C 
ATOM     10  C   UNL     1       2.181   7.200  18.140  0.00  0.00    +0.000 C 
ATOM     11  C   UNL     1       3.241   5.120  19.399  0.00  0.00    +0.000 C 
ATOM     12  C   UNL     1       2.562   5.829  20.593  0.00  0.00    +0.000 C 
ATOM     13  C   UNL     1       4.742   4.943  19.705  0.00  0.00    +0.000 C 
BRANCH   5  14
ATOM     14  C   UNL     1       3.378   2.328  21.079  0.00  0.00    +0.000 C 
ATOM     15  O   UNL     1       4.516   1.893  21.125  0.00  0.00    +0.000 OA
BRANCH  14  17
ATOM     16  C   UNL     1       1.218   2.645  21.904  0.00  0.00    +0.000 C 
ATOM     17  O   UNL     1       2.628   2.690  22.148  0.00  0.00    +0.000 OA
ENDBRANCH  14  17
ENDBRANCH   5  14
ENDBRANCH   1   9
BRANCH   3  18
ATOM     18  S   UNL     1       6.923   5.553  16.736  0.00  0.00    +0.000 S 
ATOM     19  O   UNL     1       7.104   6.985  16.612  0.00  0.00    +0.000 OA
ATOM     20  O   UNL     1       7.909   4.747  17.418  0.00  0.00    +0.000 OA
BRANCH  18  21
ATOM     21  C   UNL     1       6.681   4.910  15.091  0.00  0.00    +0.000 A 
ATOM     22  C   UNL     1       7.597   5.213  14.077  0.00  0.00    +0.000 A 
ATOM     23  C   UNL     1       7.448   4.636  12.811  0.00  0.00    +0.000 A 
ATOM     24  C   UNL     1       6.395   3.748  12.551  0.00  0.00    +0.000 A 
ATOM     25  C   UNL     1       6.234   3.103  11.204  0.00  0.00    +0.000 C 
ATOM     26  C   UNL     1       5.492   3.444  13.578  0.00  0.00    +0.000 A 
ATOM     27  C   UNL     1       5.637   4.014  14.845  0.00  0.00    +0.000 A 
ENDBRANCH  18  21
ENDBRANCH   3  18
TORSDOF 5
ENDMDL
MODEL 6
REMARK VINA RESULT:      -6.6      2.631      8.645
REMARK  Name = 
REMARK  10 active torsions:
REMARK  status: ('A' for Active; 'I' for Inactive)
REMARK    1  A    between atoms: C_1  and  O_2
REMARK    2  A    between atoms: O_2  and  C_3
REMARK    3  A    between atoms: C_3  and  C_5
REMARK    4  A    between atoms: C_9  and  C_10
REMARK    5  A    between atoms: C_9  and  C_11
REMARK    6  A    between atoms: N_13  and  S_14
REMARK    7  A    between atoms: S_14  and  C_17
REMARK    8  A    between atoms: C_20  and  C_21
REMARK    9  A    between atoms: C_24  and  C_25
REMARK   10  A    between atoms: C_24  and  C_26
REMARK                            x       y       z     vdW  Elec       q    Type
REMARK                         _______ _______ _______ _____ _____    ______ ____
ROOT
ATOM      1  C   UNL     1       5.154   4.394  18.517  0.00  0.00    +0.000 C 
ATOM      2  O   UNL     1       5.987   4.442  19.407  0.00  0.00    +0.000 OA
ATOM      3  N   UNL     1       5.517   4.662  17.183  0.00  0.00    +0.000 N 
ATOM      4  H   UNL     1       4.849   4.700  16.421  0.00  0.00    +0.000 HD
ENDROOT
BRANCH   1   9
ATOM      5  C   UNL     1       1.593   6.286  21.057  0.00  0.00    +0.000 C 
ATOM      6  C   UNL     1       2.150   5.310  20.308  0.00  0.00    +0.000 C 
ATOM      7  C   UNL     1       2.328   3.926  20.869  0.00  0.00    +0.000 C 
ATOM      8  C   UNL     1       3.613   3.446  20.237  0.00  0.00    +0.000 C 
ATOM      9  C   UNL     1       3.663   4.048  18.801  0.00  0.00    +0.000 C 
ATOM     10  C   UNL     1       3.202   2.947  17.817  0.00  0.00    +0.000 C 
ATOM     11  C   UNL     1       2.701   5.329  18.870  0.00  0.00    +0.000 C 
ATOM     12  C   UNL     1       1.491   5.206  17.916  0.00  0.00    +0.000 C 
ATOM     13  C   UNL     1       3.474   6.622  18.539  0.00  0.00    +0.000 C 
BRANCH   5  14
ATOM     14  C   UNL     1       1.162   7.628  20.596  0.00  0.00    +0.000 C 
ATOM     15  O   UNL     1       1.721   8.273  19.724  0.00  0.00    +0.000 OA
BRANCH  14  17
ATOM     16  C   UNL     1      -0.055   9.404  21.496  0.00  0.00    +0.000 C 
ATOM     17  O   UNL     1       0.033   7.996  21.248  0.00  0.00    +0.000 OA
ENDBRANCH  14  17
ENDBRANCH   5  14
ENDBRANCH   1   9
BRANCH   3  18
ATOM     18  S   UNL     1       7.063   5.055  16.698  0.00  0.00    +0.000 S 
ATOM     19  O   UNL     1       7.148   6.494  16.840  0.00  0.00    +0.000 OA
ATOM     20  O   UNL     1       8.017   4.196  17.363  0.00  0.00    +0.000 OA
BRANCH  18  21
ATOM     21  C   UNL     1       7.076   4.696  14.952  0.00  0.00    +0.000 A 
ATOM     22  C   UNL     1       6.154   3.790  14.415  0.00  0.00    +0.000 A 
ATOM     23  C   UNL     1       6.114   3.578  13.032  0.00  0.00    +0.000 A 
ATOM     24  C   UNL     1       6.981   4.273  12.178  0.00  0.00    +0.000 A 
ATOM     25  C   UNL     1       6.936   4.072  10.690  0.00  0.00    +0.000 C 
ATOM     26  C   UNL     1       7.891   5.185  12.727  0.00  0.00    +0.000 A 
ATOM     27  C   UNL     1       7.934   5.404  14.107  0.00  0.00    +0.000 A 
ENDBRANCH  18  21
ENDBRANCH   3  18
TORSDOF 5
ENDMDL
MODEL 7
REMARK VINA RESULT:      -6.6      1.937      2.717
REMARK  Name = 
REMARK  10 active torsions:
REMARK  status: ('A' for Active; 'I' for Inactive)
REMARK    1  A    between atoms: C_1  and  O_2
REMARK    2  A    between atoms: O_2  and  C_3
REMARK    3  A    between atoms: C_3  and  C_5
REMARK    4  A    between atoms: C_9  and  C_10
REMARK    5  A    between atoms: C_9  and  C_11
REMARK    6  A    between atoms: N_13  and  S_14
REMARK    7  A    between atoms: S_14  and  C_17
REMARK    8  A    between atoms: C_20  and  C_21
REMARK    9  A    between atoms: C_24  and  C_25
REMARK   10  A    between atoms: C_24  and  C_26
REMARK                            x       y       z     vdW  Elec       q    Type
REMARK                         _______ _______ _______ _____ _____    ______ ____
ROOT
ATOM      1  C   UNL     1       2.184   8.164  18.328  0.00  0.00    +0.000 C 
ATOM      2  O   UNL     1       2.446   8.572  17.208  0.00  0.00    +0.000 OA
ATOM      3  N   UNL     1       1.663   9.036  19.302  0.00  0.00    +0.000 N 
ATOM      4  H   UNL     1       1.492   8.759  20.263  0.00  0.00    +0.000 HD
ENDROOT
BRANCH   1   9
ATOM      5  C   UNL     1       4.306   4.343  16.426  0.00  0.00    +0.000 C 
ATOM      6  C   UNL     1       3.538   4.957  17.354  0.00  0.00    +0.000 C 
ATOM      7  C   UNL     1       2.108   4.539  17.557  0.00  0.00    +0.000 C 
ATOM      8  C   UNL     1       1.406   5.829  17.912  0.00  0.00    +0.000 C 
ATOM      9  C   UNL     1       2.414   6.681  18.739  0.00  0.00    +0.000 C 
ATOM     10  C   UNL     1       2.055   6.507  20.233  0.00  0.00    +0.000 C 
ATOM     11  C   UNL     1       3.855   6.109  18.326  0.00  0.00    +0.000 C 
ATOM     12  C   UNL     1       4.609   5.497  19.528  0.00  0.00    +0.000 C 
ATOM     13  C   UNL     1       4.727   7.210  17.690  0.00  0.00    +0.000 C 
BRANCH   5  14
ATOM     14  C   UNL     1       5.770   4.489  16.243  0.00  0.00    +0.000 C 
ATOM     15  O   UNL     1       6.297   5.056  15.300  0.00  0.00    +0.000 OA
BRANCH  14  17
ATOM     16  C   UNL     1       7.583   4.684  17.699  0.00  0.00    +0.000 C 
ATOM     17  O   UNL     1       6.420   3.949  17.301  0.00  0.00    +0.000 OA
ENDBRANCH  14  17
ENDBRANCH   5  14
ENDBRANCH   1   9
BRANCH   3  18
ATOM     18  S   UNL     1       1.358  10.654  19.039  0.00  0.00    +0.000 S 
ATOM     19  O   UNL     1       1.429  11.268  20.349  0.00  0.00    +0.000 OA
ATOM     20  O   UNL     1       2.187  11.138  17.958  0.00  0.00    +0.000 OA
BRANCH  18  21
ATOM     21  C   UNL     1      -0.349  10.698  18.528  0.00  0.00    +0.000 A 
ATOM     22  C   UNL     1      -0.821   9.785  17.578  0.00  0.00    +0.000 A 
ATOM     23  C   UNL     1      -2.180   9.769  17.246  0.00  0.00    +0.000 A 
ATOM     24  C   UNL     1      -3.076  10.653  17.863  0.00  0.00    +0.000 A 
ATOM     25  C   UNL     1      -4.541  10.634  17.533  0.00  0.00    +0.000 C 
ATOM     26  C   UNL     1      -2.593  11.554  18.821  0.00  0.00    +0.000 A 
ATOM     27  C   UNL     1      -1.237  11.572  19.160  0.00  0.00    +0.000 A 
ENDBRANCH  18  21
ENDBRANCH   3  18
TORSDOF 5
ENDMDL
MODEL 8
REMARK VINA RESULT:      -6.5      3.678      7.891
REMARK  Name = 
REMARK  10 active torsions:
REMARK  status: ('A' for Active; 'I' for Inactive)
REMARK    1  A    between atoms: C_1  and  O_2
REMARK    2  A    between atoms: O_2  and  C_3
REMARK    3  A    between atoms: C_3  and  C_5
REMARK    4  A    between atoms: C_9  and  C_10
REMARK    5  A    between atoms: C_9  and  C_11
REMARK    6  A    between atoms: N_13  and  S_14
REMARK    7  A    between atoms: S_14  and  C_17
REMARK    8  A    between atoms: C_20  and  C_21
REMARK    9  A    between atoms: C_24  and  C_25
REMARK   10  A    between atoms: C_24  and  C_26
REMARK                            x       y       z     vdW  Elec       q    Type
REMARK                         _______ _______ _______ _____ _____    ______ ____
ROOT
ATOM      1  C   UNL     1       4.304   6.230  17.303  0.00  0.00    +0.000 C 
ATOM      2  O   UNL     1       4.513   7.257  16.676  0.00  0.00    +0.000 OA
ATOM      3  N   UNL     1       5.329   5.282  17.484  0.00  0.00    +0.000 N 
ATOM      4  H   UNL     1       5.186   4.388  17.939  0.00  0.00    +0.000 HD
ENDROOT
BRANCH   1   9
ATOM      5  C   UNL     1       2.412   2.734  19.932  0.00  0.00    +0.000 C 
ATOM      6  C   UNL     1       2.332   3.861  19.190  0.00  0.00    +0.000 C 
ATOM      7  C   UNL     1       1.500   3.891  17.939  0.00  0.00    +0.000 C 
ATOM      8  C   UNL     1       2.267   4.816  17.022  0.00  0.00    +0.000 C 
ATOM      9  C   UNL     1       2.912   5.912  17.921  0.00  0.00    +0.000 C 
ATOM     10  C   UNL     1       2.018   7.171  17.835  0.00  0.00    +0.000 C 
ATOM     11  C   UNL     1       2.986   5.243  19.377  0.00  0.00    +0.000 C 
ATOM     12  C   UNL     1       2.142   6.011  20.419  0.00  0.00    +0.000 C 
ATOM     13  C   UNL     1       4.444   5.156  19.874  0.00  0.00    +0.000 C 
BRANCH   5  14
ATOM     14  C   UNL     1       3.011   2.596  21.282  0.00  0.00    +0.000 C 
ATOM     15  O   UNL     1       2.430   2.842  22.326  0.00  0.00    +0.000 OA
BRANCH  14  17
ATOM     16  C   UNL     1       4.528   1.446  19.933  0.00  0.00    +0.000 C 
ATOM     17  O   UNL     1       4.270   2.108  21.176  0.00  0.00    +0.000 OA
ENDBRANCH  14  17
ENDBRANCH   5  14
ENDBRANCH   1   9
BRANCH   3  18
ATOM     18  S   UNL     1       6.876   5.456  16.888  0.00  0.00    +0.000 S 
ATOM     19  O   UNL     1       7.111   6.885  16.860  0.00  0.00    +0.000 OA
ATOM     20  O   UNL     1       7.776   4.580  17.602  0.00  0.00    +0.000 OA
BRANCH  18  21
ATOM     21  C   UNL     1       6.753   4.911  15.195  0.00  0.00    +0.000 A 
ATOM     22  C   UNL     1       7.676   5.360  14.244  0.00  0.00    +0.000 A 
ATOM     23  C   UNL     1       7.626   4.861  12.937  0.00  0.00    +0.000 A 
ATOM     24  C   UNL     1       6.665   3.908  12.574  0.00  0.00    +0.000 A 
ATOM     25  C   UNL     1       6.612   3.347  11.182  0.00  0.00    +0.000 C 
ATOM     26  C   UNL     1       5.754   3.458  13.538  0.00  0.00    +0.000 A 
ATOM     27  C   UNL     1       5.801   3.949  14.845  0.00  0.00    +0.000 A 
ENDBRANCH  18  21
ENDBRANCH   3  18
TORSDOF 5
ENDMDL
MODEL 9
REMARK VINA RESULT:      -6.5      4.065     10.002
REMARK  Name = 
REMARK  10 active torsions:
REMARK  status: ('A' for Active; 'I' for Inactive)
REMARK    1  A    between atoms: C_1  and  O_2
REMARK    2  A    between atoms: O_2  and  C_3
REMARK    3  A    between atoms: C_3  and  C_5
REMARK    4  A    between atoms: C_9  and  C_10
REMARK    5  A    between atoms: C_9  and  C_11
REMARK    6  A    between atoms: N_13  and  S_14
REMARK    7  A    between atoms: S_14  and  C_17
REMARK    8  A    between atoms: C_20  and  C_21
REMARK    9  A    between atoms: C_24  and  C_25
REMARK   10  A    between atoms: C_24  and  C_26
REMARK                            x       y       z     vdW  Elec       q    Type
REMARK                         _______ _______ _______ _____ _____    ______ ____
ROOT
ATOM      1  C   UNL     1      -0.158  11.574  20.754  0.00  0.00    +0.000 C 
ATOM      2  O   UNL     1       0.894  11.937  21.257  0.00  0.00    +0.000 OA
ATOM      3  N   UNL     1      -0.569  10.231  20.850  0.00  0.00    +0.000 N 
ATOM      4  H   UNL     1      -1.399   9.869  20.394  0.00  0.00    +0.000 HD
ENDROOT
BRANCH   1   9
ATOM      5  C   UNL     1      -4.799  12.660  20.756  0.00  0.00    +0.000 C 
ATOM      6  C   UNL     1      -3.545  12.733  20.256  0.00  0.00    +0.000 C 
ATOM      7  C   UNL     1      -3.258  12.283  18.851  0.00  0.00    +0.000 C 
ATOM      8  C   UNL     1      -1.865  11.704  18.938  0.00  0.00    +0.000 C 
ATOM      9  C   UNL     1      -1.086  12.557  19.983  0.00  0.00    +0.000 C 
ATOM     10  C   UNL     1      -0.215  13.570  19.204  0.00  0.00    +0.000 C 
ATOM     11  C   UNL     1      -2.229  13.218  20.893  0.00  0.00    +0.000 C 
ATOM     12  C   UNL     1      -2.224  14.762  20.812  0.00  0.00    +0.000 C 
ATOM     13  C   UNL     1      -2.082  12.790  22.368  0.00  0.00    +0.000 C 
BRANCH   5  14
ATOM     14  C   UNL     1      -5.286  13.244  22.029  0.00  0.00    +0.000 C 
ATOM     15  O   UNL     1      -5.366  14.440  22.257  0.00  0.00    +0.000 OA
BRANCH  14  17
ATOM     16  C   UNL     1      -5.984  12.708  24.190  0.00  0.00    +0.000 C 
ATOM     17  O   UNL     1      -5.676  12.254  22.867  0.00  0.00    +0.000 OA
ENDBRANCH  14  17
ENDBRANCH   5  14
ENDBRANCH   1   9
BRANCH   3  18
ATOM     18  S   UNL     1       0.300   9.043  21.632  0.00  0.00    +0.000 S 
ATOM     19  O   UNL     1       1.227   9.756  22.488  0.00  0.00    +0.000 OA
ATOM     20  O   UNL     1      -0.603   8.062  22.189  0.00  0.00    +0.000 OA
BRANCH  18  21
ATOM     21  C   UNL     1       1.259   8.281  20.337  0.00  0.00    +0.000 A 
ATOM     22  C   UNL     1       1.528   8.984  19.157  0.00  0.00    +0.000 A 
ATOM     23  C   UNL     1       2.352   8.413  18.181  0.00  0.00    +0.000 A 
ATOM     24  C   UNL     1       2.921   7.148  18.378  0.00  0.00    +0.000 A 
ATOM     25  C   UNL     1       3.825   6.531  17.350  0.00  0.00    +0.000 C 
ATOM     26  C   UNL     1       2.654   6.460  19.569  0.00  0.00    +0.000 A 
ATOM     27  C   UNL     1       1.834   7.025  20.549  0.00  0.00    +0.000 A 
ENDBRANCH  18  21
ENDBRANCH   3  18
TORSDOF 5
ENDMDL
