MODEL 1
REMARK VINA RESULT:      -7.6      0.000      0.000
REMARK  Name = 
REMARK  11 active torsions:
REMARK  status: ('A' for Active; 'I' for Inactive)
REMARK    1  A    between atoms: C_1  and  N_2
REMARK    2  A    between atoms: N_2  and  C_3
REMARK    3  A    between atoms: N_2  and  C_4
REMARK    4  A    between atoms: C_4  and  C_5
REMARK    5  A    between atoms: C_5  and  C_6
REMARK    6  A    between atoms: C_12  and  C_13
REMARK    7  A    between atoms: C_13  and  C_14
REMARK    8  A    between atoms: C_14  and  C_15
REMARK    9  A    between atoms: C_15  and  C_16
REMARK   10  A    between atoms: C_18  and  C_19
REMARK   11  A    between atoms: C_19  and  C_20
REMARK                            x       y       z     vdW  Elec       q    Type
REMARK                         _______ _______ _______ _____ _____    ______ ____
ROOT
ATOM      1  C   UNL     1       0.587   9.815  19.441  0.00  0.00    +0.000 A 
ATOM      2  C   UNL     1       0.986  10.545  18.340  0.00  0.00    +0.000 A 
ATOM      3  N   UNL     1       1.933   9.823  17.669  0.00  0.00    +0.000 N 
ATOM      4  C   UNL     1       2.166   8.629  18.312  0.00  0.00    +0.000 A 
ATOM      5  C   UNL     1       3.062   7.594  18.020  0.00  0.00    +0.000 A 
ATOM      6  C   UNL     1       3.068   6.479  18.871  0.00  0.00    +0.000 A 
ATOM      7  C   UNL     1       2.201   6.388  19.966  0.00  0.00    +0.000 A 
ATOM      8  C   UNL     1       1.327   7.452  20.241  0.00  0.00    +0.000 A 
ATOM      9  C   UNL     1       1.311   8.588  19.407  0.00  0.00    +0.000 A 
ATOM     10  H   UNL     1       2.412  10.124  16.832  0.00  0.00    +0.000 HD
ENDROOT
BRANCH   1  11
ATOM     11  C   UNL     1      -0.381  10.235  20.503  0.00  0.00    +0.000 C 
BRANCH  11  12
ATOM     12  C   UNL     1       0.146  11.458  21.278  0.00  0.00    +0.000 C 
BRANCH  12  14
ATOM     13  C   UNL     1      -1.256  12.576  22.874  0.00  0.00    +0.000 C 
ATOM     14  N   UNL     1      -0.259  11.515  22.697  0.00  0.00    +0.000 NA
ATOM     15  C   UNL     1      -0.806  10.241  23.163  0.00  0.00    +0.000 C 
ENDBRANCH  12  14
ENDBRANCH  11  12
ENDBRANCH   1  11
BRANCH   7  16
ATOM     16  C   UNL     1       2.228   5.199  20.896  0.00  0.00    +0.000 C 
BRANCH  16  17
ATOM     17  C   UNL     1       1.009   4.308  20.663  0.00  0.00    +0.000 C 
BRANCH  17  18
ATOM     18  C   UNL     1       1.378   2.946  20.074  0.00  0.00    +0.000 C 
BRANCH  18  19
ATOM     19  C   UNL     1       2.170   3.145  18.837  0.00  0.00    +0.000 A 
ATOM     20  N   UNL     1       3.465   3.029  18.653  0.00  0.00    +0.000 NA
ATOM     21  C   UNL     1       3.574   3.172  17.289  0.00  0.00    +0.000 A 
ATOM     22  N   UNL     1       2.418   3.432  16.659  0.00  0.00    +0.000 NA
ATOM     23  O   UNL     1       1.476   3.396  17.689  0.00  0.00    +0.000 OA
BRANCH  21  24
ATOM     24  C   UNL     1       4.880   3.113  16.583  0.00  0.00    +0.000 C 
BRANCH  24  25
ATOM     25  C   UNL     1       5.576   4.429  16.843  0.00  0.00    +0.000 A 
ATOM     26  C   UNL     1       6.419   4.581  17.955  0.00  0.00    +0.000 A 
ATOM     27  C   UNL     1       7.048   5.801  18.209  0.00  0.00    +0.000 A 
ATOM     28  C   UNL     1       6.847   6.882  17.354  0.00  0.00    +0.000 A 
ATOM     29  C   UNL     1       6.022   6.743  16.240  0.00  0.00    +0.000 A 
ATOM     30  C   UNL     1       5.388   5.525  15.985  0.00  0.00    +0.000 A 
ENDBRANCH  24  25
ENDBRANCH  21  24
ENDBRANCH  18  19
ENDBRANCH  17  18
ENDBRANCH  16  17
ENDBRANCH   7  16
TORSDOF 9
ENDMDL
MODEL 2
REMARK VINA RESULT:      -7.5      1.045      1.624
REMARK  Name = 
REMARK  11 active torsions:
REMARK  status: ('A' for Active; 'I' for Inactive)
REMARK    1  A    between atoms: C_1  and  N_2
REMARK    2  A    between atoms: N_2  and  C_3
REMARK    3  A    between atoms: N_2  and  C_4
REMARK    4  A    between atoms: C_4  and  C_5
REMARK    5  A    between atoms: C_5  and  C_6
REMARK    6  A    between atoms: C_12  and  C_13
REMARK    7  A    between atoms: C_13  and  C_14
REMARK    8  A    between atoms: C_14  and  C_15
REMARK    9  A    between atoms: C_15  and  C_16
REMARK   10  A    between atoms: C_18  and  C_19
REMARK   11  A    between atoms: C_19  and  C_20
REMARK                            x       y       z     vdW  Elec       q    Type
REMARK                         _______ _______ _______ _____ _____    ______ ____
ROOT
ATOM      1  C   UNL     1       1.128  10.622  19.820  0.00  0.00    +0.000 A 
ATOM      2  C   UNL     1       1.318  11.286  18.626  0.00  0.00    +0.000 A 
ATOM      3  N   UNL     1       1.799  10.392  17.711  0.00  0.00    +0.000 N 
ATOM      4  C   UNL     1       1.930   9.147  18.285  0.00  0.00    +0.000 A 
ATOM      5  C   UNL     1       2.409   7.944  17.755  0.00  0.00    +0.000 A 
ATOM      6  C   UNL     1       2.417   6.821  18.596  0.00  0.00    +0.000 A 
ATOM      7  C   UNL     1       1.949   6.888  19.913  0.00  0.00    +0.000 A 
ATOM      8  C   UNL     1       1.492   8.116  20.419  0.00  0.00    +0.000 A 
ATOM      9  C   UNL     1       1.485   9.261  19.597  0.00  0.00    +0.000 A 
ATOM     10  H   UNL     1       2.043  10.609  16.755  0.00  0.00    +0.000 HD
ENDROOT
BRANCH   1  11
ATOM     11  C   UNL     1       0.680  11.211  21.122  0.00  0.00    +0.000 C 
BRANCH  11  12
ATOM     12  C   UNL     1      -0.849  11.398  21.146  0.00  0.00    +0.000 C 
BRANCH  12  14
ATOM     13  C   UNL     1      -0.691  10.153  23.194  0.00  0.00    +0.000 C 
ATOM     14  N   UNL     1      -1.485  11.140  22.455  0.00  0.00    +0.000 NA
ATOM     15  C   UNL     1      -1.618  12.361  23.249  0.00  0.00    +0.000 C 
ENDBRANCH  12  14
ENDBRANCH  11  12
ENDBRANCH   1  11
BRANCH   7  16
ATOM     16  C   UNL     1       1.984   5.685  20.825  0.00  0.00    +0.000 C 
BRANCH  16  17
ATOM     17  C   UNL     1       0.868   4.707  20.464  0.00  0.00    +0.000 C 
BRANCH  17  18
ATOM     18  C   UNL     1       1.322   3.248  20.523  0.00  0.00    +0.000 C 
BRANCH  18  19
ATOM     19  C   UNL     1       2.573   3.091  19.744  0.00  0.00    +0.000 A 
ATOM     20  N   UNL     1       2.802   3.364  18.479  0.00  0.00    +0.000 NA
ATOM     21  C   UNL     1       4.161   3.168  18.387  0.00  0.00    +0.000 A 
ATOM     22  N   UNL     1       4.742   2.731  19.515  0.00  0.00    +0.000 NA
ATOM     23  O   UNL     1       3.685   2.697  20.428  0.00  0.00    +0.000 OA
BRANCH  21  24
ATOM     24  C   UNL     1       4.909   3.360  17.118  0.00  0.00    +0.000 C 
BRANCH  24  25
ATOM     25  C   UNL     1       5.671   4.658  17.253  0.00  0.00    +0.000 A 
ATOM     26  C   UNL     1       5.224   5.816  16.597  0.00  0.00    +0.000 A 
ATOM     27  C   UNL     1       5.935   7.013  16.703  0.00  0.00    +0.000 A 
ATOM     28  C   UNL     1       7.098   7.069  17.468  0.00  0.00    +0.000 A 
ATOM     29  C   UNL     1       7.548   5.931  18.133  0.00  0.00    +0.000 A 
ATOM     30  C   UNL     1       6.840   4.731  18.026  0.00  0.00    +0.000 A 
ENDBRANCH  24  25
ENDBRANCH  21  24
ENDBRANCH  18  19
ENDBRANCH  17  18
ENDBRANCH  16  17
ENDBRANCH   7  16
TORSDOF 9
ENDMDL
MODEL 3
REMARK VINA RESULT:      -7.3      1.119      1.363
REMARK  Name = 
REMARK  11 active torsions:
REMARK  status: ('A' for Active; 'I' for Inactive)
REMARK    1  A    between atoms: C_1  and  N_2
REMARK    2  A    between atoms: N_2  and  C_3
REMARK    3  A    between atoms: N_2  and  C_4
REMARK    4  A    between atoms: C_4  and  C_5
REMARK    5  A    between atoms: C_5  and  C_6
REMARK    6  A    between atoms: C_12  and  C_13
REMARK    7  A    between atoms: C_13  and  C_14
REMARK    8  A    between atoms: C_14  and  C_15
REMARK    9  A    between atoms: C_15  and  C_16
REMARK   10  A    between atoms: C_18  and  C_19
REMARK   11  A    between atoms: C_19  and  C_20
REMARK                            x       y       z     vdW  Elec       q    Type
REMARK                         _______ _______ _______ _____ _____    ______ ____
ROOT
ATOM      1  C   UNL     1       0.448  10.515  20.367  0.00  0.00    +0.000 A 
ATOM      2  C   UNL     1       0.399  11.382  19.294  0.00  0.00    +0.000 A 
ATOM      3  N   UNL     1       1.013  10.781  18.231  0.00  0.00    +0.000 N 
ATOM      4  C   UNL     1       1.467   9.532  18.586  0.00  0.00    +0.000 A 
ATOM      5  C   UNL     1       2.177   8.575  17.852  0.00  0.00    +0.000 A 
ATOM      6  C   UNL     1       2.502   7.372  18.494  0.00  0.00    +0.000 A 
ATOM      7  C   UNL     1       2.120   7.120  19.817  0.00  0.00    +0.000 A 
ATOM      8  C   UNL     1       1.424   8.109  20.531  0.00  0.00    +0.000 A 
ATOM      9  C   UNL     1       1.097   9.331  19.911  0.00  0.00    +0.000 A 
ATOM     10  H   UNL     1       1.136  11.196  17.317  0.00  0.00    +0.000 HD
ENDROOT
BRANCH   1  11
ATOM     11  C   UNL     1      -0.037  10.771  21.760  0.00  0.00    +0.000 C 
BRANCH  11  12
ATOM     12  C   UNL     1      -0.495  12.233  21.925  0.00  0.00    +0.000 C 
BRANCH  12  14
ATOM     13  C   UNL     1      -2.030  13.448  23.315  0.00  0.00    +0.000 C 
ATOM     14  N   UNL     1      -1.915  12.401  22.294  0.00  0.00    +0.000 NA
ATOM     15  C   UNL     1      -2.745  12.744  21.139  0.00  0.00    +0.000 C 
ENDBRANCH  12  14
ENDBRANCH  11  12
ENDBRANCH   1  11
BRANCH   7  16
ATOM     16  C   UNL     1       2.494   5.835  20.515  0.00  0.00    +0.000 C 
BRANCH  16  17
ATOM     17  C   UNL     1       1.336   4.841  20.466  0.00  0.00    +0.000 C 
BRANCH  17  18
ATOM     18  C   UNL     1       1.807   3.387  20.453  0.00  0.00    +0.000 C 
BRANCH  18  19
ATOM     19  C   UNL     1       2.607   3.141  19.230  0.00  0.00    +0.000 A 
ATOM     20  N   UNL     1       3.049   4.001  18.340  0.00  0.00    +0.000 NA
ATOM     21  C   UNL     1       3.847   3.208  17.548  0.00  0.00    +0.000 A 
ATOM     22  N   UNL     1       3.852   1.908  17.881  0.00  0.00    +0.000 NA
ATOM     23  O   UNL     1       3.039   1.864  19.016  0.00  0.00    +0.000 OA
BRANCH  21  24
ATOM     24  C   UNL     1       4.587   3.742  16.376  0.00  0.00    +0.000 C 
BRANCH  24  25
ATOM     25  C   UNL     1       5.558   4.771  16.905  0.00  0.00    +0.000 A 
ATOM     26  C   UNL     1       6.651   4.378  17.694  0.00  0.00    +0.000 A 
ATOM     27  C   UNL     1       7.540   5.328  18.202  0.00  0.00    +0.000 A 
ATOM     28  C   UNL     1       7.351   6.680  17.923  0.00  0.00    +0.000 A 
ATOM     29  C   UNL     1       6.278   7.084  17.133  0.00  0.00    +0.000 A 
ATOM     30  C   UNL     1       5.385   6.136  16.627  0.00  0.00    +0.000 A 
ENDBRANCH  24  25
ENDBRANCH  21  24
ENDBRANCH  18  19
ENDBRANCH  17  18
ENDBRANCH  16  17
ENDBRANCH   7  16
TORSDOF 9
ENDMDL
MODEL 4
REMARK VINA RESULT:      -7.1      4.241      6.589
REMARK  Name = 
REMARK  11 active torsions:
REMARK  status: ('A' for Active; 'I' for Inactive)
REMARK    1  A    between atoms: C_1  and  N_2
REMARK    2  A    between atoms: N_2  and  C_3
REMARK    3  A    between atoms: N_2  and  C_4
REMARK    4  A    between atoms: C_4  and  C_5
REMARK    5  A    between atoms: C_5  and  C_6
REMARK    6  A    between atoms: C_12  and  C_13
REMARK    7  A    between atoms: C_13  and  C_14
REMARK    8  A    between atoms: C_14  and  C_15
REMARK    9  A    between atoms: C_15  and  C_16
REMARK   10  A    between atoms: C_18  and  C_19
REMARK   11  A    between atoms: C_19  and  C_20
REMARK                            x       y       z     vdW  Elec       q    Type
REMARK                         _______ _______ _______ _____ _____    ______ ____
ROOT
ATOM      1  C   UNL     1      -6.260  12.667  19.154  0.00  0.00    +0.000 A 
ATOM      2  C   UNL     1      -7.215  12.502  18.172  0.00  0.00    +0.000 A 
ATOM      3  N   UNL     1      -6.608  11.968  17.070  0.00  0.00    +0.000 N 
ATOM      4  C   UNL     1      -5.266  11.780  17.311  0.00  0.00    +0.000 A 
ATOM      5  C   UNL     1      -4.248  11.298  16.479  0.00  0.00    +0.000 A 
ATOM      6  C   UNL     1      -2.955  11.214  17.015  0.00  0.00    +0.000 A 
ATOM      7  C   UNL     1      -2.685  11.580  18.339  0.00  0.00    +0.000 A 
ATOM      8  C   UNL     1      -3.726  12.076  19.141  0.00  0.00    +0.000 A 
ATOM      9  C   UNL     1      -5.031  12.182  18.620  0.00  0.00    +0.000 A 
ATOM     10  H   UNL     1      -7.067  11.756  16.196  0.00  0.00    +0.000 HD
ENDROOT
BRANCH   1  11
ATOM     11  C   UNL     1      -6.449  13.282  20.506  0.00  0.00    +0.000 C 
BRANCH  11  12
ATOM     12  C   UNL     1      -6.859  12.219  21.543  0.00  0.00    +0.000 C 
BRANCH  12  14
ATOM     13  C   UNL     1      -5.027  13.250  22.703  0.00  0.00    +0.000 C 
ATOM     14  N   UNL     1      -6.123  12.282  22.822  0.00  0.00    +0.000 NA
ATOM     15  C   UNL     1      -6.993  12.656  23.937  0.00  0.00    +0.000 C 
ENDBRANCH  12  14
ENDBRANCH  11  12
ENDBRANCH   1  11
BRANCH   7  16
ATOM     16  C   UNL     1      -1.287  11.514  18.906  0.00  0.00    +0.000 C 
BRANCH  16  17
ATOM     17  C   UNL     1      -0.999  10.122  19.463  0.00  0.00    +0.000 C 
BRANCH  17  18
ATOM     18  C   UNL     1       0.349  10.040  20.179  0.00  0.00    +0.000 C 
BRANCH  18  19
ATOM     19  C   UNL     1       1.236   9.103  19.449  0.00  0.00    +0.000 A 
ATOM     20  N   UNL     1       1.949   8.103  19.916  0.00  0.00    +0.000 NA
ATOM     21  C   UNL     1       2.418   7.522  18.760  0.00  0.00    +0.000 A 
ATOM     22  N   UNL     1       2.073   8.163  17.632  0.00  0.00    +0.000 NA
ATOM     23  O   UNL     1       1.268   9.209  18.089  0.00  0.00    +0.000 OA
BRANCH  21  24
ATOM     24  C   UNL     1       3.293   6.323  18.769  0.00  0.00    +0.000 C 
BRANCH  24  25
ATOM     25  C   UNL     1       2.403   5.135  19.055  0.00  0.00    +0.000 A 
ATOM     26  C   UNL     1       2.023   4.832  20.373  0.00  0.00    +0.000 A 
ATOM     27  C   UNL     1       1.216   3.725  20.643  0.00  0.00    +0.000 A 
ATOM     28  C   UNL     1       0.776   2.911  19.602  0.00  0.00    +0.000 A 
ATOM     29  C   UNL     1       1.136   3.205  18.289  0.00  0.00    +0.000 A 
ATOM     30  C   UNL     1       1.946   4.310  18.015  0.00  0.00    +0.000 A 
ENDBRANCH  24  25
ENDBRANCH  21  24
ENDBRANCH  18  19
ENDBRANCH  17  18
ENDBRANCH  16  17
ENDBRANCH   7  16
TORSDOF 9
ENDMDL
MODEL 5
REMARK VINA RESULT:      -7.1      2.791      8.185
REMARK  Name = 
REMARK  11 active torsions:
REMARK  status: ('A' for Active; 'I' for Inactive)
REMARK    1  A    between atoms: C_1  and  N_2
REMARK    2  A    between atoms: N_2  and  C_3
REMARK    3  A    between atoms: N_2  and  C_4
REMARK    4  A    between atoms: C_4  and  C_5
REMARK    5  A    between atoms: C_5  and  C_6
REMARK    6  A    between atoms: C_12  and  C_13
REMARK    7  A    between atoms: C_13  and  C_14
REMARK    8  A    between atoms: C_14  and  C_15
REMARK    9  A    between atoms: C_15  and  C_16
REMARK   10  A    between atoms: C_18  and  C_19
REMARK   11  A    between atoms: C_19  and  C_20
REMARK                            x       y       z     vdW  Elec       q    Type
REMARK                         _______ _______ _______ _____ _____    ______ ____
ROOT
ATOM      1  C   UNL     1       4.802   4.998  16.754  0.00  0.00    +0.000 A 
ATOM      2  C   UNL     1       5.250   3.791  16.257  0.00  0.00    +0.000 A 
ATOM      3  N   UNL     1       4.706   2.789  17.012  0.00  0.00    +0.000 N 
ATOM      4  C   UNL     1       3.906   3.318  17.999  0.00  0.00    +0.000 A 
ATOM      5  C   UNL     1       3.181   2.691  19.019  0.00  0.00    +0.000 A 
ATOM      6  C   UNL     1       2.442   3.508  19.888  0.00  0.00    +0.000 A 
ATOM      7  C   UNL     1       2.413   4.899  19.739  0.00  0.00    +0.000 A 
ATOM      8  C   UNL     1       3.167   5.497  18.716  0.00  0.00    +0.000 A 
ATOM      9  C   UNL     1       3.927   4.698  17.838  0.00  0.00    +0.000 A 
ATOM     10  H   UNL     1       4.876   1.802  16.881  0.00  0.00    +0.000 HD
ENDROOT
BRANCH   1  11
ATOM     11  C   UNL     1       5.188   6.368  16.289  0.00  0.00    +0.000 C 
BRANCH  11  12
ATOM     12  C   UNL     1       5.851   7.169  17.425  0.00  0.00    +0.000 C 
BRANCH  12  14
ATOM     13  C   UNL     1       7.968   8.276  17.676  0.00  0.00    +0.000 C 
ATOM     14  N   UNL     1       7.310   6.970  17.556  0.00  0.00    +0.000 NA
ATOM     15  C   UNL     1       7.648   6.138  18.710  0.00  0.00    +0.000 C 
ENDBRANCH  12  14
ENDBRANCH  11  12
ENDBRANCH   1  11
BRANCH   7  16
ATOM     16  C   UNL     1       1.639   5.778  20.692  0.00  0.00    +0.000 C 
BRANCH  16  17
ATOM     17  C   UNL     1       1.816   7.250  20.327  0.00  0.00    +0.000 C 
BRANCH  17  18
ATOM     18  C   UNL     1       1.464   8.189  21.481  0.00  0.00    +0.000 C 
BRANCH  18  19
ATOM     19  C   UNL     1       1.002   9.487  20.935  0.00  0.00    +0.000 A 
ATOM     20  N   UNL     1       0.766   9.825  19.687  0.00  0.00    +0.000 NA
ATOM     21  C   UNL     1       0.217  11.079  19.830  0.00  0.00    +0.000 A 
ATOM     22  N   UNL     1       0.174  11.531  21.093  0.00  0.00    +0.000 NA
ATOM     23  O   UNL     1       0.681  10.461  21.835  0.00  0.00    +0.000 OA
BRANCH  21  24
ATOM     24  C   UNL     1      -0.226  11.892  18.669  0.00  0.00    +0.000 C 
BRANCH  24  25
ATOM     25  C   UNL     1      -1.620  11.426  18.317  0.00  0.00    +0.000 A 
ATOM     26  C   UNL     1      -2.741  12.017  18.923  0.00  0.00    +0.000 A 
ATOM     27  C   UNL     1      -4.029  11.576  18.616  0.00  0.00    +0.000 A 
ATOM     28  C   UNL     1      -4.215  10.545  17.698  0.00  0.00    +0.000 A 
ATOM     29  C   UNL     1      -3.113   9.957  17.081  0.00  0.00    +0.000 A 
ATOM     30  C   UNL     1      -1.822  10.393  17.389  0.00  0.00    +0.000 A 
ENDBRANCH  24  25
ENDBRANCH  21  24
ENDBRANCH  18  19
ENDBRANCH  17  18
ENDBRANCH  16  17
ENDBRANCH   7  16
TORSDOF 9
ENDMDL
MODEL 6
REMARK VINA RESULT:      -7.0      1.241      1.828
REMARK  Name = 
REMARK  11 active torsions:
REMARK  status: ('A' for Active; 'I' for Inactive)
REMARK    1  A    between atoms: C_1  and  N_2
REMARK    2  A    between atoms: N_2  and  C_3
REMARK    3  A    between atoms: N_2  and  C_4
REMARK    4  A    between atoms: C_4  and  C_5
REMARK    5  A    between atoms: C_5  and  C_6
REMARK    6  A    between atoms: C_12  and  C_13
REMARK    7  A    between atoms: C_13  and  C_14
REMARK    8  A    between atoms: C_14  and  C_15
REMARK    9  A    between atoms: C_15  and  C_16
REMARK   10  A    between atoms: C_18  and  C_19
REMARK   11  A    between atoms: C_19  and  C_20
REMARK                            x       y       z     vdW  Elec       q    Type
REMARK                         _______ _______ _______ _____ _____    ______ ____
ROOT
ATOM      1  C   UNL     1       0.417  11.131  20.116  0.00  0.00    +0.000 A 
ATOM      2  C   UNL     1       0.543  11.888  18.969  0.00  0.00    +0.000 A 
ATOM      3  N   UNL     1       1.180  11.132  18.025  0.00  0.00    +0.000 N 
ATOM      4  C   UNL     1       1.479   9.888  18.533  0.00  0.00    +0.000 A 
ATOM      5  C   UNL     1       2.149   8.803  17.957  0.00  0.00    +0.000 A 
ATOM      6  C   UNL     1       2.300   7.645  18.733  0.00  0.00    +0.000 A 
ATOM      7  C   UNL     1       1.787   7.562  20.033  0.00  0.00    +0.000 A 
ATOM      8  C   UNL     1       1.135   8.674  20.587  0.00  0.00    +0.000 A 
ATOM      9  C   UNL     1       0.982   9.854  19.831  0.00  0.00    +0.000 A 
ATOM     10  H   UNL     1       1.418  11.440  17.093  0.00  0.00    +0.000 HD
ENDROOT
BRANCH   1  11
ATOM     11  C   UNL     1      -0.153  11.567  21.429  0.00  0.00    +0.000 C 
BRANCH  11  12
ATOM     12  C   UNL     1      -1.109  12.761  21.247  0.00  0.00    +0.000 C 
BRANCH  12  14
ATOM     13  C   UNL     1      -2.299  11.909  23.151  0.00  0.00    +0.000 C 
ATOM     14  N   UNL     1      -2.443  12.588  21.859  0.00  0.00    +0.000 NA
ATOM     15  C   UNL     1      -3.130  13.866  22.045  0.00  0.00    +0.000 C 
ENDBRANCH  12  14
ENDBRANCH  11  12
ENDBRANCH   1  11
BRANCH   7  16
ATOM     16  C   UNL     1       1.974   6.323  20.876  0.00  0.00    +0.000 C 
BRANCH  16  17
ATOM     17  C   UNL     1       0.980   5.239  20.465  0.00  0.00    +0.000 C 
BRANCH  17  18
ATOM     18  C   UNL     1       1.542   3.828  20.640  0.00  0.00    +0.000 C 
BRANCH  18  19
ATOM     19  C   UNL     1       2.429   3.507  19.496  0.00  0.00    +0.000 A 
ATOM     20  N   UNL     1       2.781   4.264  18.482  0.00  0.00    +0.000 NA
ATOM     21  C   UNL     1       3.726   3.483  17.857  0.00  0.00    +0.000 A 
ATOM     22  N   UNL     1       3.907   2.273  18.410  0.00  0.00    +0.000 NA
ATOM     23  O   UNL     1       3.055   2.295  19.516  0.00  0.00    +0.000 OA
BRANCH  21  24
ATOM     24  C   UNL     1       4.435   3.920  16.628  0.00  0.00    +0.000 C 
BRANCH  24  25
ATOM     25  C   UNL     1       5.492   4.909  17.062  0.00  0.00    +0.000 A 
ATOM     26  C   UNL     1       5.331   6.280  16.806  0.00  0.00    +0.000 A 
ATOM     27  C   UNL     1       6.314   7.195  17.188  0.00  0.00    +0.000 A 
ATOM     28  C   UNL     1       7.466   6.753  17.835  0.00  0.00    +0.000 A 
ATOM     29  C   UNL     1       7.634   5.396  18.106  0.00  0.00    +0.000 A 
ATOM     30  C   UNL     1       6.654   4.478  17.721  0.00  0.00    +0.000 A 
ENDBRANCH  24  25
ENDBRANCH  21  24
ENDBRANCH  18  19
ENDBRANCH  17  18
ENDBRANCH  16  17
ENDBRANCH   7  16
TORSDOF 9
ENDMDL
MODEL 7
REMARK VINA RESULT:      -7.0      6.935      8.854
REMARK  Name = 
REMARK  11 active torsions:
REMARK  status: ('A' for Active; 'I' for Inactive)
REMARK    1  A    between atoms: C_1  and  N_2
REMARK    2  A    between atoms: N_2  and  C_3
REMARK    3  A    between atoms: N_2  and  C_4
REMARK    4  A    between atoms: C_4  and  C_5
REMARK    5  A    between atoms: C_5  and  C_6
REMARK    6  A    between atoms: C_12  and  C_13
REMARK    7  A    between atoms: C_13  and  C_14
REMARK    8  A    between atoms: C_14  and  C_15
REMARK    9  A    between atoms: C_15  and  C_16
REMARK   10  A    between atoms: C_18  and  C_19
REMARK   11  A    between atoms: C_19  and  C_20
REMARK                            x       y       z     vdW  Elec       q    Type
REMARK                         _______ _______ _______ _____ _____    ______ ____
ROOT
ATOM      1  C   UNL     1       9.688  15.800  17.938  0.00  0.00    +0.000 A 
ATOM      2  C   UNL     1      10.309  16.409  16.866  0.00  0.00    +0.000 A 
ATOM      3  N   UNL     1      11.197  15.522  16.325  0.00  0.00    +0.000 N 
ATOM      4  C   UNL     1      11.173  14.337  17.025  0.00  0.00    +0.000 A 
ATOM      5  C   UNL     1      11.922  13.166  16.864  0.00  0.00    +0.000 A 
ATOM      6  C   UNL     1      11.665  12.103  17.742  0.00  0.00    +0.000 A 
ATOM      7  C   UNL     1      10.685  12.195  18.737  0.00  0.00    +0.000 A 
ATOM      8  C   UNL     1       9.963  13.391  18.883  0.00  0.00    +0.000 A 
ATOM      9  C   UNL     1      10.212  14.477  18.020  0.00  0.00    +0.000 A 
ATOM     10  H   UNL     1      11.802  15.708  15.537  0.00  0.00    +0.000 HD
ENDROOT
BRANCH   1  11
ATOM     11  C   UNL     1       8.692  16.411  18.873  0.00  0.00    +0.000 C 
BRANCH  11  12
ATOM     12  C   UNL     1       9.337  16.725  20.237  0.00  0.00    +0.000 C 
BRANCH  12  14
ATOM     13  C   UNL     1       7.667  15.623  21.566  0.00  0.00    +0.000 C 
ATOM     14  N   UNL     1       8.381  16.886  21.352  0.00  0.00    +0.000 NA
ATOM     15  C   UNL     1       9.048  17.292  22.590  0.00  0.00    +0.000 C 
ENDBRANCH  12  14
ENDBRANCH  11  12
ENDBRANCH   1  11
BRANCH   7  16
ATOM     16  C   UNL     1      10.428  11.060  19.699  0.00  0.00    +0.000 C 
BRANCH  16  17
ATOM     17  C   UNL     1       9.066  10.426  19.430  0.00  0.00    +0.000 C 
BRANCH  17  18
ATOM     18  C   UNL     1       8.901   9.977  17.978  0.00  0.00    +0.000 C 
BRANCH  18  19
ATOM     19  C   UNL     1       8.209   8.666  17.945  0.00  0.00    +0.000 A 
ATOM     20  N   UNL     1       7.332   8.213  17.078  0.00  0.00    +0.000 NA
ATOM     21  C   UNL     1       7.185   6.904  17.479  0.00  0.00    +0.000 A 
ATOM     22  N   UNL     1       7.880   6.574  18.578  0.00  0.00    +0.000 NA
ATOM     23  O   UNL     1       8.579   7.744  18.880  0.00  0.00    +0.000 OA
BRANCH  21  24
ATOM     24  C   UNL     1       6.274   5.957  16.787  0.00  0.00    +0.000 C 
BRANCH  24  25
ATOM     25  C   UNL     1       4.994   5.918  17.591  0.00  0.00    +0.000 A 
ATOM     26  C   UNL     1       4.031   6.929  17.443  0.00  0.00    +0.000 A 
ATOM     27  C   UNL     1       2.857   6.908  18.198  0.00  0.00    +0.000 A 
ATOM     28  C   UNL     1       2.627   5.874  19.104  0.00  0.00    +0.000 A 
ATOM     29  C   UNL     1       3.569   4.859  19.253  0.00  0.00    +0.000 A 
ATOM     30  C   UNL     1       4.747   4.880  18.502  0.00  0.00    +0.000 A 
ENDBRANCH  24  25
ENDBRANCH  21  24
ENDBRANCH  18  19
ENDBRANCH  17  18
ENDBRANCH  16  17
ENDBRANCH   7  16
TORSDOF 9
ENDMDL
MODEL 8
REMARK VINA RESULT:      -7.0      2.156      4.066
REMARK  Name = 
REMARK  11 active torsions:
REMARK  status: ('A' for Active; 'I' for Inactive)
REMARK    1  A    between atoms: C_1  and  N_2
REMARK    2  A    between atoms: N_2  and  C_3
REMARK    3  A    between atoms: N_2  and  C_4
REMARK    4  A    between atoms: C_4  and  C_5
REMARK    5  A    between atoms: C_5  and  C_6
REMARK    6  A    between atoms: C_12  and  C_13
REMARK    7  A    between atoms: C_13  and  C_14
REMARK    8  A    between atoms: C_14  and  C_15
REMARK    9  A    between atoms: C_15  and  C_16
REMARK   10  A    between atoms: C_18  and  C_19
REMARK   11  A    between atoms: C_19  and  C_20
REMARK                            x       y       z     vdW  Elec       q    Type
REMARK                         _______ _______ _______ _____ _____    ______ ____
ROOT
ATOM      1  C   UNL     1      -1.455  11.793  19.462  0.00  0.00    +0.000 A 
ATOM      2  C   UNL     1      -2.346  12.671  20.044  0.00  0.00    +0.000 A 
ATOM      3  N   UNL     1      -2.308  12.486  21.398  0.00  0.00    +0.000 N 
ATOM      4  C   UNL     1      -1.406  11.497  21.718  0.00  0.00    +0.000 A 
ATOM      5  C   UNL     1      -1.058  10.945  22.956  0.00  0.00    +0.000 A 
ATOM      6  C   UNL     1      -0.084   9.935  22.967  0.00  0.00    +0.000 A 
ATOM      7  C   UNL     1       0.534   9.500  21.789  0.00  0.00    +0.000 A 
ATOM      8  C   UNL     1       0.148  10.062  20.562  0.00  0.00    +0.000 A 
ATOM      9  C   UNL     1      -0.837  11.070  20.524  0.00  0.00    +0.000 A 
ATOM     10  H   UNL     1      -2.871  12.986  22.071  0.00  0.00    +0.000 HD
ENDROOT
BRANCH   1  11
ATOM     11  C   UNL     1      -1.208  11.590  18.000  0.00  0.00    +0.000 C 
BRANCH  11  12
ATOM     12  C   UNL     1      -1.356  10.105  17.616  0.00  0.00    +0.000 C 
BRANCH  12  14
ATOM     13  C   UNL     1      -3.708   9.624  17.548  0.00  0.00    +0.000 C 
ATOM     14  N   UNL     1      -2.501   9.803  16.733  0.00  0.00    +0.000 NA
ATOM     15  C   UNL     1      -2.725  10.859  15.746  0.00  0.00    +0.000 C 
ENDBRANCH  12  14
ENDBRANCH  11  12
ENDBRANCH   1  11
BRANCH   7  16
ATOM     16  C   UNL     1       1.562   8.394  21.800  0.00  0.00    +0.000 C 
BRANCH  16  17
ATOM     17  C   UNL     1       1.609   7.691  20.445  0.00  0.00    +0.000 C 
BRANCH  17  18
ATOM     18  C   UNL     1       1.552   6.168  20.569  0.00  0.00    +0.000 C 
BRANCH  18  19
ATOM     19  C   UNL     1       2.317   5.557  19.456  0.00  0.00    +0.000 A 
ATOM     20  N   UNL     1       3.128   6.128  18.595  0.00  0.00    +0.000 NA
ATOM     21  C   UNL     1       3.649   5.042  17.930  0.00  0.00    +0.000 A 
ATOM     22  N   UNL     1       3.142   3.858  18.308  0.00  0.00    +0.000 NA
ATOM     23  O   UNL     1       2.266   4.198  19.340  0.00  0.00    +0.000 OA
BRANCH  21  24
ATOM     24  C   UNL     1       4.642   5.180  16.833  0.00  0.00    +0.000 C 
BRANCH  24  25
ATOM     25  C   UNL     1       5.873   5.814  17.438  0.00  0.00    +0.000 A 
ATOM     26  C   UNL     1       6.601   5.146  18.435  0.00  0.00    +0.000 A 
ATOM     27  C   UNL     1       7.727   5.736  19.010  0.00  0.00    +0.000 A 
ATOM     28  C   UNL     1       8.144   6.999  18.593  0.00  0.00    +0.000 A 
ATOM     29  C   UNL     1       7.439   7.669  17.596  0.00  0.00    +0.000 A 
ATOM     30  C   UNL     1       6.309   7.082  17.021  0.00  0.00    +0.000 A 
ENDBRANCH  24  25
ENDBRANCH  21  24
ENDBRANCH  18  19
ENDBRANCH  17  18
ENDBRANCH  16  17
ENDBRANCH   7  16
TORSDOF 9
ENDMDL
MODEL 9
REMARK VINA RESULT:      -7.0      6.675      8.667
REMARK  Name = 
REMARK  11 active torsions:
REMARK  status: ('A' for Active; 'I' for Inactive)
REMARK    1  A    between atoms: C_1  and  N_2
REMARK    2  A    between atoms: N_2  and  C_3
REMARK    3  A    between atoms: N_2  and  C_4
REMARK    4  A    between atoms: C_4  and  C_5
REMARK    5  A    between atoms: C_5  and  C_6
REMARK    6  A    between atoms: C_12  and  C_13
REMARK    7  A    between atoms: C_13  and  C_14
REMARK    8  A    between atoms: C_14  and  C_15
REMARK    9  A    between atoms: C_15  and  C_16
REMARK   10  A    between atoms: C_18  and  C_19
REMARK   11  A    between atoms: C_19  and  C_20
REMARK                            x       y       z     vdW  Elec       q    Type
REMARK                         _______ _______ _______ _____ _____    ______ ____
ROOT
ATOM      1  C   UNL     1      10.031  15.951  18.251  0.00  0.00    +0.000 A 
ATOM      2  C   UNL     1      10.518  16.572  17.119  0.00  0.00    +0.000 A 
ATOM      3  N   UNL     1      11.184  15.641  16.372  0.00  0.00    +0.000 N 
ATOM      4  C   UNL     1      11.145  14.415  16.996  0.00  0.00    +0.000 A 
ATOM      5  C   UNL     1      11.711  13.187  16.632  0.00  0.00    +0.000 A 
ATOM      6  C   UNL     1      11.492  12.093  17.481  0.00  0.00    +0.000 A 
ATOM      7  C   UNL     1      10.724  12.211  18.645  0.00  0.00    +0.000 A 
ATOM      8  C   UNL     1      10.185  13.461  18.990  0.00  0.00    +0.000 A 
ATOM      9  C   UNL     1      10.402  14.578  18.159  0.00  0.00    +0.000 A 
ATOM     10  H   UNL     1      11.655  15.823  15.497  0.00  0.00    +0.000 HD
ENDROOT
BRANCH   1  11
ATOM     11  C   UNL     1       9.298  16.589  19.389  0.00  0.00    +0.000 C 
BRANCH  11  12
ATOM     12  C   UNL     1       8.065  15.756  19.787  0.00  0.00    +0.000 C 
BRANCH  12  14
ATOM     13  C   UNL     1       6.349  17.130  18.821  0.00  0.00    +0.000 C 
ATOM     14  N   UNL     1       6.848  16.545  20.070  0.00  0.00    +0.000 NA
ATOM     15  C   UNL     1       5.800  15.734  20.688  0.00  0.00    +0.000 C 
ENDBRANCH  12  14
ENDBRANCH  11  12
ENDBRANCH   1  11
BRANCH   7  16
ATOM     16  C   UNL     1      10.512  11.038  19.572  0.00  0.00    +0.000 C 
BRANCH  16  17
ATOM     17  C   UNL     1       9.114  10.451  19.385  0.00  0.00    +0.000 C 
BRANCH  17  18
ATOM     18  C   UNL     1       8.859   9.983  17.952  0.00  0.00    +0.000 C 
BRANCH  18  19
ATOM     19  C   UNL     1       8.178   8.667  17.979  0.00  0.00    +0.000 A 
ATOM     20  N   UNL     1       7.204   8.221  17.219  0.00  0.00    +0.000 NA
ATOM     21  C   UNL     1       7.118   6.904  17.609  0.00  0.00    +0.000 A 
ATOM     22  N   UNL     1       7.946   6.560  18.608  0.00  0.00    +0.000 NA
ATOM     23  O   UNL     1       8.668   7.732  18.844  0.00  0.00    +0.000 OA
BRANCH  21  24
ATOM     24  C   UNL     1       6.135   5.960  17.016  0.00  0.00    +0.000 C 
BRANCH  24  25
ATOM     25  C   UNL     1       4.873   6.071  17.841  0.00  0.00    +0.000 A 
ATOM     26  C   UNL     1       4.670   5.227  18.945  0.00  0.00    +0.000 A 
ATOM     27  C   UNL     1       3.497   5.312  19.698  0.00  0.00    +0.000 A 
ATOM     28  C   UNL     1       2.516   6.243  19.361  0.00  0.00    +0.000 A 
ATOM     29  C   UNL     1       2.710   7.094  18.275  0.00  0.00    +0.000 A 
ATOM     30  C   UNL     1       3.880   7.009  17.518  0.00  0.00    +0.000 A 
ENDBRANCH  24  25
ENDBRANCH  21  24
ENDBRANCH  18  19
ENDBRANCH  17  18
ENDBRANCH  16  17
ENDBRANCH   7  16
TORSDOF 9
ENDMDL
