MODEL 1
REMARK VINA RESULT:      -5.6      0.000      0.000
REMARK  Name = 
REMARK  6 active torsions:
REMARK  status: ('A' for Active; 'I' for Inactive)
REMARK    1  A    between atoms: O_1  and  C_2
REMARK    2  A    between atoms: C_2  and  C_3
REMARK    3  A    between atoms: C_5  and  O_6
REMARK    4  A    between atoms: C_7  and  O_8
REMARK    5  A    between atoms: C_9  and  O_10
REMARK    6  A    between atoms: C_11  and  O_12
REMARK                            x       y       z     vdW  Elec       q    Type
REMARK                         _______ _______ _______ _____ _____    ______ ____
ROOT
ATOM      1  C   UNL     1       5.320   4.702  18.555  0.00  0.00    +0.000 C 
ATOM      2  O   UNL     1       6.368   4.482  19.505  0.00  0.00    +0.000 OA
ATOM      3  C   UNL     1       7.118   5.667  19.760  0.00  0.00    +0.000 C 
ATOM      4  C   UNL     1       7.830   6.163  18.480  0.00  0.00    +0.000 C 
ATOM      5  C   UNL     1       6.806   6.306  17.336  0.00  0.00    +0.000 C 
ATOM      6  C   UNL     1       5.959   5.034  17.197  0.00  0.00    +0.000 C 
ENDROOT
BRANCH   3   7
ATOM      7  O   UNL     1       8.050   5.384  20.797  0.00  0.00    +0.000 OA
ATOM      8  H   UNL     1       7.561   4.946  21.517  0.00  0.00    +0.000 HD
ENDBRANCH   3   7
BRANCH   4   9
ATOM      9  O   UNL     1       8.517   7.395  18.752  0.00  0.00    +0.000 OA
ATOM     10  H   UNL     1       8.225   7.714  19.627  0.00  0.00    +0.000 HD
ENDBRANCH   4   9
BRANCH   5  11
ATOM     11  O   UNL     1       7.499   6.585  16.108  0.00  0.00    +0.000 OA
ATOM     12  H   UNL     1       7.185   5.902  15.473  0.00  0.00    +0.000 HD
ENDBRANCH   5  11
BRANCH   6  13
ATOM     13  O   UNL     1       6.838   3.975  16.759  0.00  0.00    +0.000 OA
ATOM     14  H   UNL     1       6.497   3.140  17.141  0.00  0.00    +0.000 HD
ENDBRANCH   6  13
BRANCH   1  15
ATOM     15  C   UNL     1       4.444   3.452  18.504  0.00  0.00    +0.000 C 
BRANCH  15  16
ATOM     16  O   UNL     1       4.941   2.448  19.380  0.00  0.00    +0.000 OA
ATOM     17  H   UNL     1       5.884   2.360  19.212  0.00  0.00    +0.000 HD
ENDBRANCH  15  16
ENDBRANCH   1  15
TORSDOF 6
ENDMDL
MODEL 2
REMARK VINA RESULT:      -5.5      1.043      1.213
REMARK  Name = 
REMARK  6 active torsions:
REMARK  status: ('A' for Active; 'I' for Inactive)
REMARK    1  A    between atoms: O_1  and  C_2
REMARK    2  A    between atoms: C_2  and  C_3
REMARK    3  A    between atoms: C_5  and  O_6
REMARK    4  A    between atoms: C_7  and  O_8
REMARK    5  A    between atoms: C_9  and  O_10
REMARK    6  A    between atoms: C_11  and  O_12
REMARK                            x       y       z     vdW  Elec       q    Type
REMARK                         _______ _______ _______ _____ _____    ______ ____
ROOT
ATOM      1  C   UNL     1       4.966   4.666  18.694  0.00  0.00    +0.000 C 
ATOM      2  O   UNL     1       6.312   4.697  19.182  0.00  0.00    +0.000 OA
ATOM      3  C   UNL     1       6.973   5.916  18.852  0.00  0.00    +0.000 C 
ATOM      4  C   UNL     1       7.094   6.089  17.320  0.00  0.00    +0.000 C 
ATOM      5  C   UNL     1       5.706   5.936  16.668  0.00  0.00    +0.000 C 
ATOM      6  C   UNL     1       5.008   4.660  17.157  0.00  0.00    +0.000 C 
ENDROOT
BRANCH   3   7
ATOM      7  O   UNL     1       8.252   5.906  19.478  0.00  0.00    +0.000 OA
ATOM      8  H   UNL     1       8.209   5.277  20.219  0.00  0.00    +0.000 HD
ENDBRANCH   3   7
BRANCH   4   9
ATOM      9  O   UNL     1       7.699   7.357  17.021  0.00  0.00    +0.000 OA
ATOM     10  H   UNL     1       8.309   7.578  17.750  0.00  0.00    +0.000 HD
ENDBRANCH   4   9
BRANCH   5  11
ATOM     11  O   UNL     1       5.852   5.911  15.238  0.00  0.00    +0.000 OA
ATOM     12  H   UNL     1       6.465   5.164  15.053  0.00  0.00    +0.000 HD
ENDBRANCH   5  11
BRANCH   6  13
ATOM     13  O   UNL     1       5.763   3.534  16.658  0.00  0.00    +0.000 OA
ATOM     14  H   UNL     1       5.399   2.731  17.083  0.00  0.00    +0.000 HD
ENDBRANCH   6  13
BRANCH   1  15
ATOM     15  C   UNL     1       4.272   3.433  19.270  0.00  0.00    +0.000 C 
BRANCH  15  16
ATOM     16  O   UNL     1       5.209   2.391  19.515  0.00  0.00    +0.000 OA
ATOM     17  H   UNL     1       5.734   2.649  20.279  0.00  0.00    +0.000 HD
ENDBRANCH  15  16
ENDBRANCH   1  15
TORSDOF 6
ENDMDL
MODEL 3
REMARK VINA RESULT:      -5.3      2.789      4.087
REMARK  Name = 
REMARK  6 active torsions:
REMARK  status: ('A' for Active; 'I' for Inactive)
REMARK    1  A    between atoms: O_1  and  C_2
REMARK    2  A    between atoms: C_2  and  C_3
REMARK    3  A    between atoms: C_5  and  O_6
REMARK    4  A    between atoms: C_7  and  O_8
REMARK    5  A    between atoms: C_9  and  O_10
REMARK    6  A    between atoms: C_11  and  O_12
REMARK                            x       y       z     vdW  Elec       q    Type
REMARK                         _______ _______ _______ _____ _____    ______ ____
ROOT
ATOM      1  C   UNL     1       2.079   3.456  19.471  0.00  0.00    +0.000 C 
ATOM      2  O   UNL     1       2.971   2.342  19.582  0.00  0.00    +0.000 OA
ATOM      3  C   UNL     1       4.328   2.757  19.725  0.00  0.00    +0.000 C 
ATOM      4  C   UNL     1       4.808   3.537  18.480  0.00  0.00    +0.000 C 
ATOM      5  C   UNL     1       3.832   4.692  18.181  0.00  0.00    +0.000 C 
ATOM      6  C   UNL     1       2.382   4.192  18.155  0.00  0.00    +0.000 C 
ENDROOT
BRANCH   3   7
ATOM      7  O   UNL     1       5.121   1.596  19.949  0.00  0.00    +0.000 OA
ATOM      8  H   UNL     1       6.053   1.879  19.966  0.00  0.00    +0.000 HD
ENDBRANCH   3   7
BRANCH   4   9
ATOM      9  O   UNL     1       6.153   4.001  18.685  0.00  0.00    +0.000 OA
ATOM     10  H   UNL     1       6.619   3.338  19.228  0.00  0.00    +0.000 HD
ENDBRANCH   4   9
BRANCH   5  11
ATOM     11  O   UNL     1       4.178   5.295  16.922  0.00  0.00    +0.000 OA
ATOM     12  H   UNL     1       4.023   6.259  17.047  0.00  0.00    +0.000 HD
ENDBRANCH   5  11
BRANCH   6  13
ATOM     13  O   UNL     1       2.249   3.309  17.019  0.00  0.00    +0.000 OA
ATOM     14  H   UNL     1       2.959   2.638  17.090  0.00  0.00    +0.000 HD
ENDBRANCH   6  13
BRANCH   1  15
ATOM     15  C   UNL     1       0.645   2.934  19.537  0.00  0.00    +0.000 C 
BRANCH  15  16
ATOM     16  O   UNL     1       0.454   1.856  18.629  0.00  0.00    +0.000 OA
ATOM     17  H   UNL     1      -0.489   1.667  18.600  0.00  0.00    +0.000 HD
ENDBRANCH  15  16
ENDBRANCH   1  15
TORSDOF 6
ENDMDL
MODEL 4
REMARK VINA RESULT:      -5.3      1.989      3.370
REMARK  Name = 
REMARK  6 active torsions:
REMARK  status: ('A' for Active; 'I' for Inactive)
REMARK    1  A    between atoms: O_1  and  C_2
REMARK    2  A    between atoms: C_2  and  C_3
REMARK    3  A    between atoms: C_5  and  O_6
REMARK    4  A    between atoms: C_7  and  O_8
REMARK    5  A    between atoms: C_9  and  O_10
REMARK    6  A    between atoms: C_11  and  O_12
REMARK                            x       y       z     vdW  Elec       q    Type
REMARK                         _______ _______ _______ _____ _____    ______ ____
ROOT
ATOM      1  C   UNL     1       4.482   4.655  17.903  0.00  0.00    +0.000 C 
ATOM      2  O   UNL     1       4.488   5.890  17.179  0.00  0.00    +0.000 OA
ATOM      3  C   UNL     1       5.274   5.811  15.992  0.00  0.00    +0.000 C 
ATOM      4  C   UNL     1       6.758   5.528  16.323  0.00  0.00    +0.000 C 
ATOM      5  C   UNL     1       6.862   4.281  17.224  0.00  0.00    +0.000 C 
ATOM      6  C   UNL     1       5.905   4.387  18.418  0.00  0.00    +0.000 C 
ENDROOT
BRANCH   3   7
ATOM      7  O   UNL     1       5.124   7.036  15.282  0.00  0.00    +0.000 OA
ATOM      8  H   UNL     1       6.007   7.440  15.209  0.00  0.00    +0.000 HD
ENDBRANCH   3   7
BRANCH   4   9
ATOM      9  O   UNL     1       7.508   5.384  15.105  0.00  0.00    +0.000 OA
ATOM     10  H   UNL     1       7.248   6.108  14.505  0.00  0.00    +0.000 HD
ENDBRANCH   4   9
BRANCH   5  11
ATOM     11  O   UNL     1       8.218   4.133  17.678  0.00  0.00    +0.000 OA
ATOM     12  H   UNL     1       8.359   4.871  18.314  0.00  0.00    +0.000 HD
ENDBRANCH   5  11
BRANCH   6  13
ATOM     13  O   UNL     1       6.372   5.471  19.252  0.00  0.00    +0.000 OA
ATOM     14  H   UNL     1       7.350   5.420  19.271  0.00  0.00    +0.000 HD
ENDBRANCH   6  13
BRANCH   1  15
ATOM     15  C   UNL     1       3.457   4.761  19.030  0.00  0.00    +0.000 C 
BRANCH  15  16
ATOM     16  O   UNL     1       3.703   5.908  19.834  0.00  0.00    +0.000 OA
ATOM     17  H   UNL     1       4.634   6.131  19.741  0.00  0.00    +0.000 HD
ENDBRANCH  15  16
ENDBRANCH   1  15
TORSDOF 6
ENDMDL
MODEL 5
REMARK VINA RESULT:      -5.3      1.416      4.414
REMARK  Name = 
REMARK  6 active torsions:
REMARK  status: ('A' for Active; 'I' for Inactive)
REMARK    1  A    between atoms: O_1  and  C_2
REMARK    2  A    between atoms: C_2  and  C_3
REMARK    3  A    between atoms: C_5  and  O_6
REMARK    4  A    between atoms: C_7  and  O_8
REMARK    5  A    between atoms: C_9  and  O_10
REMARK    6  A    between atoms: C_11  and  O_12
REMARK                            x       y       z     vdW  Elec       q    Type
REMARK                         _______ _______ _______ _____ _____    ______ ____
ROOT
ATOM      1  C   UNL     1       7.050   6.972  17.448  0.00  0.00    +0.000 C 
ATOM      2  O   UNL     1       7.673   6.396  16.295  0.00  0.00    +0.000 OA
ATOM      3  C   UNL     1       6.838   5.430  15.662  0.00  0.00    +0.000 C 
ATOM      4  C   UNL     1       6.549   4.238  16.604  0.00  0.00    +0.000 C 
ATOM      5  C   UNL     1       5.995   4.757  17.946  0.00  0.00    +0.000 C 
ATOM      6  C   UNL     1       6.884   5.873  18.510  0.00  0.00    +0.000 C 
ENDROOT
BRANCH   3   7
ATOM      7  O   UNL     1       7.485   5.004  14.468  0.00  0.00    +0.000 OA
ATOM      8  H   UNL     1       8.150   5.679  14.240  0.00  0.00    +0.000 HD
ENDBRANCH   3   7
BRANCH   4   9
ATOM      9  O   UNL     1       5.649   3.319  15.962  0.00  0.00    +0.000 OA
ATOM     10  H   UNL     1       4.968   3.062  16.613  0.00  0.00    +0.000 HD
ENDBRANCH   4   9
BRANCH   5  11
ATOM     11  O   UNL     1       5.905   3.667  18.878  0.00  0.00    +0.000 OA
ATOM     12  H   UNL     1       5.020   3.759  19.298  0.00  0.00    +0.000 HD
ENDBRANCH   5  11
BRANCH   6  13
ATOM     13  O   UNL     1       8.156   5.281  18.854  0.00  0.00    +0.000 OA
ATOM     14  H   UNL     1       8.496   4.839  18.049  0.00  0.00    +0.000 HD
ENDBRANCH   6  13
BRANCH   1  15
ATOM     15  C   UNL     1       7.913   8.135  17.933  0.00  0.00    +0.000 C 
BRANCH  15  16
ATOM     16  O   UNL     1       8.685   7.757  19.066  0.00  0.00    +0.000 OA
ATOM     17  H   UNL     1       9.405   7.202  18.752  0.00  0.00    +0.000 HD
ENDBRANCH  15  16
ENDBRANCH   1  15
TORSDOF 6
ENDMDL
MODEL 6
REMARK VINA RESULT:      -5.3      1.651      2.035
REMARK  Name = 
REMARK  6 active torsions:
REMARK  status: ('A' for Active; 'I' for Inactive)
REMARK    1  A    between atoms: O_1  and  C_2
REMARK    2  A    between atoms: C_2  and  C_3
REMARK    3  A    between atoms: C_5  and  O_6
REMARK    4  A    between atoms: C_7  and  O_8
REMARK    5  A    between atoms: C_9  and  O_10
REMARK    6  A    between atoms: C_11  and  O_12
REMARK                            x       y       z     vdW  Elec       q    Type
REMARK                         _______ _______ _______ _____ _____    ______ ____
ROOT
ATOM      1  C   UNL     1       5.060   4.489  18.899  0.00  0.00    +0.000 C 
ATOM      2  O   UNL     1       6.262   3.850  18.456  0.00  0.00    +0.000 OA
ATOM      3  C   UNL     1       7.233   4.792  18.004  0.00  0.00    +0.000 C 
ATOM      4  C   UNL     1       6.718   5.581  16.778  0.00  0.00    +0.000 C 
ATOM      5  C   UNL     1       5.346   6.206  17.101  0.00  0.00    +0.000 C 
ATOM      6  C   UNL     1       4.391   5.159  17.688  0.00  0.00    +0.000 C 
ENDROOT
BRANCH   3   7
ATOM      7  O   UNL     1       8.428   4.080  17.700  0.00  0.00    +0.000 OA
ATOM      8  H   UNL     1       8.246   3.525  16.921  0.00  0.00    +0.000 HD
ENDBRANCH   3   7
BRANCH   4   9
ATOM      9  O   UNL     1       7.689   6.568  16.393  0.00  0.00    +0.000 OA
ATOM     10  H   UNL     1       8.026   6.990  17.205  0.00  0.00    +0.000 HD
ENDBRANCH   4   9
BRANCH   5  11
ATOM     11  O   UNL     1       4.790   6.778  15.905  0.00  0.00    +0.000 OA
ATOM     12  H   UNL     1       3.952   7.208  16.190  0.00  0.00    +0.000 HD
ENDBRANCH   5  11
BRANCH   6  13
ATOM     13  O   UNL     1       4.110   4.197  16.648  0.00  0.00    +0.000 OA
ATOM     14  H   UNL     1       4.804   3.509  16.695  0.00  0.00    +0.000 HD
ENDBRANCH   6  13
BRANCH   1  15
ATOM     15  C   UNL     1       4.170   3.438  19.558  0.00  0.00    +0.000 C 
BRANCH  15  16
ATOM     16  O   UNL     1       4.899   2.244  19.816  0.00  0.00    +0.000 OA
ATOM     17  H   UNL     1       4.976   1.768  18.984  0.00  0.00    +0.000 HD
ENDBRANCH  15  16
ENDBRANCH   1  15
TORSDOF 6
ENDMDL
MODEL 7
REMARK VINA RESULT:      -5.2      3.223      5.239
REMARK  Name = 
REMARK  6 active torsions:
REMARK  status: ('A' for Active; 'I' for Inactive)
REMARK    1  A    between atoms: O_1  and  C_2
REMARK    2  A    between atoms: C_2  and  C_3
REMARK    3  A    between atoms: C_5  and  O_6
REMARK    4  A    between atoms: C_7  and  O_8
REMARK    5  A    between atoms: C_9  and  O_10
REMARK    6  A    between atoms: C_11  and  O_12
REMARK                            x       y       z     vdW  Elec       q    Type
REMARK                         _______ _______ _______ _____ _____    ______ ____
ROOT
ATOM      1  C   UNL     1       2.498   4.425  20.299  0.00  0.00    +0.000 C 
ATOM      2  O   UNL     1       1.692   3.588  19.462  0.00  0.00    +0.000 OA
ATOM      3  C   UNL     1       2.256   2.289  19.303  0.00  0.00    +0.000 C 
ATOM      4  C   UNL     1       3.632   2.359  18.601  0.00  0.00    +0.000 C 
ATOM      5  C   UNL     1       4.548   3.349  19.348  0.00  0.00    +0.000 C 
ATOM      6  C   UNL     1       3.833   4.686  19.584  0.00  0.00    +0.000 C 
ENDROOT
BRANCH   3   7
ATOM      7  O   UNL     1       1.335   1.497  18.562  0.00  0.00    +0.000 OA
ATOM      8  H   UNL     1       0.969   2.059  17.856  0.00  0.00    +0.000 HD
ENDBRANCH   3   7
BRANCH   4   9
ATOM      9  O   UNL     1       4.205   1.043  18.520  0.00  0.00    +0.000 OA
ATOM     10  H   UNL     1       3.771   0.486  19.194  0.00  0.00    +0.000 HD
ENDBRANCH   4   9
BRANCH   5  11
ATOM     11  O   UNL     1       5.752   3.550  18.589  0.00  0.00    +0.000 OA
ATOM     12  H   UNL     1       5.584   4.353  18.046  0.00  0.00    +0.000 HD
ENDBRANCH   5  11
BRANCH   6  13
ATOM     13  O   UNL     1       3.624   5.298  18.292  0.00  0.00    +0.000 OA
ATOM     14  H   UNL     1       3.619   6.268  18.429  0.00  0.00    +0.000 HD
ENDBRANCH   6  13
BRANCH   1  15
ATOM     15  C   UNL     1       1.723   5.709  20.587  0.00  0.00    +0.000 C 
BRANCH  15  16
ATOM     16  O   UNL     1       2.532   6.855  20.352  0.00  0.00    +0.000 OA
ATOM     17  H   UNL     1       1.942   7.588  20.154  0.00  0.00    +0.000 HD
ENDBRANCH  15  16
ENDBRANCH   1  15
TORSDOF 6
ENDMDL
MODEL 8
REMARK VINA RESULT:      -5.2      2.706      5.553
REMARK  Name = 
REMARK  6 active torsions:
REMARK  status: ('A' for Active; 'I' for Inactive)
REMARK    1  A    between atoms: O_1  and  C_2
REMARK    2  A    between atoms: C_2  and  C_3
REMARK    3  A    between atoms: C_5  and  O_6
REMARK    4  A    between atoms: C_7  and  O_8
REMARK    5  A    between atoms: C_9  and  O_10
REMARK    6  A    between atoms: C_11  and  O_12
REMARK                            x       y       z     vdW  Elec       q    Type
REMARK                         _______ _______ _______ _____ _____    ______ ____
ROOT
ATOM      1  C   UNL     1       4.263   4.477  18.437  0.00  0.00    +0.000 C 
ATOM      2  O   UNL     1       3.177   4.141  17.566  0.00  0.00    +0.000 OA
ATOM      3  C   UNL     1       1.912   4.301  18.203  0.00  0.00    +0.000 C 
ATOM      4  C   UNL     1       1.771   3.348  19.413  0.00  0.00    +0.000 C 
ATOM      5  C   UNL     1       2.973   3.528  20.361  0.00  0.00    +0.000 C 
ATOM      6  C   UNL     1       4.296   3.457  19.587  0.00  0.00    +0.000 C 
ENDROOT
BRANCH   3   7
ATOM      7  O   UNL     1       0.898   4.063  17.233  0.00  0.00    +0.000 OA
ATOM      8  H   UNL     1       1.340   3.793  16.409  0.00  0.00    +0.000 HD
ENDBRANCH   3   7
BRANCH   4   9
ATOM      9  O   UNL     1       0.517   3.584  20.074  0.00  0.00    +0.000 OA
ATOM     10  H   UNL     1       0.672   4.224  20.794  0.00  0.00    +0.000 HD
ENDBRANCH   4   9
BRANCH   5  11
ATOM     11  O   UNL     1       2.933   2.515  21.380  0.00  0.00    +0.000 OA
ATOM     12  H   UNL     1       3.847   2.476  21.742  0.00  0.00    +0.000 HD
ENDBRANCH   5  11
BRANCH   6  13
ATOM     13  O   UNL     1       4.434   2.109  19.088  0.00  0.00    +0.000 OA
ATOM     14  H   UNL     1       4.955   1.608  19.749  0.00  0.00    +0.000 HD
ENDBRANCH   6  13
BRANCH   1  15
ATOM     15  C   UNL     1       5.552   4.484  17.619  0.00  0.00    +0.000 C 
BRANCH  15  16
ATOM     16  O   UNL     1       6.659   4.067  18.409  0.00  0.00    +0.000 OA
ATOM     17  H   UNL     1       7.197   4.844  18.586  0.00  0.00    +0.000 HD
ENDBRANCH  15  16
ENDBRANCH   1  15
TORSDOF 6
ENDMDL
MODEL 9
REMARK VINA RESULT:      -5.2      1.970      2.685
REMARK  Name = 
REMARK  6 active torsions:
REMARK  status: ('A' for Active; 'I' for Inactive)
REMARK    1  A    between atoms: O_1  and  C_2
REMARK    2  A    between atoms: C_2  and  C_3
REMARK    3  A    between atoms: C_5  and  O_6
REMARK    4  A    between atoms: C_7  and  O_8
REMARK    5  A    between atoms: C_9  and  O_10
REMARK    6  A    between atoms: C_11  and  O_12
REMARK                            x       y       z     vdW  Elec       q    Type
REMARK                         _______ _______ _______ _____ _____    ______ ____
ROOT
ATOM      1  C   UNL     1       3.726   4.966  17.874  0.00  0.00    +0.000 C 
ATOM      2  O   UNL     1       4.607   4.944  19.002  0.00  0.00    +0.000 OA
ATOM      3  C   UNL     1       5.934   5.327  18.651  0.00  0.00    +0.000 C 
ATOM      4  C   UNL     1       6.552   4.338  17.635  0.00  0.00    +0.000 C 
ATOM      5  C   UNL     1       5.609   4.177  16.426  0.00  0.00    +0.000 C 
ATOM      6  C   UNL     1       4.176   3.878  16.885  0.00  0.00    +0.000 C 
ENDROOT
BRANCH   3   7
ATOM      7  O   UNL     1       6.704   5.394  19.846  0.00  0.00    +0.000 OA
ATOM      8  H   UNL     1       7.632   5.536  19.588  0.00  0.00    +0.000 HD
ENDBRANCH   3   7
BRANCH   4   9
ATOM      9  O   UNL     1       7.860   4.791  17.249  0.00  0.00    +0.000 OA
ATOM     10  H   UNL     1       8.371   4.015  16.953  0.00  0.00    +0.000 HD
ENDBRANCH   4   9
BRANCH   5  11
ATOM     11  O   UNL     1       6.096   3.122  15.579  0.00  0.00    +0.000 OA
ATOM     12  H   UNL     1       6.679   2.577  16.155  0.00  0.00    +0.000 HD
ENDBRANCH   5  11
BRANCH   6  13
ATOM     13  O   UNL     1       4.183   2.575  17.508  0.00  0.00    +0.000 OA
ATOM     14  H   UNL     1       5.078   2.439  17.883  0.00  0.00    +0.000 HD
ENDBRANCH   6  13
BRANCH   1  15
ATOM     15  C   UNL     1       2.298   4.754  18.373  0.00  0.00    +0.000 C 
BRANCH  15  16
ATOM     16  O   UNL     1       1.541   3.993  17.439  0.00  0.00    +0.000 OA
ATOM     17  H   UNL     1       2.142   3.371  17.019  0.00  0.00    +0.000 HD
ENDBRANCH  15  16
ENDBRANCH   1  15
TORSDOF 6
ENDMDL
