MODEL 1
REMARK VINA RESULT:      -7.8      0.000      0.000
REMARK  Name = 
REMARK  6 active torsions:
REMARK  status: ('A' for Active; 'I' for Inactive)
REMARK    1  A    between atoms: C_1  and  N_2
REMARK    2  A    between atoms: N_2  and  C_3
REMARK    3  A    between atoms: N_2  and  C_4
REMARK    4  A    between atoms: C_7  and  C_8
REMARK    5  A    between atoms: N_9  and  C_10
REMARK    6  A    between atoms: N_19  and  C_20
REMARK                            x       y       z     vdW  Elec       q    Type
REMARK                         _______ _______ _______ _____ _____    ______ ____
ROOT
ATOM      1  C   UNL     1       4.818   4.230  18.396  0.00  0.00    +0.000 C 
ATOM      2  N   UNL     1       4.689   2.864  18.882  0.00  0.00    +0.000 N 
ATOM      3  C   UNL     1       4.055   1.895  17.982  0.00  0.00    +0.000 C 
ATOM      4  C   UNL     1       4.298   2.819  20.230  0.00  0.00    +0.000 C 
ATOM      5  O   UNL     1       4.726   1.993  21.027  0.00  0.00    +0.000 OA
ATOM      6  C   UNL     1       3.110   3.681  20.557  0.00  0.00    +0.000 A 
ATOM      7  C   UNL     1       2.255   3.224  21.554  0.00  0.00    +0.000 A 
ATOM      8  C   UNL     1       0.977   2.839  21.172  0.00  0.00    +0.000 A 
ATOM      9  C   UNL     1       0.578   3.002  19.843  0.00  0.00    +0.000 A 
ATOM     10  C   UNL     1       1.359   3.762  18.963  0.00  0.00    +0.000 A 
ATOM     11  C   UNL     1       2.609   4.220  19.373  0.00  0.00    +0.000 A 
ATOM     12  N   UNL     1       3.487   4.913  18.492  0.00  0.00    +0.000 N 
ATOM     13  C   UNL     1       3.655   6.282  19.041  0.00  0.00    +0.000 C 
ENDROOT
BRANCH   1  17
ATOM     14  C   UNL     1       6.623   4.418  14.403  0.00  0.00    +0.000 A 
ATOM     15  C   UNL     1       5.234   4.373  14.573  0.00  0.00    +0.000 A 
ATOM     16  C   UNL     1       4.649   4.303  15.846  0.00  0.00    +0.000 A 
ATOM     17  C   UNL     1       5.429   4.343  17.001  0.00  0.00    +0.000 A 
ATOM     18  C   UNL     1       6.811   4.502  16.848  0.00  0.00    +0.000 A 
ATOM     19  C   UNL     1       7.389   4.544  15.572  0.00  0.00    +0.000 A 
BRANCH  14  21
ATOM     20  C   UNL     1       7.906   5.549  12.626  0.00  0.00    +0.000 C 
ATOM     21  N   UNL     1       7.236   4.349  13.138  0.00  0.00    +0.000 N 
ATOM     22  C   UNL     1       6.463   3.605  12.134  0.00  0.00    +0.000 C 
ENDBRANCH  14  21
ENDBRANCH   1  17
TORSDOF 2
ENDMDL
MODEL 2
REMARK VINA RESULT:      -7.6      0.210      1.272
REMARK  Name = 
REMARK  6 active torsions:
REMARK  status: ('A' for Active; 'I' for Inactive)
REMARK    1  A    between atoms: C_1  and  N_2
REMARK    2  A    between atoms: N_2  and  C_3
REMARK    3  A    between atoms: N_2  and  C_4
REMARK    4  A    between atoms: C_7  and  C_8
REMARK    5  A    between atoms: N_9  and  C_10
REMARK    6  A    between atoms: N_19  and  C_20
REMARK                            x       y       z     vdW  Elec       q    Type
REMARK                         _______ _______ _______ _____ _____    ______ ____
ROOT
ATOM      1  C   UNL     1       4.841   4.192  18.365  0.00  0.00    +0.000 C 
ATOM      2  N   UNL     1       4.702   2.834  18.866  0.00  0.00    +0.000 N 
ATOM      3  C   UNL     1       4.062   1.858  17.979  0.00  0.00    +0.000 C 
ATOM      4  C   UNL     1       4.312   2.807  20.215  0.00  0.00    +0.000 C 
ATOM      5  O   UNL     1       4.734   1.987  21.021  0.00  0.00    +0.000 OA
ATOM      6  C   UNL     1       3.129   3.680  20.532  0.00  0.00    +0.000 A 
ATOM      7  C   UNL     1       2.272   3.241  21.535  0.00  0.00    +0.000 A 
ATOM      8  C   UNL     1       0.991   2.860  21.158  0.00  0.00    +0.000 A 
ATOM      9  C   UNL     1       0.593   3.011  19.827  0.00  0.00    +0.000 A 
ATOM     10  C   UNL     1       1.378   3.755  18.938  0.00  0.00    +0.000 A 
ATOM     11  C   UNL     1       2.632   4.209  19.342  0.00  0.00    +0.000 A 
ATOM     12  N   UNL     1       3.515   4.886  18.453  0.00  0.00    +0.000 N 
ATOM     13  C   UNL     1       3.692   6.260  18.986  0.00  0.00    +0.000 C 
ENDROOT
BRANCH   1  17
ATOM     14  C   UNL     1       6.534   4.587  14.338  0.00  0.00    +0.000 A 
ATOM     15  C   UNL     1       7.347   4.631  15.477  0.00  0.00    +0.000 A 
ATOM     16  C   UNL     1       6.812   4.516  16.768  0.00  0.00    +0.000 A 
ATOM     17  C   UNL     1       5.452   4.284  16.968  0.00  0.00    +0.000 A 
ATOM     18  C   UNL     1       4.646   4.124  15.835  0.00  0.00    +0.000 A 
ATOM     19  C   UNL     1       5.184   4.268  14.549  0.00  0.00    +0.000 A 
BRANCH  14  21
ATOM     20  C   UNL     1       6.912   3.774  12.040  0.00  0.00    +0.000 C 
ATOM     21  N   UNL     1       7.026   4.838  13.043  0.00  0.00    +0.000 N 
ATOM     22  C   UNL     1       8.299   5.572  13.014  0.00  0.00    +0.000 C 
ENDBRANCH  14  21
ENDBRANCH   1  17
TORSDOF 2
ENDMDL
MODEL 3
REMARK VINA RESULT:      -7.2      3.299      6.154
REMARK  Name = 
REMARK  6 active torsions:
REMARK  status: ('A' for Active; 'I' for Inactive)
REMARK    1  A    between atoms: C_1  and  N_2
REMARK    2  A    between atoms: N_2  and  C_3
REMARK    3  A    between atoms: N_2  and  C_4
REMARK    4  A    between atoms: C_7  and  C_8
REMARK    5  A    between atoms: N_9  and  C_10
REMARK    6  A    between atoms: N_19  and  C_20
REMARK                            x       y       z     vdW  Elec       q    Type
REMARK                         _______ _______ _______ _____ _____    ______ ____
ROOT
ATOM      1  C   UNL     1       2.832   6.075  19.696  0.00  0.00    +0.000 C 
ATOM      2  N   UNL     1       4.020   5.753  18.920  0.00  0.00    +0.000 N 
ATOM      3  C   UNL     1       3.937   5.936  17.468  0.00  0.00    +0.000 C 
ATOM      4  C   UNL     1       4.640   4.576  19.371  0.00  0.00    +0.000 C 
ATOM      5  O   UNL     1       5.856   4.429  19.411  0.00  0.00    +0.000 OA
ATOM      6  C   UNL     1       3.704   3.410  19.537  0.00  0.00    +0.000 A 
ATOM      7  C   UNL     1       4.224   2.145  19.287  0.00  0.00    +0.000 A 
ATOM      8  C   UNL     1       3.740   1.464  18.178  0.00  0.00    +0.000 A 
ATOM      9  C   UNL     1       2.711   2.027  17.420  0.00  0.00    +0.000 A 
ATOM     10  C   UNL     1       2.010   3.140  17.903  0.00  0.00    +0.000 A 
ATOM     11  C   UNL     1       2.446   3.777  19.063  0.00  0.00    +0.000 A 
ATOM     12  N   UNL     1       1.833   4.967  19.548  0.00  0.00    +0.000 N 
ATOM     13  C   UNL     1       1.239   4.638  20.868  0.00  0.00    +0.000 C 
ENDROOT
BRANCH   1  17
ATOM     14  C   UNL     1       1.214  10.067  18.864  0.00  0.00    +0.000 A 
ATOM     15  C   UNL     1       1.788   9.288  17.852  0.00  0.00    +0.000 A 
ATOM     16  C   UNL     1       2.317   8.015  18.112  0.00  0.00    +0.000 A 
ATOM     17  C   UNL     1       2.231   7.444  19.381  0.00  0.00    +0.000 A 
ATOM     18  C   UNL     1       1.559   8.163  20.374  0.00  0.00    +0.000 A 
ATOM     19  C   UNL     1       1.058   9.446  20.113  0.00  0.00    +0.000 A 
BRANCH  14  21
ATOM     20  C   UNL     1       1.791  12.464  18.857  0.00  0.00    +0.000 C 
ATOM     21  N   UNL     1       0.804  11.397  18.659  0.00  0.00    +0.000 N 
ATOM     22  C   UNL     1      -0.537  11.701  19.178  0.00  0.00    +0.000 C 
ENDBRANCH  14  21
ENDBRANCH   1  17
TORSDOF 2
ENDMDL
MODEL 4
REMARK VINA RESULT:      -7.2      3.315      6.220
REMARK  Name = 
REMARK  6 active torsions:
REMARK  status: ('A' for Active; 'I' for Inactive)
REMARK    1  A    between atoms: C_1  and  N_2
REMARK    2  A    between atoms: N_2  and  C_3
REMARK    3  A    between atoms: N_2  and  C_4
REMARK    4  A    between atoms: C_7  and  C_8
REMARK    5  A    between atoms: N_9  and  C_10
REMARK    6  A    between atoms: N_19  and  C_20
REMARK                            x       y       z     vdW  Elec       q    Type
REMARK                         _______ _______ _______ _____ _____    ______ ____
ROOT
ATOM      1  C   UNL     1       2.837   6.045  19.757  0.00  0.00    +0.000 C 
ATOM      2  N   UNL     1       3.987   5.741  18.919  0.00  0.00    +0.000 N 
ATOM      3  C   UNL     1       3.828   5.937  17.474  0.00  0.00    +0.000 C 
ATOM      4  C   UNL     1       4.641   4.567  19.325  0.00  0.00    +0.000 C 
ATOM      5  O   UNL     1       5.858   4.433  19.303  0.00  0.00    +0.000 OA
ATOM      6  C   UNL     1       3.726   3.390  19.528  0.00  0.00    +0.000 A 
ATOM      7  C   UNL     1       4.244   2.133  19.240  0.00  0.00    +0.000 A 
ATOM      8  C   UNL     1       3.711   1.456  18.151  0.00  0.00    +0.000 A 
ATOM      9  C   UNL     1       2.639   2.017  17.452  0.00  0.00    +0.000 A 
ATOM     10  C   UNL     1       1.953   3.118  17.981  0.00  0.00    +0.000 A 
ATOM     11  C   UNL     1       2.441   3.748  19.123  0.00  0.00    +0.000 A 
ATOM     12  N   UNL     1       1.843   4.928  19.650  0.00  0.00    +0.000 N 
ATOM     13  C   UNL     1       1.320   4.581  20.995  0.00  0.00    +0.000 C 
ENDROOT
BRANCH   1  17
ATOM     14  C   UNL     1       0.923   9.899  18.905  0.00  0.00    +0.000 A 
ATOM     15  C   UNL     1       0.961   9.376  20.204  0.00  0.00    +0.000 A 
ATOM     16  C   UNL     1       1.563   8.140  20.483  0.00  0.00    +0.000 A 
ATOM     17  C   UNL     1       2.208   7.410  19.485  0.00  0.00    +0.000 A 
ATOM     18  C   UNL     1       2.276   7.974  18.207  0.00  0.00    +0.000 A 
ATOM     19  C   UNL     1       1.648   9.196  17.931  0.00  0.00    +0.000 A 
BRANCH  14  21
ATOM     20  C   UNL     1       0.426  12.265  19.390  0.00  0.00    +0.000 C 
ATOM     21  N   UNL     1       0.207  11.064  18.576  0.00  0.00    +0.000 N 
ATOM     22  C   UNL     1      -1.195  10.826  18.205  0.00  0.00    +0.000 C 
ENDBRANCH  14  21
ENDBRANCH   1  17
TORSDOF 2
ENDMDL
MODEL 5
REMARK VINA RESULT:      -6.7      1.683      2.357
REMARK  Name = 
REMARK  6 active torsions:
REMARK  status: ('A' for Active; 'I' for Inactive)
REMARK    1  A    between atoms: C_1  and  N_2
REMARK    2  A    between atoms: N_2  and  C_3
REMARK    3  A    between atoms: N_2  and  C_4
REMARK    4  A    between atoms: C_7  and  C_8
REMARK    5  A    between atoms: N_9  and  C_10
REMARK    6  A    between atoms: N_19  and  C_20
REMARK                            x       y       z     vdW  Elec       q    Type
REMARK                         _______ _______ _______ _____ _____    ______ ____
ROOT
ATOM      1  C   UNL     1       3.614   4.873  17.414  0.00  0.00    +0.000 C 
ATOM      2  N   UNL     1       3.953   5.601  18.628  0.00  0.00    +0.000 N 
ATOM      3  C   UNL     1       5.233   5.275  19.264  0.00  0.00    +0.000 C 
ATOM      4  C   UNL     1       2.847   5.747  19.481  0.00  0.00    +0.000 C 
ATOM      5  O   UNL     1       2.633   6.760  20.137  0.00  0.00    +0.000 OA
ATOM      6  C   UNL     1       2.097   4.470  19.744  0.00  0.00    +0.000 A 
ATOM      7  C   UNL     1       1.509   4.332  20.996  0.00  0.00    +0.000 A 
ATOM      8  C   UNL     1       2.033   3.367  21.845  0.00  0.00    +0.000 A 
ATOM      9  C   UNL     1       3.055   2.531  21.388  0.00  0.00    +0.000 A 
ATOM     10  C   UNL     1       3.380   2.499  20.026  0.00  0.00    +0.000 A 
ATOM     11  C   UNL     1       2.792   3.415  19.156  0.00  0.00    +0.000 A 
ATOM     12  N   UNL     1       3.155   3.493  17.781  0.00  0.00    +0.000 N 
ATOM     13  C   UNL     1       1.947   3.133  16.997  0.00  0.00    +0.000 C 
ENDROOT
BRANCH   1  17
ATOM     14  C   UNL     1       6.707   4.767  14.306  0.00  0.00    +0.000 A 
ATOM     15  C   UNL     1       6.192   5.980  14.780  0.00  0.00    +0.000 A 
ATOM     16  C   UNL     1       5.196   6.022  15.766  0.00  0.00    +0.000 A 
ATOM     17  C   UNL     1       4.724   4.855  16.365  0.00  0.00    +0.000 A 
ATOM     18  C   UNL     1       5.311   3.644  15.982  0.00  0.00    +0.000 A 
ATOM     19  C   UNL     1       6.285   3.608  14.976  0.00  0.00    +0.000 A 
BRANCH  14  21
ATOM     20  C   UNL     1       8.386   5.887  12.889  0.00  0.00    +0.000 C 
ATOM     21  N   UNL     1       7.602   4.693  13.223  0.00  0.00    +0.000 N 
ATOM     22  C   UNL     1       7.082   3.959  12.060  0.00  0.00    +0.000 C 
ENDBRANCH  14  21
ENDBRANCH   1  17
TORSDOF 2
ENDMDL
MODEL 6
REMARK VINA RESULT:      -6.4      3.306      6.493
REMARK  Name = 
REMARK  6 active torsions:
REMARK  status: ('A' for Active; 'I' for Inactive)
REMARK    1  A    between atoms: C_1  and  N_2
REMARK    2  A    between atoms: N_2  and  C_3
REMARK    3  A    between atoms: N_2  and  C_4
REMARK    4  A    between atoms: C_7  and  C_8
REMARK    5  A    between atoms: N_9  and  C_10
REMARK    6  A    between atoms: N_19  and  C_20
REMARK                            x       y       z     vdW  Elec       q    Type
REMARK                         _______ _______ _______ _____ _____    ______ ____
ROOT
ATOM      1  C   UNL     1       2.357   5.802  18.206  0.00  0.00    +0.000 C 
ATOM      2  N   UNL     1       1.522   4.754  18.774  0.00  0.00    +0.000 N 
ATOM      3  C   UNL     1       1.399   4.717  20.234  0.00  0.00    +0.000 C 
ATOM      4  C   UNL     1       1.711   3.521  18.128  0.00  0.00    +0.000 C 
ATOM      5  O   UNL     1       0.801   2.732  17.904  0.00  0.00    +0.000 OA
ATOM      6  C   UNL     1       3.152   3.117  17.981  0.00  0.00    +0.000 A 
ATOM      7  C   UNL     1       3.433   1.756  18.031  0.00  0.00    +0.000 A 
ATOM      8  C   UNL     1       4.152   1.292  19.124  0.00  0.00    +0.000 A 
ATOM      9  C   UNL     1       4.630   2.204  20.070  0.00  0.00    +0.000 A 
ATOM     10  C   UNL     1       4.598   3.578  19.800  0.00  0.00    +0.000 A 
ATOM     11  C   UNL     1       3.947   4.040  18.659  0.00  0.00    +0.000 A 
ATOM     12  N   UNL     1       3.799   5.429  18.383  0.00  0.00    +0.000 N 
ATOM     13  C   UNL     1       4.552   5.702  17.133  0.00  0.00    +0.000 C 
ENDROOT
BRANCH   1  17
ATOM     14  C   UNL     1       1.342   9.808  19.675  0.00  0.00    +0.000 A 
ATOM     15  C   UNL     1       1.578   8.747  20.558  0.00  0.00    +0.000 A 
ATOM     16  C   UNL     1       1.893   7.461  20.095  0.00  0.00    +0.000 A 
ATOM     17  C   UNL     1       2.051   7.201  18.735  0.00  0.00    +0.000 A 
ATOM     18  C   UNL     1       1.930   8.278  17.849  0.00  0.00    +0.000 A 
ATOM     19  C   UNL     1       1.588   9.553  18.317  0.00  0.00    +0.000 A 
BRANCH  14  21
ATOM     20  C   UNL     1       0.111  11.139  21.347  0.00  0.00    +0.000 C 
ATOM     21  N   UNL     1       0.889  11.069  20.106  0.00  0.00    +0.000 N 
ATOM     22  C   UNL     1       0.394  11.933  19.025  0.00  0.00    +0.000 C 
ENDBRANCH  14  21
ENDBRANCH   1  17
TORSDOF 2
ENDMDL
MODEL 7
REMARK VINA RESULT:      -6.3      4.837      7.236
REMARK  Name = 
REMARK  6 active torsions:
REMARK  status: ('A' for Active; 'I' for Inactive)
REMARK    1  A    between atoms: C_1  and  N_2
REMARK    2  A    between atoms: N_2  and  C_3
REMARK    3  A    between atoms: N_2  and  C_4
REMARK    4  A    between atoms: C_7  and  C_8
REMARK    5  A    between atoms: N_9  and  C_10
REMARK    6  A    between atoms: N_19  and  C_20
REMARK                            x       y       z     vdW  Elec       q    Type
REMARK                         _______ _______ _______ _____ _____    ______ ____
ROOT
ATOM      1  C   UNL     1       1.708   8.531  19.861  0.00  0.00    +0.000 C 
ATOM      2  N   UNL     1       0.841   8.860  20.982  0.00  0.00    +0.000 N 
ATOM      3  C   UNL     1      -0.422   8.122  21.086  0.00  0.00    +0.000 C 
ATOM      4  C   UNL     1       0.781  10.244  21.213  0.00  0.00    +0.000 C 
ATOM      5  O   UNL     1       0.733  10.737  22.334  0.00  0.00    +0.000 OA
ATOM      6  C   UNL     1       0.499  11.063  19.984  0.00  0.00    +0.000 A 
ATOM      7  C   UNL     1      -0.238  12.229  20.159  0.00  0.00    +0.000 A 
ATOM      8  C   UNL     1      -1.514  12.267  19.613  0.00  0.00    +0.000 A 
ATOM      9  C   UNL     1      -1.967  11.187  18.850  0.00  0.00    +0.000 A 
ATOM     10  C   UNL     1      -1.071  10.192  18.438  0.00  0.00    +0.000 A 
ATOM     11  C   UNL     1       0.235  10.199  18.922  0.00  0.00    +0.000 A 
ATOM     12  N   UNL     1       1.161   9.162  18.615  0.00  0.00    +0.000 N 
ATOM     13  C   UNL     1       2.260   9.783  17.834  0.00  0.00    +0.000 C 
ENDROOT
BRANCH   1  17
ATOM     14  C   UNL     1       2.591   4.265  19.347  0.00  0.00    +0.000 A 
ATOM     15  C   UNL     1       2.192   4.782  20.586  0.00  0.00    +0.000 A 
ATOM     16  C   UNL     1       1.918   6.146  20.760  0.00  0.00    +0.000 A 
ATOM     17  C   UNL     1       1.967   7.035  19.688  0.00  0.00    +0.000 A 
ATOM     18  C   UNL     1       2.253   6.512  18.422  0.00  0.00    +0.000 A 
ATOM     19  C   UNL     1       2.553   5.153  18.261  0.00  0.00    +0.000 A 
BRANCH  14  21
ATOM     20  C   UNL     1       4.228   2.493  19.861  0.00  0.00    +0.000 C 
ATOM     21  N   UNL     1       3.006   2.931  19.178  0.00  0.00    +0.000 N 
ATOM     22  C   UNL     1       2.856   2.422  17.808  0.00  0.00    +0.000 C 
ENDBRANCH  14  21
ENDBRANCH   1  17
TORSDOF 2
ENDMDL
MODEL 8
REMARK VINA RESULT:      -6.3      4.907      7.287
REMARK  Name = 
REMARK  6 active torsions:
REMARK  status: ('A' for Active; 'I' for Inactive)
REMARK    1  A    between atoms: C_1  and  N_2
REMARK    2  A    between atoms: N_2  and  C_3
REMARK    3  A    between atoms: N_2  and  C_4
REMARK    4  A    between atoms: C_7  and  C_8
REMARK    5  A    between atoms: N_9  and  C_10
REMARK    6  A    between atoms: N_19  and  C_20
REMARK                            x       y       z     vdW  Elec       q    Type
REMARK                         _______ _______ _______ _____ _____    ______ ____
ROOT
ATOM      1  C   UNL     1       1.670   8.578  19.959  0.00  0.00    +0.000 C 
ATOM      2  N   UNL     1       0.781   8.812  21.087  0.00  0.00    +0.000 N 
ATOM      3  C   UNL     1      -0.481   8.066  21.108  0.00  0.00    +0.000 C 
ATOM      4  C   UNL     1       0.712  10.173  21.429  0.00  0.00    +0.000 C 
ATOM      5  O   UNL     1       0.642  10.573  22.585  0.00  0.00    +0.000 OA
ATOM      6  C   UNL     1       0.449  11.089  20.265  0.00  0.00    +0.000 A 
ATOM      7  C   UNL     1      -0.295  12.235  20.522  0.00  0.00    +0.000 A 
ATOM      8  C   UNL     1      -1.561  12.314  19.957  0.00  0.00    +0.000 A 
ATOM      9  C   UNL     1      -1.997  11.299  19.101  0.00  0.00    +0.000 A 
ATOM     10  C   UNL     1      -1.090  10.343  18.626  0.00  0.00    +0.000 A 
ATOM     11  C   UNL     1       0.207  10.314  19.133  0.00  0.00    +0.000 A 
ATOM     12  N   UNL     1       1.143   9.307  18.759  0.00  0.00    +0.000 N 
ATOM     13  C   UNL     1       2.253   9.992  18.052  0.00  0.00    +0.000 C 
ENDROOT
BRANCH   1  17
ATOM     14  C   UNL     1       2.294   4.314  19.138  0.00  0.00    +0.000 A 
ATOM     15  C   UNL     1       2.485   5.283  18.145  0.00  0.00    +0.000 A 
ATOM     16  C   UNL     1       2.278   6.647  18.397  0.00  0.00    +0.000 A 
ATOM     17  C   UNL     1       1.936   7.102  19.669  0.00  0.00    +0.000 A 
ATOM     18  C   UNL     1       1.854   6.156  20.698  0.00  0.00    +0.000 A 
ATOM     19  C   UNL     1       2.035   4.793  20.431  0.00  0.00    +0.000 A 
BRANCH  14  21
ATOM     20  C   UNL     1       3.347   2.459  17.899  0.00  0.00    +0.000 C 
ATOM     21  N   UNL     1       2.360   2.933  18.876  0.00  0.00    +0.000 N 
ATOM     22  C   UNL     1       1.049   2.274  18.788  0.00  0.00    +0.000 C 
ENDBRANCH  14  21
ENDBRANCH   1  17
TORSDOF 2
ENDMDL
MODEL 9
REMARK VINA RESULT:      -5.9      3.279      6.444
REMARK  Name = 
REMARK  6 active torsions:
REMARK  status: ('A' for Active; 'I' for Inactive)
REMARK    1  A    between atoms: C_1  and  N_2
REMARK    2  A    between atoms: N_2  and  C_3
REMARK    3  A    between atoms: N_2  and  C_4
REMARK    4  A    between atoms: C_7  and  C_8
REMARK    5  A    between atoms: N_9  and  C_10
REMARK    6  A    between atoms: N_19  and  C_20
REMARK                            x       y       z     vdW  Elec       q    Type
REMARK                         _______ _______ _______ _____ _____    ______ ____
ROOT
ATOM      1  C   UNL     1       2.350   5.761  18.189  0.00  0.00    +0.000 C 
ATOM      2  N   UNL     1       1.515   4.682  18.694  0.00  0.00    +0.000 N 
ATOM      3  C   UNL     1       1.302   4.626  20.143  0.00  0.00    +0.000 C 
ATOM      4  C   UNL     1       1.785   3.462  18.051  0.00  0.00    +0.000 C 
ATOM      5  O   UNL     1       0.917   2.647  17.763  0.00  0.00    +0.000 OA
ATOM      6  C   UNL     1       3.245   3.106  17.992  0.00  0.00    +0.000 A 
ATOM      7  C   UNL     1       3.566   1.755  18.047  0.00  0.00    +0.000 A 
ATOM      8  C   UNL     1       4.230   1.302  19.180  0.00  0.00    +0.000 A 
ATOM      9  C   UNL     1       4.617   2.219  20.162  0.00  0.00    +0.000 A 
ATOM     10  C   UNL     1       4.558   3.594  19.903  0.00  0.00    +0.000 A 
ATOM     11  C   UNL     1       3.964   4.047  18.726  0.00  0.00    +0.000 A 
ATOM     12  N   UNL     1       3.789   5.434  18.453  0.00  0.00    +0.000 N 
ATOM     13  C   UNL     1       4.610   5.743  17.256  0.00  0.00    +0.000 C 
ENDROOT
BRANCH   1  17
ATOM     14  C   UNL     1       1.381   9.752  19.731  0.00  0.00    +0.000 A 
ATOM     15  C   UNL     1       1.436   9.496  18.355  0.00  0.00    +0.000 A 
ATOM     16  C   UNL     1       1.755   8.226  17.854  0.00  0.00    +0.000 A 
ATOM     17  C   UNL     1       1.965   7.145  18.709  0.00  0.00    +0.000 A 
ATOM     18  C   UNL     1       1.801   7.360  20.082  0.00  0.00    +0.000 A 
ATOM     19  C   UNL     1       1.509   8.639  20.575  0.00  0.00    +0.000 A 
BRANCH  14  21
ATOM     20  C   UNL     1       0.232  11.222  21.344  0.00  0.00    +0.000 C 
ATOM     21  N   UNL     1       1.201  11.044  20.257  0.00  0.00    +0.000 N 
ATOM     22  C   UNL     1       1.186  12.110  19.245  0.00  0.00    +0.000 C 
ENDBRANCH  14  21
ENDBRANCH   1  17
TORSDOF 2
ENDMDL
