MODEL 1
REMARK VINA RESULT:      -6.5      0.000      0.000
REMARK  Name = 
REMARK  7 active torsions:
REMARK  status: ('A' for Active; 'I' for Inactive)
REMARK    1  A    between atoms: C_1  and  O_2
REMARK    2  A    between atoms: O_2  and  C_3
REMARK    3  A    between atoms: C_3  and  C_5
REMARK    4  A    between atoms: C_5  and  C_6
REMARK    5  A    between atoms: C_9  and  O_10
REMARK    6  A    between atoms: O_10  and  C_11
REMARK    7  A    between atoms: N_13  and  N_14
REMARK                            x       y       z     vdW  Elec       q    Type
REMARK                         _______ _______ _______ _____ _____    ______ ____
ROOT
ATOM      1  C   UNL     1       6.051   4.341  14.141  0.00  0.00    +0.000 A 
ATOM      2  C   UNL     1       5.643   5.670  14.337  0.00  0.00    +0.000 A 
ATOM      3  C   UNL     1       5.304   6.126  15.616  0.00  0.00    +0.000 A 
ATOM      4  C   UNL     1       5.367   5.245  16.696  0.00  0.00    +0.000 A 
ATOM      5  C   UNL     1       5.758   3.918  16.507  0.00  0.00    +0.000 A 
ATOM      6  C   UNL     1       6.081   3.467  15.234  0.00  0.00    +0.000 A 
ENDROOT
BRANCH   1   7
ATOM      7  C   UNL     1       6.577   3.869  12.810  0.00  0.00    +0.000 C 
BRANCH   7   8
ATOM      8  C   UNL     1       5.561   2.989  12.117  0.00  0.00    +0.000 C 
ATOM      9  O   UNL     1       5.797   1.865  11.691  0.00  0.00    +0.000 OA
BRANCH   8  11
ATOM     10  C   UNL     1       3.604   3.210  10.857  0.00  0.00    +0.000 C 
ATOM     11  O   UNL     1       4.375   3.647  11.976  0.00  0.00    +0.000 OA
ENDBRANCH   8  11
ENDBRANCH   7   8
ENDBRANCH   1   7
BRANCH   4  12
ATOM     12  O   UNL     1       5.196   5.765  17.994  0.00  0.00    +0.000 OA
BRANCH  12  13
ATOM     13  C   UNL     1       3.879   5.970  18.398  0.00  0.00    +0.000 C 
ATOM     14  O   UNL     1       3.229   6.988  18.184  0.00  0.00    +0.000 OA
ATOM     15  N   UNL     1       3.410   4.835  19.043  0.00  0.00    +0.000 N 
ATOM     16  H   UNL     1       4.024   4.032  19.045  0.00  0.00    +0.000 HD
BRANCH  15  17
ATOM     17  N   UNL     1       2.016   4.688  19.241  0.00  0.00    +0.000 NA
ATOM     18  C   UNL     1       1.641   4.836  20.658  0.00  0.00    +0.000 C 
ATOM     19  C   UNL     1       1.949   3.579  21.478  0.00  0.00    +0.000 C 
ATOM     20  O   UNL     1       1.278   2.434  20.934  0.00  0.00    +0.000 OA
ATOM     21  C   UNL     1       1.676   2.205  19.578  0.00  0.00    +0.000 C 
ATOM     22  C   UNL     1       1.454   3.441  18.693  0.00  0.00    +0.000 C 
ENDBRANCH  15  17
ENDBRANCH  12  13
ENDBRANCH   4  12
TORSDOF 6
ENDMDL
MODEL 2
REMARK VINA RESULT:      -6.5      1.567      2.334
REMARK  Name = 
REMARK  7 active torsions:
REMARK  status: ('A' for Active; 'I' for Inactive)
REMARK    1  A    between atoms: C_1  and  O_2
REMARK    2  A    between atoms: O_2  and  C_3
REMARK    3  A    between atoms: C_3  and  C_5
REMARK    4  A    between atoms: C_5  and  C_6
REMARK    5  A    between atoms: C_9  and  O_10
REMARK    6  A    between atoms: O_10  and  C_11
REMARK    7  A    between atoms: N_13  and  N_14
REMARK                            x       y       z     vdW  Elec       q    Type
REMARK                         _______ _______ _______ _____ _____    ______ ____
ROOT
ATOM      1  C   UNL     1       5.902   4.349  14.282  0.00  0.00    +0.000 A 
ATOM      2  C   UNL     1       6.709   3.824  15.302  0.00  0.00    +0.000 A 
ATOM      3  C   UNL     1       6.797   4.473  16.540  0.00  0.00    +0.000 A 
ATOM      4  C   UNL     1       6.080   5.652  16.748  0.00  0.00    +0.000 A 
ATOM      5  C   UNL     1       5.286   6.187  15.732  0.00  0.00    +0.000 A 
ATOM      6  C   UNL     1       5.212   5.547  14.502  0.00  0.00    +0.000 A 
ENDROOT
BRANCH   1   7
ATOM      7  C   UNL     1       5.659   3.588  13.003  0.00  0.00    +0.000 C 
BRANCH   7   8
ATOM      8  C   UNL     1       6.863   3.681  12.091  0.00  0.00    +0.000 C 
ATOM      9  O   UNL     1       7.532   4.695  11.930  0.00  0.00    +0.000 OA
BRANCH   8  11
ATOM     10  C   UNL     1       5.893   1.672  11.393  0.00  0.00    +0.000 C 
ATOM     11  O   UNL     1       7.052   2.504  11.429  0.00  0.00    +0.000 OA
ENDBRANCH   8  11
ENDBRANCH   7   8
ENDBRANCH   1   7
BRANCH   4  12
ATOM     12  O   UNL     1       6.040   6.189  18.050  0.00  0.00    +0.000 OA
BRANCH  12  13
ATOM     13  C   UNL     1       5.774   5.282  19.073  0.00  0.00    +0.000 C 
ATOM     14  O   UNL     1       6.564   4.971  19.959  0.00  0.00    +0.000 OA
ATOM     15  N   UNL     1       4.471   4.819  18.954  0.00  0.00    +0.000 N 
ATOM     16  H   UNL     1       3.903   5.251  18.239  0.00  0.00    +0.000 HD
BRANCH  15  17
ATOM     17  N   UNL     1       3.879   4.156  20.055  0.00  0.00    +0.000 NA
ATOM     18  C   UNL     1       3.925   2.691  19.908  0.00  0.00    +0.000 C 
ATOM     19  C   UNL     1       2.856   2.167  18.943  0.00  0.00    +0.000 C 
ATOM     20  O   UNL     1       1.544   2.552  19.373  0.00  0.00    +0.000 OA
ATOM     21  C   UNL     1       1.430   3.977  19.452  0.00  0.00    +0.000 C 
ATOM     22  C   UNL     1       2.505   4.594  20.359  0.00  0.00    +0.000 C 
ENDBRANCH  15  17
ENDBRANCH  12  13
ENDBRANCH   4  12
TORSDOF 6
ENDMDL
MODEL 3
REMARK VINA RESULT:      -6.5      1.162      1.837
REMARK  Name = 
REMARK  7 active torsions:
REMARK  status: ('A' for Active; 'I' for Inactive)
REMARK    1  A    between atoms: C_1  and  O_2
REMARK    2  A    between atoms: O_2  and  C_3
REMARK    3  A    between atoms: C_3  and  C_5
REMARK    4  A    between atoms: C_5  and  C_6
REMARK    5  A    between atoms: C_9  and  O_10
REMARK    6  A    between atoms: O_10  and  C_11
REMARK    7  A    between atoms: N_13  and  N_14
REMARK                            x       y       z     vdW  Elec       q    Type
REMARK                         _______ _______ _______ _____ _____    ______ ____
ROOT
ATOM      1  C   UNL     1       6.402   4.102  13.826  0.00  0.00    +0.000 A 
ATOM      2  C   UNL     1       5.265   3.616  14.488  0.00  0.00    +0.000 A 
ATOM      3  C   UNL     1       4.942   4.075  15.771  0.00  0.00    +0.000 A 
ATOM      4  C   UNL     1       5.767   5.015  16.390  0.00  0.00    +0.000 A 
ATOM      5  C   UNL     1       6.908   5.493  15.742  0.00  0.00    +0.000 A 
ATOM      6  C   UNL     1       7.231   5.025  14.474  0.00  0.00    +0.000 A 
ENDROOT
BRANCH   1   7
ATOM      7  C   UNL     1       6.682   3.751  12.387  0.00  0.00    +0.000 C 
BRANCH   7   8
ATOM      8  C   UNL     1       5.537   2.957  11.799  0.00  0.00    +0.000 C 
ATOM      9  O   UNL     1       5.557   1.746  11.617  0.00  0.00    +0.000 OA
BRANCH   8  11
ATOM     10  C   UNL     1       3.456   3.127  10.747  0.00  0.00    +0.000 C 
ATOM     11  O   UNL     1       4.514   3.786  11.441  0.00  0.00    +0.000 OA
ENDBRANCH   8  11
ENDBRANCH   7   8
ENDBRANCH   1   7
BRANCH   4  12
ATOM     12  O   UNL     1       5.331   5.595  17.597  0.00  0.00    +0.000 OA
BRANCH  12  13
ATOM     13  C   UNL     1       5.207   4.725  18.678  0.00  0.00    +0.000 C 
ATOM     14  O   UNL     1       6.147   4.244  19.304  0.00  0.00    +0.000 OA
ATOM     15  N   UNL     1       3.863   4.519  18.956  0.00  0.00    +0.000 N 
ATOM     16  H   UNL     1       3.205   5.072  18.425  0.00  0.00    +0.000 HD
BRANCH  15  17
ATOM     17  N   UNL     1       3.503   3.948  20.199  0.00  0.00    +0.000 NA
ATOM     18  C   UNL     1       3.231   2.505  20.086  0.00  0.00    +0.000 C 
ATOM     19  C   UNL     1       1.851   2.216  19.487  0.00  0.00    +0.000 C 
ATOM     20  O   UNL     1       0.814   2.826  20.266  0.00  0.00    +0.000 OA
ATOM     21  C   UNL     1       0.995   4.245  20.336  0.00  0.00    +0.000 C 
ATOM     22  C   UNL     1       2.382   4.626  20.875  0.00  0.00    +0.000 C 
ENDBRANCH  15  17
ENDBRANCH  12  13
ENDBRANCH   4  12
TORSDOF 6
ENDMDL
MODEL 4
REMARK VINA RESULT:      -6.4      3.496      8.174
REMARK  Name = 
REMARK  7 active torsions:
REMARK  status: ('A' for Active; 'I' for Inactive)
REMARK    1  A    between atoms: C_1  and  O_2
REMARK    2  A    between atoms: O_2  and  C_3
REMARK    3  A    between atoms: C_3  and  C_5
REMARK    4  A    between atoms: C_5  and  C_6
REMARK    5  A    between atoms: C_9  and  O_10
REMARK    6  A    between atoms: O_10  and  C_11
REMARK    7  A    between atoms: N_13  and  N_14
REMARK                            x       y       z     vdW  Elec       q    Type
REMARK                         _______ _______ _______ _____ _____    ______ ____
ROOT
ATOM      1  C   UNL     1       1.652   7.944  20.020  0.00  0.00    +0.000 A 
ATOM      2  C   UNL     1       2.387   7.761  18.839  0.00  0.00    +0.000 A 
ATOM      3  C   UNL     1       2.950   6.514  18.541  0.00  0.00    +0.000 A 
ATOM      4  C   UNL     1       2.782   5.456  19.433  0.00  0.00    +0.000 A 
ATOM      5  C   UNL     1       2.064   5.634  20.618  0.00  0.00    +0.000 A 
ATOM      6  C   UNL     1       1.518   6.876  20.916  0.00  0.00    +0.000 A 
ENDROOT
BRANCH   1   7
ATOM      7  C   UNL     1       0.899   9.222  20.287  0.00  0.00    +0.000 C 
BRANCH   7   8
ATOM      8  C   UNL     1       0.772   9.466  21.775  0.00  0.00    +0.000 C 
ATOM      9  O   UNL     1       1.720   9.657  22.527  0.00  0.00    +0.000 OA
BRANCH   8  11
ATOM     10  C   UNL     1      -0.891  10.307  23.186  0.00  0.00    +0.000 C 
ATOM     11  O   UNL     1      -0.532   9.377  22.164  0.00  0.00    +0.000 OA
ENDBRANCH   8  11
ENDBRANCH   7   8
ENDBRANCH   1   7
BRANCH   4  12
ATOM     12  O   UNL     1       3.200   4.171  19.034  0.00  0.00    +0.000 OA
BRANCH  12  13
ATOM     13  C   UNL     1       4.558   3.901  19.182  0.00  0.00    +0.000 C 
ATOM     14  O   UNL     1       5.021   2.866  19.651  0.00  0.00    +0.000 OA
ATOM     15  N   UNL     1       5.299   4.964  18.686  0.00  0.00    +0.000 N 
ATOM     16  H   UNL     1       4.779   5.699  18.227  0.00  0.00    +0.000 HD
BRANCH  15  17
ATOM     17  N   UNL     1       6.678   4.774  18.429  0.00  0.00    +0.000 NA
ATOM     18  C   UNL     1       7.472   5.969  18.760  0.00  0.00    +0.000 C 
ATOM     19  C   UNL     1       7.361   7.059  17.688  0.00  0.00    +0.000 C 
ATOM     20  O   UNL     1       7.776   6.565  16.409  0.00  0.00    +0.000 OA
ATOM     21  C   UNL     1       6.975   5.447  16.009  0.00  0.00    +0.000 C 
ATOM     22  C   UNL     1       6.982   4.325  17.058  0.00  0.00    +0.000 C 
ENDBRANCH  15  17
ENDBRANCH  12  13
ENDBRANCH   4  12
TORSDOF 6
ENDMDL
MODEL 5
REMARK VINA RESULT:      -6.4      0.870      1.129
REMARK  Name = 
REMARK  7 active torsions:
REMARK  status: ('A' for Active; 'I' for Inactive)
REMARK    1  A    between atoms: C_1  and  O_2
REMARK    2  A    between atoms: O_2  and  C_3
REMARK    3  A    between atoms: C_3  and  C_5
REMARK    4  A    between atoms: C_5  and  C_6
REMARK    5  A    between atoms: C_9  and  O_10
REMARK    6  A    between atoms: O_10  and  C_11
REMARK    7  A    between atoms: N_13  and  N_14
REMARK                            x       y       z     vdW  Elec       q    Type
REMARK                         _______ _______ _______ _____ _____    ______ ____
ROOT
ATOM      1  C   UNL     1       6.407   4.137  13.902  0.00  0.00    +0.000 A 
ATOM      2  C   UNL     1       5.339   3.602  14.638  0.00  0.00    +0.000 A 
ATOM      3  C   UNL     1       5.168   3.940  15.986  0.00  0.00    +0.000 A 
ATOM      4  C   UNL     1       6.075   4.808  16.595  0.00  0.00    +0.000 A 
ATOM      5  C   UNL     1       7.149   5.333  15.873  0.00  0.00    +0.000 A 
ATOM      6  C   UNL     1       7.321   4.985  14.539  0.00  0.00    +0.000 A 
ENDROOT
BRANCH   1   7
ATOM      7  C   UNL     1       6.521   3.924  12.414  0.00  0.00    +0.000 C 
BRANCH   7   8
ATOM      8  C   UNL     1       5.482   2.933  11.937  0.00  0.00    +0.000 C 
ATOM      9  O   UNL     1       5.725   1.777  11.615  0.00  0.00    +0.000 OA
BRANCH   8  11
ATOM     10  C   UNL     1       3.722   3.560  10.530  0.00  0.00    +0.000 C 
ATOM     11  O   UNL     1       4.257   3.529  11.853  0.00  0.00    +0.000 OA
ENDBRANCH   8  11
ENDBRANCH   7   8
ENDBRANCH   1   7
BRANCH   4  12
ATOM     12  O   UNL     1       5.787   5.273  17.893  0.00  0.00    +0.000 OA
BRANCH  12  13
ATOM     13  C   UNL     1       4.525   5.839  18.069  0.00  0.00    +0.000 C 
ATOM     14  O   UNL     1       4.138   6.871  17.531  0.00  0.00    +0.000 OA
ATOM     15  N   UNL     1       3.771   5.036  18.912  0.00  0.00    +0.000 N 
ATOM     16  H   UNL     1       4.187   4.157  19.187  0.00  0.00    +0.000 HD
BRANCH  15  17
ATOM     17  N   UNL     1       2.370   5.230  18.967  0.00  0.00    +0.000 NA
ATOM     18  C   UNL     1       1.864   5.210  20.350  0.00  0.00    +0.000 C 
ATOM     19  C   UNL     1       1.748   3.788  20.909  0.00  0.00    +0.000 C 
ATOM     20  O   UNL     1       0.893   2.982  20.088  0.00  0.00    +0.000 OA
ATOM     21  C   UNL     1       1.394   2.908  18.748  0.00  0.00    +0.000 C 
ATOM     22  C   UNL     1       1.596   4.299  18.127  0.00  0.00    +0.000 C 
ENDBRANCH  15  17
ENDBRANCH  12  13
ENDBRANCH   4  12
TORSDOF 6
ENDMDL
MODEL 6
REMARK VINA RESULT:      -6.4      3.258      8.201
REMARK  Name = 
REMARK  7 active torsions:
REMARK  status: ('A' for Active; 'I' for Inactive)
REMARK    1  A    between atoms: C_1  and  O_2
REMARK    2  A    between atoms: O_2  and  C_3
REMARK    3  A    between atoms: C_3  and  C_5
REMARK    4  A    between atoms: C_5  and  C_6
REMARK    5  A    between atoms: C_9  and  O_10
REMARK    6  A    between atoms: O_10  and  C_11
REMARK    7  A    between atoms: N_13  and  N_14
REMARK                            x       y       z     vdW  Elec       q    Type
REMARK                         _______ _______ _______ _____ _____    ______ ____
ROOT
ATOM      1  C   UNL     1       1.659   7.400  20.479  0.00  0.00    +0.000 A 
ATOM      2  C   UNL     1       1.379   6.100  20.929  0.00  0.00    +0.000 A 
ATOM      3  C   UNL     1       1.676   4.993  20.125  0.00  0.00    +0.000 A 
ATOM      4  C   UNL     1       2.246   5.193  18.868  0.00  0.00    +0.000 A 
ATOM      5  C   UNL     1       2.515   6.484  18.407  0.00  0.00    +0.000 A 
ATOM      6  C   UNL     1       2.207   7.580  19.204  0.00  0.00    +0.000 A 
ENDROOT
BRANCH   1   7
ATOM      7  C   UNL     1       1.504   8.595  21.385  0.00  0.00    +0.000 C 
BRANCH   7   8
ATOM      8  C   UNL     1       0.081   9.106  21.354  0.00  0.00    +0.000 C 
ATOM      9  O   UNL     1      -0.457   9.594  20.367  0.00  0.00    +0.000 OA
BRANCH   8  11
ATOM     10  C   UNL     1      -0.819  10.269  23.172  0.00  0.00    +0.000 C 
ATOM     11  O   UNL     1      -0.489   9.008  22.590  0.00  0.00    +0.000 OA
ENDBRANCH   8  11
ENDBRANCH   7   8
ENDBRANCH   1   7
BRANCH   4  12
ATOM     12  O   UNL     1       2.699   4.067  18.153  0.00  0.00    +0.000 OA
BRANCH  12  13
ATOM     13  C   UNL     1       4.058   3.782  18.267  0.00  0.00    +0.000 C 
ATOM     14  O   UNL     1       4.556   3.068  19.132  0.00  0.00    +0.000 OA
ATOM     15  N   UNL     1       4.749   4.398  17.233  0.00  0.00    +0.000 N 
ATOM     16  H   UNL     1       4.189   4.861  16.531  0.00  0.00    +0.000 HD
BRANCH  15  17
ATOM     17  N   UNL     1       6.074   3.983  16.956  0.00  0.00    +0.000 NA
ATOM     18  C   UNL     1       7.072   4.900  17.532  0.00  0.00    +0.000 C 
ATOM     19  C   UNL     1       7.236   6.180  16.705  0.00  0.00    +0.000 C 
ATOM     20  O   UNL     1       7.609   5.874  15.355  0.00  0.00    +0.000 OA
ATOM     21  C   UNL     1       6.622   5.047  14.728  0.00  0.00    +0.000 C 
ATOM     22  C   UNL     1       6.352   3.762  15.525  0.00  0.00    +0.000 C 
ENDBRANCH  15  17
ENDBRANCH  12  13
ENDBRANCH   4  12
TORSDOF 6
ENDMDL
MODEL 7
REMARK VINA RESULT:      -6.3      2.326      2.991
REMARK  Name = 
REMARK  7 active torsions:
REMARK  status: ('A' for Active; 'I' for Inactive)
REMARK    1  A    between atoms: C_1  and  O_2
REMARK    2  A    between atoms: O_2  and  C_3
REMARK    3  A    between atoms: C_3  and  C_5
REMARK    4  A    between atoms: C_5  and  C_6
REMARK    5  A    between atoms: C_9  and  O_10
REMARK    6  A    between atoms: O_10  and  C_11
REMARK    7  A    between atoms: N_13  and  N_14
REMARK                            x       y       z     vdW  Elec       q    Type
REMARK                         _______ _______ _______ _____ _____    ______ ____
ROOT
ATOM      1  C   UNL     1       5.757   3.536  12.338  0.00  0.00    +0.000 A 
ATOM      2  C   UNL     1       7.006   4.157  12.178  0.00  0.00    +0.000 A 
ATOM      3  C   UNL     1       7.601   4.837  13.248  0.00  0.00    +0.000 A 
ATOM      4  C   UNL     1       6.937   4.899  14.474  0.00  0.00    +0.000 A 
ATOM      5  C   UNL     1       5.688   4.295  14.636  0.00  0.00    +0.000 A 
ATOM      6  C   UNL     1       5.097   3.633  13.568  0.00  0.00    +0.000 A 
ENDROOT
BRANCH   1   7
ATOM      7  C   UNL     1       5.172   2.661  11.259  0.00  0.00    +0.000 C 
BRANCH   7   8
ATOM      8  C   UNL     1       3.748   3.072  10.954  0.00  0.00    +0.000 C 
ATOM      9  O   UNL     1       2.771   2.351  11.117  0.00  0.00    +0.000 OA
BRANCH   8  11
ATOM     10  C   UNL     1       2.786   4.463   9.340  0.00  0.00    +0.000 C 
ATOM     11  O   UNL     1       3.717   4.323  10.413  0.00  0.00    +0.000 OA
ENDBRANCH   8  11
ENDBRANCH   7   8
ENDBRANCH   1   7
BRANCH   4  12
ATOM     12  O   UNL     1       7.628   5.430  15.581  0.00  0.00    +0.000 OA
BRANCH  12  13
ATOM     13  C   UNL     1       6.845   6.093  16.523  0.00  0.00    +0.000 C 
ATOM     14  O   UNL     1       6.648   7.304  16.545  0.00  0.00    +0.000 OA
ATOM     15  N   UNL     1       6.298   5.171  17.404  0.00  0.00    +0.000 N 
ATOM     16  H   UNL     1       6.459   4.196  17.192  0.00  0.00    +0.000 HD
BRANCH  15  17
ATOM     17  N   UNL     1       5.219   5.571  18.227  0.00  0.00    +0.000 NA
ATOM     18  C   UNL     1       5.175   4.812  19.489  0.00  0.00    +0.000 C 
ATOM     19  C   UNL     1       4.591   3.407  19.305  0.00  0.00    +0.000 C 
ATOM     20  O   UNL     1       3.271   3.468  18.752  0.00  0.00    +0.000 OA
ATOM     21  C   UNL     1       3.278   4.130  17.482  0.00  0.00    +0.000 C 
ATOM     22  C   UNL     1       3.903   5.532  17.564  0.00  0.00    +0.000 C 
ENDBRANCH  15  17
ENDBRANCH  12  13
ENDBRANCH   4  12
TORSDOF 6
ENDMDL
MODEL 8
REMARK VINA RESULT:      -6.3      1.134      1.932
REMARK  Name = 
REMARK  7 active torsions:
REMARK  status: ('A' for Active; 'I' for Inactive)
REMARK    1  A    between atoms: C_1  and  O_2
REMARK    2  A    between atoms: O_2  and  C_3
REMARK    3  A    between atoms: C_3  and  C_5
REMARK    4  A    between atoms: C_5  and  C_6
REMARK    5  A    between atoms: C_9  and  O_10
REMARK    6  A    between atoms: O_10  and  C_11
REMARK    7  A    between atoms: N_13  and  N_14
REMARK                            x       y       z     vdW  Elec       q    Type
REMARK                         _______ _______ _______ _____ _____    ______ ____
ROOT
ATOM      1  C   UNL     1       6.127   4.337  14.103  0.00  0.00    +0.000 A 
ATOM      2  C   UNL     1       5.428   5.543  14.265  0.00  0.00    +0.000 A 
ATOM      3  C   UNL     1       5.204   6.065  15.545  0.00  0.00    +0.000 A 
ATOM      4  C   UNL     1       5.675   5.371  16.660  0.00  0.00    +0.000 A 
ATOM      5  C   UNL     1       6.359   4.163  16.507  0.00  0.00    +0.000 A 
ATOM      6  C   UNL     1       6.568   3.643  15.236  0.00  0.00    +0.000 A 
ENDROOT
BRANCH   1   7
ATOM      7  C   UNL     1       6.525   3.838  12.738  0.00  0.00    +0.000 C 
BRANCH   7   8
ATOM      8  C   UNL     1       5.367   3.127  12.071  0.00  0.00    +0.000 C 
ATOM      9  O   UNL     1       4.231   3.579  11.993  0.00  0.00    +0.000 OA
BRANCH   8  11
ATOM     10  C   UNL     1       7.097   1.845  11.162  0.00  0.00    +0.000 C 
ATOM     11  O   UNL     1       5.751   1.893  11.635  0.00  0.00    +0.000 OA
ENDBRANCH   8  11
ENDBRANCH   7   8
ENDBRANCH   1   7
BRANCH   4  12
ATOM     12  O   UNL     1       5.598   5.998  17.919  0.00  0.00    +0.000 OA
BRANCH  12  13
ATOM     13  C   UNL     1       5.420   5.149  19.010  0.00  0.00    +0.000 C 
ATOM     14  O   UNL     1       6.258   4.943  19.882  0.00  0.00    +0.000 OA
ATOM     15  N   UNL     1       4.143   4.608  18.973  0.00  0.00    +0.000 N 
ATOM     16  H   UNL     1       3.526   4.959  18.254  0.00  0.00    +0.000 HD
BRANCH  15  17
ATOM     17  N   UNL     1       3.630   3.990  20.138  0.00  0.00    +0.000 NA
ATOM     18  C   UNL     1       3.423   2.544  19.952  0.00  0.00    +0.000 C 
ATOM     19  C   UNL     1       2.151   2.234  19.155  0.00  0.00    +0.000 C 
ATOM     20  O   UNL     1       0.997   2.790  19.796  0.00  0.00    +0.000 OA
ATOM     21  C   UNL     1       1.120   4.211  19.926  0.00  0.00    +0.000 C 
ATOM     22  C   UNL     1       2.404   4.616  20.666  0.00  0.00    +0.000 C 
ENDBRANCH  15  17
ENDBRANCH  12  13
ENDBRANCH   4  12
TORSDOF 6
ENDMDL
MODEL 9
REMARK VINA RESULT:      -6.2      3.514      7.361
REMARK  Name = 
REMARK  7 active torsions:
REMARK  status: ('A' for Active; 'I' for Inactive)
REMARK    1  A    between atoms: C_1  and  O_2
REMARK    2  A    between atoms: O_2  and  C_3
REMARK    3  A    between atoms: C_3  and  C_5
REMARK    4  A    between atoms: C_5  and  C_6
REMARK    5  A    between atoms: C_9  and  O_10
REMARK    6  A    between atoms: O_10  and  C_11
REMARK    7  A    between atoms: N_13  and  N_14
REMARK                            x       y       z     vdW  Elec       q    Type
REMARK                         _______ _______ _______ _____ _____    ______ ____
ROOT
ATOM      1  C   UNL     1       1.719   8.079  19.697  0.00  0.00    +0.000 A 
ATOM      2  C   UNL     1       2.300   7.737  18.467  0.00  0.00    +0.000 A 
ATOM      3  C   UNL     1       2.826   6.455  18.264  0.00  0.00    +0.000 A 
ATOM      4  C   UNL     1       2.775   5.522  19.299  0.00  0.00    +0.000 A 
ATOM      5  C   UNL     1       2.211   5.860  20.532  0.00  0.00    +0.000 A 
ATOM      6  C   UNL     1       1.702   7.137  20.732  0.00  0.00    +0.000 A 
ENDROOT
BRANCH   1   7
ATOM      7  C   UNL     1       1.001   9.390  19.889  0.00  0.00    +0.000 C 
BRANCH   7   8
ATOM      8  C   UNL     1       0.995  10.188  18.603  0.00  0.00    +0.000 C 
ATOM      9  O   UNL     1       1.897  10.938  18.250  0.00  0.00    +0.000 OA
BRANCH   8  11
ATOM     10  C   UNL     1      -1.335  10.354  18.693  0.00  0.00    +0.000 C 
ATOM     11  O   UNL     1      -0.179  10.005  17.933  0.00  0.00    +0.000 OA
ENDBRANCH   8  11
ENDBRANCH   7   8
ENDBRANCH   1   7
BRANCH   4  12
ATOM     12  O   UNL     1       3.144   4.192  19.020  0.00  0.00    +0.000 OA
BRANCH  12  13
ATOM     13  C   UNL     1       4.497   3.894  19.163  0.00  0.00    +0.000 C 
ATOM     14  O   UNL     1       4.941   2.853  19.636  0.00  0.00    +0.000 OA
ATOM     15  N   UNL     1       5.257   4.938  18.656  0.00  0.00    +0.000 N 
ATOM     16  H   UNL     1       4.751   5.681  18.195  0.00  0.00    +0.000 HD
BRANCH  15  17
ATOM     17  N   UNL     1       6.631   4.717  18.392  0.00  0.00    +0.000 NA
ATOM     18  C   UNL     1       7.461   5.868  18.787  0.00  0.00    +0.000 C 
ATOM     19  C   UNL     1       7.390   7.015  17.773  0.00  0.00    +0.000 C 
ATOM     20  O   UNL     1       7.794   6.573  16.471  0.00  0.00    +0.000 OA
ATOM     21  C   UNL     1       6.959   5.504  16.012  0.00  0.00    +0.000 C 
ATOM     22  C   UNL     1       6.926   4.330  17.001  0.00  0.00    +0.000 C 
ENDBRANCH  15  17
ENDBRANCH  12  13
ENDBRANCH   4  12
TORSDOF 6
ENDMDL
