MODEL 1
REMARK VINA RESULT:      -7.7      0.000      0.000
REMARK  Name = 
REMARK  8 active torsions:
REMARK  status: ('A' for Active; 'I' for Inactive)
REMARK    1  A    between atoms: C_1  and  O_2
REMARK    2  A    between atoms: O_2  and  C_3
REMARK    3  A    between atoms: C_8  and  C_9
REMARK    4  A    between atoms: C_9  and  N_10
REMARK    5  A    between atoms: C_16  and  C_17
REMARK    6  A    between atoms: C_17  and  C_18
REMARK    7  A    between atoms: N_20  and  C_21
REMARK    8  A    between atoms: N_20  and  C_22
REMARK                            x       y       z     vdW  Elec       q    Type
REMARK                         _______ _______ _______ _____ _____    ______ ____
ROOT
ATOM      1  N   UNL     1       2.848   4.854  18.008  0.00  0.00    +0.000 NA
ATOM      2  C   UNL     1       2.420   3.528  17.521  0.00  0.00    +0.000 C 
ATOM      3  C   UNL     1       2.115   2.456  18.572  0.00  0.00    +0.000 C 
ATOM      4  N   UNL     1       1.479   2.959  19.772  0.00  0.00    +0.000 N 
ATOM      5  C   UNL     1       1.795   4.213  20.243  0.00  0.00    +0.000 C 
ATOM      6  O   UNL     1       1.785   4.397  21.456  0.00  0.00    +0.000 OA
ATOM      7  C   UNL     1       2.014   5.327  19.186  0.00  0.00    +0.000 C 
ATOM      8  H   UNL     1       1.304   2.291  20.512  0.00  0.00    +0.000 HD
ENDROOT
BRANCH   1   9
ATOM      9  C   UNL     1       4.290   4.970  18.283  0.00  0.00    +0.000 C 
BRANCH   9  15
ATOM     10  C   UNL     1       6.573   4.530  17.358  0.00  0.00    +0.000 A 
ATOM     11  C   UNL     1       7.489   4.454  16.310  0.00  0.00    +0.000 A 
ATOM     12  C   UNL     1       7.105   4.839  15.019  0.00  0.00    +0.000 A 
ATOM     13  C   UNL     1       5.815   5.303  14.780  0.00  0.00    +0.000 A 
ATOM     14  C   UNL     1       4.891   5.324  15.827  0.00  0.00    +0.000 A 
ATOM     15  C   UNL     1       5.239   4.891  17.111  0.00  0.00    +0.000 A 
BRANCH  10  17
ATOM     16  C   UNL     1       7.755   5.806  18.984  0.00  0.00    +0.000 C 
ATOM     17  O   UNL     1       7.047   4.623  18.643  0.00  0.00    +0.000 OA
ENDBRANCH  10  17
ENDBRANCH   9  15
ENDBRANCH   1   9
BRANCH   7  18
ATOM     18  C   UNL     1       2.631   6.593  19.836  0.00  0.00    +0.000 C 
BRANCH  18  19
ATOM     19  C   UNL     1       1.704   7.750  20.163  0.00  0.00    +0.000 C 
ATOM     20  O   UNL     1       1.045   7.773  21.201  0.00  0.00    +0.000 OA
ATOM     21  N   UNL     1       1.621   8.778  19.193  0.00  0.00    +0.000 N 
ATOM     22  C   UNL     1       2.179   8.630  17.846  0.00  0.00    +0.000 C 
BRANCH  21  23
ATOM     23  C   UNL     1       0.545   9.785  19.381  0.00  0.00    +0.000 C 
ATOM     24  C   UNL     1      -0.243   9.977  18.078  0.00  0.00    +0.000 C 
ATOM     25  C   UNL     1      -1.296  11.062  18.224  0.00  0.00    +0.000 C 
ATOM     26  O   UNL     1      -0.705  12.281  18.667  0.00  0.00    +0.000 OA
ATOM     27  C   UNL     1      -0.120  12.149  19.961  0.00  0.00    +0.000 C 
ATOM     28  C   UNL     1       1.024  11.144  19.923  0.00  0.00    +0.000 C 
ENDBRANCH  21  23
ENDBRANCH  18  19
ENDBRANCH   7  18
TORSDOF 6
ENDMDL
MODEL 2
REMARK VINA RESULT:      -7.6      2.279      4.560
REMARK  Name = 
REMARK  8 active torsions:
REMARK  status: ('A' for Active; 'I' for Inactive)
REMARK    1  A    between atoms: C_1  and  O_2
REMARK    2  A    between atoms: O_2  and  C_3
REMARK    3  A    between atoms: C_8  and  C_9
REMARK    4  A    between atoms: C_9  and  N_10
REMARK    5  A    between atoms: C_16  and  C_17
REMARK    6  A    between atoms: C_17  and  C_18
REMARK    7  A    between atoms: N_20  and  C_21
REMARK    8  A    between atoms: N_20  and  C_22
REMARK                            x       y       z     vdW  Elec       q    Type
REMARK                         _______ _______ _______ _____ _____    ______ ____
ROOT
ATOM      1  N   UNL     1       4.973   5.435  18.695  0.00  0.00    +0.000 NA
ATOM      2  C   UNL     1       6.426   5.177  18.736  0.00  0.00    +0.000 C 
ATOM      3  C   UNL     1       7.200   5.294  17.419  0.00  0.00    +0.000 C 
ATOM      4  N   UNL     1       6.739   6.353  16.546  0.00  0.00    +0.000 N 
ATOM      5  C   UNL     1       5.402   6.677  16.507  0.00  0.00    +0.000 C 
ATOM      6  O   UNL     1       4.929   7.061  15.442  0.00  0.00    +0.000 OA
ATOM      7  C   UNL     1       4.632   6.653  17.853  0.00  0.00    +0.000 C 
ATOM      8  H   UNL     1       7.193   6.433  15.644  0.00  0.00    +0.000 HD
ENDROOT
BRANCH   1   9
ATOM      9  C   UNL     1       4.154   4.271  18.320  0.00  0.00    +0.000 C 
BRANCH   9  15
ATOM     10  C   UNL     1       3.631   3.026  20.427  0.00  0.00    +0.000 A 
ATOM     11  C   UNL     1       2.745   2.523  21.379  0.00  0.00    +0.000 A 
ATOM     12  C   UNL     1       1.365   2.658  21.186  0.00  0.00    +0.000 A 
ATOM     13  C   UNL     1       0.874   3.286  20.045  0.00  0.00    +0.000 A 
ATOM     14  C   UNL     1       1.772   3.833  19.125  0.00  0.00    +0.000 A 
ATOM     15  C   UNL     1       3.154   3.758  19.328  0.00  0.00    +0.000 A 
BRANCH  10  17
ATOM     16  C   UNL     1       5.079   1.194  20.892  0.00  0.00    +0.000 C 
ATOM     17  O   UNL     1       4.896   2.497  20.359  0.00  0.00    +0.000 OA
ENDBRANCH  10  17
ENDBRANCH   9  15
ENDBRANCH   1   9
BRANCH   7  18
ATOM     18  C   UNL     1       3.103   6.761  17.619  0.00  0.00    +0.000 C 
BRANCH  18  19
ATOM     19  C   UNL     1       2.434   8.098  17.881  0.00  0.00    +0.000 C 
ATOM     20  O   UNL     1       2.526   9.031  17.085  0.00  0.00    +0.000 OA
ATOM     21  N   UNL     1       1.730   8.216  19.103  0.00  0.00    +0.000 N 
ATOM     22  C   UNL     1       1.846   7.219  20.172  0.00  0.00    +0.000 C 
BRANCH  21  23
ATOM     23  C   UNL     1       1.282   9.580  19.485  0.00  0.00    +0.000 C 
ATOM     24  C   UNL     1       0.947   9.634  20.983  0.00  0.00    +0.000 C 
ATOM     25  C   UNL     1       0.410  10.998  21.379  0.00  0.00    +0.000 C 
ATOM     26  O   UNL     1      -0.714  11.350  20.575  0.00  0.00    +0.000 OA
ATOM     27  C   UNL     1      -0.364  11.470  19.197  0.00  0.00    +0.000 C 
ATOM     28  C   UNL     1       0.109  10.128  18.653  0.00  0.00    +0.000 C 
ENDBRANCH  21  23
ENDBRANCH  18  19
ENDBRANCH   7  18
TORSDOF 6
ENDMDL
MODEL 3
REMARK VINA RESULT:      -7.6      0.887      1.457
REMARK  Name = 
REMARK  8 active torsions:
REMARK  status: ('A' for Active; 'I' for Inactive)
REMARK    1  A    between atoms: C_1  and  O_2
REMARK    2  A    between atoms: O_2  and  C_3
REMARK    3  A    between atoms: C_8  and  C_9
REMARK    4  A    between atoms: C_9  and  N_10
REMARK    5  A    between atoms: C_16  and  C_17
REMARK    6  A    between atoms: C_17  and  C_18
REMARK    7  A    between atoms: N_20  and  C_21
REMARK    8  A    between atoms: N_20  and  C_22
REMARK                            x       y       z     vdW  Elec       q    Type
REMARK                         _______ _______ _______ _____ _____    ______ ____
ROOT
ATOM      1  N   UNL     1       2.829   4.895  18.068  0.00  0.00    +0.000 NA
ATOM      2  C   UNL     1       2.548   3.534  17.571  0.00  0.00    +0.000 C 
ATOM      3  C   UNL     1       2.371   2.425  18.614  0.00  0.00    +0.000 C 
ATOM      4  N   UNL     1       1.691   2.844  19.822  0.00  0.00    +0.000 N 
ATOM      5  C   UNL     1       1.869   4.121  20.303  0.00  0.00    +0.000 C 
ATOM      6  O   UNL     1       1.846   4.292  21.517  0.00  0.00    +0.000 OA
ATOM      7  C   UNL     1       1.955   5.262  19.255  0.00  0.00    +0.000 C 
ATOM      8  H   UNL     1       1.597   2.154  20.557  0.00  0.00    +0.000 HD
ENDROOT
BRANCH   1   9
ATOM      9  C   UNL     1       4.251   5.169  18.336  0.00  0.00    +0.000 C 
BRANCH   9  15
ATOM     10  C   UNL     1       6.532   4.584  17.487  0.00  0.00    +0.000 A 
ATOM     11  C   UNL     1       7.470   4.434  16.468  0.00  0.00    +0.000 A 
ATOM     12  C   UNL     1       7.143   4.807  15.158  0.00  0.00    +0.000 A 
ATOM     13  C   UNL     1       5.887   5.334  14.872  0.00  0.00    +0.000 A 
ATOM     14  C   UNL     1       4.937   5.430  15.891  0.00  0.00    +0.000 A 
ATOM     15  C   UNL     1       5.227   5.010  17.194  0.00  0.00    +0.000 A 
BRANCH  10  17
ATOM     16  C   UNL     1       7.841   5.767  19.086  0.00  0.00    +0.000 C 
ATOM     17  O   UNL     1       6.974   4.683  18.783  0.00  0.00    +0.000 OA
ENDBRANCH  10  17
ENDBRANCH   9  15
ENDBRANCH   1   9
BRANCH   7  18
ATOM     18  C   UNL     1       2.432   6.583  19.913  0.00  0.00    +0.000 C 
BRANCH  18  19
ATOM     19  C   UNL     1       1.949   7.892  19.313  0.00  0.00    +0.000 C 
ATOM     20  O   UNL     1       2.259   8.231  18.173  0.00  0.00    +0.000 OA
ATOM     21  N   UNL     1       1.152   8.707  20.153  0.00  0.00    +0.000 N 
ATOM     22  C   UNL     1       1.010   8.449  21.589  0.00  0.00    +0.000 C 
BRANCH  21  23
ATOM     23  C   UNL     1       0.879  10.087  19.676  0.00  0.00    +0.000 C 
ATOM     24  C   UNL     1       0.961  11.083  20.841  0.00  0.00    +0.000 C 
ATOM     25  C   UNL     1       0.605  12.490  20.391  0.00  0.00    +0.000 C 
ATOM     26  O   UNL     1      -0.678  12.510  19.770  0.00  0.00    +0.000 OA
ATOM     27  C   UNL     1      -0.707  11.718  18.585  0.00  0.00    +0.000 C 
ATOM     28  C   UNL     1      -0.452  10.255  18.921  0.00  0.00    +0.000 C 
ENDBRANCH  21  23
ENDBRANCH  18  19
ENDBRANCH   7  18
TORSDOF 6
ENDMDL
MODEL 4
REMARK VINA RESULT:      -7.4      1.410      2.429
REMARK  Name = 
REMARK  8 active torsions:
REMARK  status: ('A' for Active; 'I' for Inactive)
REMARK    1  A    between atoms: C_1  and  O_2
REMARK    2  A    between atoms: O_2  and  C_3
REMARK    3  A    between atoms: C_8  and  C_9
REMARK    4  A    between atoms: C_9  and  N_10
REMARK    5  A    between atoms: C_16  and  C_17
REMARK    6  A    between atoms: C_17  and  C_18
REMARK    7  A    between atoms: N_20  and  C_21
REMARK    8  A    between atoms: N_20  and  C_22
REMARK                            x       y       z     vdW  Elec       q    Type
REMARK                         _______ _______ _______ _____ _____    ______ ____
ROOT
ATOM      1  N   UNL     1       3.341   4.390  17.939  0.00  0.00    +0.000 NA
ATOM      2  C   UNL     1       2.903   3.101  17.368  0.00  0.00    +0.000 C 
ATOM      3  C   UNL     1       2.015   2.209  18.242  0.00  0.00    +0.000 C 
ATOM      4  N   UNL     1       1.063   2.931  19.060  0.00  0.00    +0.000 N 
ATOM      5  C   UNL     1       1.394   4.164  19.574  0.00  0.00    +0.000 C 
ATOM      6  O   UNL     1       0.940   4.477  20.670  0.00  0.00    +0.000 OA
ATOM      7  C   UNL     1       2.213   5.110  18.658  0.00  0.00    +0.000 C 
ATOM      8  H   UNL     1       0.489   2.381  19.688  0.00  0.00    +0.000 HD
ENDROOT
BRANCH   1   9
ATOM      9  C   UNL     1       4.552   4.310  18.773  0.00  0.00    +0.000 C 
BRANCH   9  15
ATOM     10  C   UNL     1       5.640   6.008  17.290  0.00  0.00    +0.000 A 
ATOM     11  C   UNL     1       6.648   6.922  16.990  0.00  0.00    +0.000 A 
ATOM     12  C   UNL     1       7.744   7.060  17.852  0.00  0.00    +0.000 A 
ATOM     13  C   UNL     1       7.833   6.282  19.003  0.00  0.00    +0.000 A 
ATOM     14  C   UNL     1       6.791   5.408  19.320  0.00  0.00    +0.000 A 
ATOM     15  C   UNL     1       5.662   5.298  18.501  0.00  0.00    +0.000 A 
BRANCH  10  17
ATOM     16  C   UNL     1       5.525   4.972  15.150  0.00  0.00    +0.000 C 
ATOM     17  O   UNL     1       4.855   5.532  16.270  0.00  0.00    +0.000 OA
ENDBRANCH  10  17
ENDBRANCH   9  15
ENDBRANCH   1   9
BRANCH   7  18
ATOM     18  C   UNL     1       2.747   6.328  19.456  0.00  0.00    +0.000 C 
BRANCH  18  19
ATOM     19  C   UNL     1       2.282   7.712  19.040  0.00  0.00    +0.000 C 
ATOM     20  O   UNL     1       2.684   8.244  18.007  0.00  0.00    +0.000 OA
ATOM     21  N   UNL     1       1.387   8.362  19.924  0.00  0.00    +0.000 N 
ATOM     22  C   UNL     1       1.122   7.863  21.277  0.00  0.00    +0.000 C 
BRANCH  21  23
ATOM     23  C   UNL     1       1.116   9.799  19.660  0.00  0.00    +0.000 C 
ATOM     24  C   UNL     1       0.962  10.567  20.981  0.00  0.00    +0.000 C 
ATOM     25  C   UNL     1       0.604  12.022  20.734  0.00  0.00    +0.000 C 
ATOM     26  O   UNL     1      -0.566  12.123  19.927  0.00  0.00    +0.000 OA
ATOM     27  C   UNL     1      -0.367  11.561  18.631  0.00  0.00    +0.000 C 
ATOM     28  C   UNL     1      -0.088  10.068  18.740  0.00  0.00    +0.000 C 
ENDBRANCH  21  23
ENDBRANCH  18  19
ENDBRANCH   7  18
TORSDOF 6
ENDMDL
MODEL 5
REMARK VINA RESULT:      -7.3      2.239      4.485
REMARK  Name = 
REMARK  8 active torsions:
REMARK  status: ('A' for Active; 'I' for Inactive)
REMARK    1  A    between atoms: C_1  and  O_2
REMARK    2  A    between atoms: O_2  and  C_3
REMARK    3  A    between atoms: C_8  and  C_9
REMARK    4  A    between atoms: C_9  and  N_10
REMARK    5  A    between atoms: C_16  and  C_17
REMARK    6  A    between atoms: C_17  and  C_18
REMARK    7  A    between atoms: N_20  and  C_21
REMARK    8  A    between atoms: N_20  and  C_22
REMARK                            x       y       z     vdW  Elec       q    Type
REMARK                         _______ _______ _______ _____ _____    ______ ____
ROOT
ATOM      1  N   UNL     1       5.011   5.190  18.530  0.00  0.00    +0.000 NA
ATOM      2  C   UNL     1       6.440   4.843  18.406  0.00  0.00    +0.000 C 
ATOM      3  C   UNL     1       7.105   5.071  17.044  0.00  0.00    +0.000 C 
ATOM      4  N   UNL     1       6.646   6.253  16.346  0.00  0.00    +0.000 N 
ATOM      5  C   UNL     1       5.336   6.659  16.468  0.00  0.00    +0.000 C 
ATOM      6  O   UNL     1       4.803   7.196  15.503  0.00  0.00    +0.000 OA
ATOM      7  C   UNL     1       4.685   6.518  17.869  0.00  0.00    +0.000 C 
ATOM      8  H   UNL     1       7.026   6.414  15.421  0.00  0.00    +0.000 HD
ENDROOT
BRANCH   1   9
ATOM      9  C   UNL     1       4.084   4.129  18.102  0.00  0.00    +0.000 C 
BRANCH   9  15
ATOM     10  C   UNL     1       3.492   3.063  20.287  0.00  0.00    +0.000 A 
ATOM     11  C   UNL     1       2.575   2.599  21.229  0.00  0.00    +0.000 A 
ATOM     12  C   UNL     1       1.205   2.629  20.940  0.00  0.00    +0.000 A 
ATOM     13  C   UNL     1       0.756   3.112  19.714  0.00  0.00    +0.000 A 
ATOM     14  C   UNL     1       1.681   3.623  18.801  0.00  0.00    +0.000 A 
ATOM     15  C   UNL     1       3.049   3.654  19.094  0.00  0.00    +0.000 A 
BRANCH  10  17
ATOM     16  C   UNL     1       4.981   1.204  20.291  0.00  0.00    +0.000 C 
ATOM     17  O   UNL     1       4.787   2.610  20.348  0.00  0.00    +0.000 OA
ENDBRANCH  10  17
ENDBRANCH   9  15
ENDBRANCH   1   9
BRANCH   7  18
ATOM     18  C   UNL     1       3.152   6.743  17.792  0.00  0.00    +0.000 C 
BRANCH  18  19
ATOM     19  C   UNL     1       2.444   7.255  19.034  0.00  0.00    +0.000 C 
ATOM     20  O   UNL     1       2.321   6.557  20.038  0.00  0.00    +0.000 OA
ATOM     21  N   UNL     1       1.911   8.564  18.955  0.00  0.00    +0.000 N 
ATOM     22  C   UNL     1       1.808   9.291  17.687  0.00  0.00    +0.000 C 
BRANCH  21  23
ATOM     23  C   UNL     1       1.011   8.984  20.059  0.00  0.00    +0.000 C 
ATOM     24  C   UNL     1       0.482  10.403  19.809  0.00  0.00    +0.000 C 
ATOM     25  C   UNL     1      -0.376  10.885  20.966  0.00  0.00    +0.000 C 
ATOM     26  O   UNL     1       0.342  10.800  22.195  0.00  0.00    +0.000 OA
ATOM     27  C   UNL     1       0.685   9.454  22.517  0.00  0.00    +0.000 C 
ATOM     28  C   UNL     1       1.629   8.883  21.466  0.00  0.00    +0.000 C 
ENDBRANCH  21  23
ENDBRANCH  18  19
ENDBRANCH   7  18
TORSDOF 6
ENDMDL
MODEL 6
REMARK VINA RESULT:      -7.3      1.097      1.967
REMARK  Name = 
REMARK  8 active torsions:
REMARK  status: ('A' for Active; 'I' for Inactive)
REMARK    1  A    between atoms: C_1  and  O_2
REMARK    2  A    between atoms: O_2  and  C_3
REMARK    3  A    between atoms: C_8  and  C_9
REMARK    4  A    between atoms: C_9  and  N_10
REMARK    5  A    between atoms: C_16  and  C_17
REMARK    6  A    between atoms: C_17  and  C_18
REMARK    7  A    between atoms: N_20  and  C_21
REMARK    8  A    between atoms: N_20  and  C_22
REMARK                            x       y       z     vdW  Elec       q    Type
REMARK                         _______ _______ _______ _____ _____    ______ ____
ROOT
ATOM      1  N   UNL     1       3.325   4.554  17.929  0.00  0.00    +0.000 NA
ATOM      2  C   UNL     1       2.852   3.337  17.241  0.00  0.00    +0.000 C 
ATOM      3  C   UNL     1       1.996   2.357  18.051  0.00  0.00    +0.000 C 
ATOM      4  N   UNL     1       1.086   2.989  18.984  0.00  0.00    +0.000 N 
ATOM      5  C   UNL     1       1.449   4.158  19.614  0.00  0.00    +0.000 C 
ATOM      6  O   UNL     1       1.046   4.350  20.757  0.00  0.00    +0.000 OA
ATOM      7  C   UNL     1       2.236   5.195  18.772  0.00  0.00    +0.000 C 
ATOM      8  H   UNL     1       0.536   2.376  19.574  0.00  0.00    +0.000 HD
ENDROOT
BRANCH   1   9
ATOM      9  C   UNL     1       4.571   4.380  18.695  0.00  0.00    +0.000 C 
BRANCH   9  15
ATOM     10  C   UNL     1       5.662   6.141  17.290  0.00  0.00    +0.000 A 
ATOM     11  C   UNL     1       6.673   7.063  17.030  0.00  0.00    +0.000 A 
ATOM     12  C   UNL     1       7.773   7.155  17.893  0.00  0.00    +0.000 A 
ATOM     13  C   UNL     1       7.862   6.322  19.006  0.00  0.00    +0.000 A 
ATOM     14  C   UNL     1       6.817   5.440  19.285  0.00  0.00    +0.000 A 
ATOM     15  C   UNL     1       5.684   5.374  18.466  0.00  0.00    +0.000 A 
BRANCH  10  17
ATOM     16  C   UNL     1       5.535   5.236  15.092  0.00  0.00    +0.000 C 
ATOM     17  O   UNL     1       4.871   5.717  16.251  0.00  0.00    +0.000 OA
ENDBRANCH  10  17
ENDBRANCH   9  15
ENDBRANCH   1   9
BRANCH   7  18
ATOM     18  C   UNL     1       2.814   6.317  19.674  0.00  0.00    +0.000 C 
BRANCH  18  19
ATOM     19  C   UNL     1       1.915   7.492  20.014  0.00  0.00    +0.000 C 
ATOM     20  O   UNL     1       1.239   7.509  21.041  0.00  0.00    +0.000 OA
ATOM     21  N   UNL     1       1.877   8.544  19.069  0.00  0.00    +0.000 N 
ATOM     22  C   UNL     1       2.452   8.412  17.727  0.00  0.00    +0.000 C 
BRANCH  21  23
ATOM     23  C   UNL     1       0.827   9.577  19.264  0.00  0.00    +0.000 C 
ATOM     24  C   UNL     1      -0.100   9.637  18.041  0.00  0.00    +0.000 C 
ATOM     25  C   UNL     1      -1.132  10.743  18.184  0.00  0.00    +0.000 C 
ATOM     26  O   UNL     1      -0.497  11.996  18.426  0.00  0.00    +0.000 OA
ATOM     27  C   UNL     1       0.226  11.996  19.655  0.00  0.00    +0.000 C 
ATOM     28  C   UNL     1       1.361  10.981  19.601  0.00  0.00    +0.000 C 
ENDBRANCH  21  23
ENDBRANCH  18  19
ENDBRANCH   7  18
TORSDOF 6
ENDMDL
MODEL 7
REMARK VINA RESULT:      -7.2      2.156      4.794
REMARK  Name = 
REMARK  8 active torsions:
REMARK  status: ('A' for Active; 'I' for Inactive)
REMARK    1  A    between atoms: C_1  and  O_2
REMARK    2  A    between atoms: O_2  and  C_3
REMARK    3  A    between atoms: C_8  and  C_9
REMARK    4  A    between atoms: C_9  and  N_10
REMARK    5  A    between atoms: C_16  and  C_17
REMARK    6  A    between atoms: C_17  and  C_18
REMARK    7  A    between atoms: N_20  and  C_21
REMARK    8  A    between atoms: N_20  and  C_22
REMARK                            x       y       z     vdW  Elec       q    Type
REMARK                         _______ _______ _______ _____ _____    ______ ____
ROOT
ATOM      1  N   UNL     1       5.115   5.394  18.883  0.00  0.00    +0.000 NA
ATOM      2  C   UNL     1       6.574   5.181  18.953  0.00  0.00    +0.000 C 
ATOM      3  C   UNL     1       7.370   5.324  17.651  0.00  0.00    +0.000 C 
ATOM      4  N   UNL     1       6.893   6.370  16.771  0.00  0.00    +0.000 N 
ATOM      5  C   UNL     1       5.547   6.653  16.706  0.00  0.00    +0.000 C 
ATOM      6  O   UNL     1       5.084   7.024  15.632  0.00  0.00    +0.000 OA
ATOM      7  C   UNL     1       4.753   6.602  18.037  0.00  0.00    +0.000 C 
ATOM      8  H   UNL     1       7.362   6.466  15.878  0.00  0.00    +0.000 HD
ENDROOT
BRANCH   1   9
ATOM      9  C   UNL     1       4.341   4.204  18.491  0.00  0.00    +0.000 C 
BRANCH   9  15
ATOM     10  C   UNL     1       2.182   3.018  18.934  0.00  0.00    +0.000 A 
ATOM     11  C   UNL     1       1.188   2.536  19.785  0.00  0.00    +0.000 A 
ATOM     12  C   UNL     1       1.249   2.815  21.156  0.00  0.00    +0.000 A 
ATOM     13  C   UNL     1       2.293   3.577  21.671  0.00  0.00    +0.000 A 
ATOM     14  C   UNL     1       3.311   4.008  20.818  0.00  0.00    +0.000 A 
ATOM     15  C   UNL     1       3.298   3.692  19.455  0.00  0.00    +0.000 A 
BRANCH  10  17
ATOM     16  C   UNL     1       0.977   4.194  17.251  0.00  0.00    +0.000 C 
ATOM     17  O   UNL     1       1.895   3.168  17.600  0.00  0.00    +0.000 OA
ENDBRANCH  10  17
ENDBRANCH   9  15
ENDBRANCH   1   9
BRANCH   7  18
ATOM     18  C   UNL     1       3.225   6.662  17.772  0.00  0.00    +0.000 C 
BRANCH  18  19
ATOM     19  C   UNL     1       2.523   7.996  17.953  0.00  0.00    +0.000 C 
ATOM     20  O   UNL     1       2.644   8.903  17.133  0.00  0.00    +0.000 OA
ATOM     21  N   UNL     1       1.751   8.140  19.131  0.00  0.00    +0.000 N 
ATOM     22  C   UNL     1       1.824   7.182  20.237  0.00  0.00    +0.000 C 
BRANCH  21  23
ATOM     23  C   UNL     1       1.263   9.508  19.443  0.00  0.00    +0.000 C 
ATOM     24  C   UNL     1       0.917   9.627  20.934  0.00  0.00    +0.000 C 
ATOM     25  C   UNL     1       0.339  10.994  21.259  0.00  0.00    +0.000 C 
ATOM     26  O   UNL     1      -0.790  11.272  20.433  0.00  0.00    +0.000 OA
ATOM     27  C   UNL     1      -0.435  11.334  19.053  0.00  0.00    +0.000 C 
ATOM     28  C   UNL     1       0.079   9.980  18.579  0.00  0.00    +0.000 C 
ENDBRANCH  21  23
ENDBRANCH  18  19
ENDBRANCH   7  18
TORSDOF 6
ENDMDL
MODEL 8
REMARK VINA RESULT:      -7.2      2.465      8.723
REMARK  Name = 
REMARK  8 active torsions:
REMARK  status: ('A' for Active; 'I' for Inactive)
REMARK    1  A    between atoms: C_1  and  O_2
REMARK    2  A    between atoms: O_2  and  C_3
REMARK    3  A    between atoms: C_8  and  C_9
REMARK    4  A    between atoms: C_9  and  N_10
REMARK    5  A    between atoms: C_16  and  C_17
REMARK    6  A    between atoms: C_17  and  C_18
REMARK    7  A    between atoms: N_20  and  C_21
REMARK    8  A    between atoms: N_20  and  C_22
REMARK                            x       y       z     vdW  Elec       q    Type
REMARK                         _______ _______ _______ _____ _____    ______ ____
ROOT
ATOM      1  N   UNL     1       0.001  11.134  18.658  0.00  0.00    +0.000 NA
ATOM      2  C   UNL     1      -0.131  12.603  18.705  0.00  0.00    +0.000 C 
ATOM      3  C   UNL     1      -0.234  13.257  20.087  0.00  0.00    +0.000 C 
ATOM      4  N   UNL     1       0.579  12.630  21.107  0.00  0.00    +0.000 N 
ATOM      5  C   UNL     1       0.785  11.269  21.083  0.00  0.00    +0.000 C 
ATOM      6  O   UNL     1       0.899  10.680  22.153  0.00  0.00    +0.000 OA
ATOM      7  C   UNL     1       0.985  10.614  19.691  0.00  0.00    +0.000 C 
ATOM      8  H   UNL     1       0.503  13.002  22.046  0.00  0.00    +0.000 HD
ENDROOT
BRANCH   1   9
ATOM      9  C   UNL     1      -1.276  10.402  18.708  0.00  0.00    +0.000 C 
BRANCH   9  15
ATOM     10  C   UNL     1      -3.353  11.342  17.675  0.00  0.00    +0.000 A 
ATOM     11  C   UNL     1      -4.252  11.488  16.620  0.00  0.00    +0.000 A 
ATOM     12  C   UNL     1      -4.074  10.746  15.445  0.00  0.00    +0.000 A 
ATOM     13  C   UNL     1      -3.007   9.860  15.330  0.00  0.00    +0.000 A 
ATOM     14  C   UNL     1      -2.083   9.762  16.373  0.00  0.00    +0.000 A 
ATOM     15  C   UNL     1      -2.213  10.536  17.531  0.00  0.00    +0.000 A 
BRANCH  10  17
ATOM     16  C   UNL     1      -5.061  12.236  19.073  0.00  0.00    +0.000 C 
ATOM     17  O   UNL     1      -3.765  11.668  18.943  0.00  0.00    +0.000 OA
ENDBRANCH  10  17
ENDBRANCH   9  15
ENDBRANCH   1   9
BRANCH   7  18
ATOM     18  C   UNL     1       0.923   9.067  19.794  0.00  0.00    +0.000 C 
BRANCH  18  19
ATOM     19  C   UNL     1       1.958   8.260  19.030  0.00  0.00    +0.000 C 
ATOM     20  O   UNL     1       2.436   8.664  17.972  0.00  0.00    +0.000 OA
ATOM     21  N   UNL     1       2.313   7.010  19.591  0.00  0.00    +0.000 N 
ATOM     22  C   UNL     1       1.556   6.400  20.688  0.00  0.00    +0.000 C 
BRANCH  21  23
ATOM     23  C   UNL     1       3.131   6.107  18.740  0.00  0.00    +0.000 C 
ATOM     24  C   UNL     1       2.247   5.028  18.099  0.00  0.00    +0.000 C 
ATOM     25  C   UNL     1       3.076   4.045  17.289  0.00  0.00    +0.000 C 
ATOM     26  O   UNL     1       4.105   3.474  18.093  0.00  0.00    +0.000 OA
ATOM     27  C   UNL     1       5.031   4.458  18.549  0.00  0.00    +0.000 C 
ATOM     28  C   UNL     1       4.331   5.461  19.457  0.00  0.00    +0.000 C 
ENDBRANCH  21  23
ENDBRANCH  18  19
ENDBRANCH   7  18
TORSDOF 6
ENDMDL
MODEL 9
REMARK VINA RESULT:      -7.1      1.555      2.036
REMARK  Name = 
REMARK  8 active torsions:
REMARK  status: ('A' for Active; 'I' for Inactive)
REMARK    1  A    between atoms: C_1  and  O_2
REMARK    2  A    between atoms: O_2  and  C_3
REMARK    3  A    between atoms: C_8  and  C_9
REMARK    4  A    between atoms: C_9  and  N_10
REMARK    5  A    between atoms: C_16  and  C_17
REMARK    6  A    between atoms: C_17  and  C_18
REMARK    7  A    between atoms: N_20  and  C_21
REMARK    8  A    between atoms: N_20  and  C_22
REMARK                            x       y       z     vdW  Elec       q    Type
REMARK                         _______ _______ _______ _____ _____    ______ ____
ROOT
ATOM      1  N   UNL     1       3.394   4.776  17.852  0.00  0.00    +0.000 NA
ATOM      2  C   UNL     1       3.094   3.459  17.257  0.00  0.00    +0.000 C 
ATOM      3  C   UNL     1       2.396   2.425  18.147  0.00  0.00    +0.000 C 
ATOM      4  N   UNL     1       1.415   2.983  19.054  0.00  0.00    +0.000 N 
ATOM      5  C   UNL     1       1.612   4.233  19.597  0.00  0.00    +0.000 C 
ATOM      6  O   UNL     1       1.198   4.444  20.732  0.00  0.00    +0.000 OA
ATOM      7  C   UNL     1       2.233   5.311  18.671  0.00  0.00    +0.000 C 
ATOM      8  H   UNL     1       0.965   2.340  19.694  0.00  0.00    +0.000 HD
ENDROOT
BRANCH   1   9
ATOM      9  C   UNL     1       4.660   4.834  18.603  0.00  0.00    +0.000 C 
BRANCH   9  15
ATOM     10  C   UNL     1       6.948   5.830  18.800  0.00  0.00    +0.000 A 
ATOM     11  C   UNL     1       7.942   6.730  18.419  0.00  0.00    +0.000 A 
ATOM     12  C   UNL     1       7.668   7.700  17.446  0.00  0.00    +0.000 A 
ATOM     13  C   UNL     1       6.405   7.773  16.865  0.00  0.00    +0.000 A 
ATOM     14  C   UNL     1       5.435   6.832  17.216  0.00  0.00    +0.000 A 
ATOM     15  C   UNL     1       5.707   5.821  18.144  0.00  0.00    +0.000 A 
BRANCH  10  17
ATOM     16  C   UNL     1       8.321   5.199  20.640  0.00  0.00    +0.000 C 
ATOM     17  O   UNL     1       7.038   5.229  20.031  0.00  0.00    +0.000 OA
ENDBRANCH  10  17
ENDBRANCH   9  15
ENDBRANCH   1   9
BRANCH   7  18
ATOM     18  C   UNL     1       2.653   6.564  19.484  0.00  0.00    +0.000 C 
BRANCH  18  19
ATOM     19  C   UNL     1       2.133   7.916  19.029  0.00  0.00    +0.000 C 
ATOM     20  O   UNL     1       2.462   8.402  17.949  0.00  0.00    +0.000 OA
ATOM     21  N   UNL     1       1.277   8.592  19.932  0.00  0.00    +0.000 N 
ATOM     22  C   UNL     1       1.103   8.157  21.320  0.00  0.00    +0.000 C 
BRANCH  21  23
ATOM     23  C   UNL     1       0.960  10.008  19.614  0.00  0.00    +0.000 C 
ATOM     24  C   UNL     1       0.875  10.841  20.901  0.00  0.00    +0.000 C 
ATOM     25  C   UNL     1       0.472  12.275  20.606  0.00  0.00    +0.000 C 
ATOM     26  O   UNL     1      -0.750  12.313  19.872  0.00  0.00    +0.000 OA
ATOM     27  C   UNL     1      -0.623  11.688  18.596  0.00  0.00    +0.000 C 
ATOM     28  C   UNL     1      -0.307  10.208  18.762  0.00  0.00    +0.000 C 
ENDBRANCH  21  23
ENDBRANCH  18  19
ENDBRANCH   7  18
TORSDOF 6
ENDMDL
