MODEL 1
REMARK VINA RESULT:      -8.4      0.000      0.000
REMARK  Name = 
REMARK  10 active torsions:
REMARK  status: ('A' for Active; 'I' for Inactive)
REMARK    1  A    between atoms: C_1  and  C_2
REMARK    2  A    between atoms: C_2  and  C_3
REMARK    3  A    between atoms: C_2  and  C_4
REMARK    4  A    between atoms: C_2  and  O_5
REMARK    5  A    between atoms: O_5  and  C_6
REMARK    6  A    between atoms: C_18  and  O_19
REMARK    7  A    between atoms: O_19  and  C_20
REMARK    8  A    between atoms: C_20  and  C_21
REMARK    9  A    between atoms: C_24  and  S_25
REMARK   10  A    between atoms: S_25  and  C_26
REMARK                            x       y       z     vdW  Elec       q    Type
REMARK                         _______ _______ _______ _____ _____    ______ ____
ROOT
ATOM      1  C   UNL     1       3.937   3.288  17.715  0.00  0.00    +0.000 C 
ATOM      2  O   UNL     1       4.061   2.073  17.797  0.00  0.00    +0.000 OA
ATOM      3  N   UNL     1       3.405   4.114  18.705  0.00  0.00    +0.000 N 
ATOM      4  C   UNL     1       2.565   5.119  18.144  0.00  0.00    +0.000 C 
ATOM      5  C   UNL     1       1.206   4.370  18.285  0.00  0.00    +0.000 C 
ATOM      6  C   UNL     1       1.302   3.492  19.548  0.00  0.00    +0.000 C 
ATOM      7  C   UNL     1       2.709   3.825  20.037  0.00  0.00    +0.000 C 
ATOM      8  C   UNL     1       2.425   5.165  20.988  0.00  0.00    +0.000 C 
ATOM      9  N   UNL     1       2.253   6.362  20.154  0.00  0.00    +0.000 N 
ATOM     10  C   UNL     1       1.506   7.511  20.269  0.00  0.00    +0.000 A 
ATOM     11  N   UNL     1       0.535   7.706  21.157  0.00  0.00    +0.000 NA
ATOM     12  C   UNL     1      -0.049   8.945  21.147  0.00  0.00    +0.000 A 
ATOM     13  C   UNL     1       0.340   9.997  20.340  0.00  0.00    +0.000 A 
ATOM     14  C   UNL     1       1.266   9.656  19.405  0.00  0.00    +0.000 A 
ATOM     15  N   UNL     1       1.838   8.460  19.378  0.00  0.00    +0.000 NA
ATOM     16  C   UNL     1       3.027   6.323  18.943  0.00  0.00    +0.000 C 
ENDROOT
BRANCH   1  17
ATOM     17  O   UNL     1       4.171   4.017  16.559  0.00  0.00    +0.000 OA
BRANCH  17  19
ATOM     18  C   UNL     1       6.526   4.442  17.225  0.00  0.00    +0.000 C 
ATOM     19  C   UNL     1       5.444   4.640  16.170  0.00  0.00    +0.000 C 
ATOM     20  C   UNL     1       5.216   6.107  15.818  0.00  0.00    +0.000 C 
ATOM     21  C   UNL     1       5.970   3.932  14.884  0.00  0.00    +0.000 C 
ENDBRANCH  17  19
ENDBRANCH   1  17
BRANCH  13  22
ATOM     22  O   UNL     1      -0.134  11.261  20.513  0.00  0.00    +0.000 OA
BRANCH  22  23
ATOM     23  C   UNL     1      -0.487  11.885  19.260  0.00  0.00    +0.000 C 
BRANCH  23  24
ATOM     24  C   UNL     1      -1.977  11.944  19.058  0.00  0.00    +0.000 A 
ATOM     25  C   UNL     1      -2.584  11.333  17.948  0.00  0.00    +0.000 A 
ATOM     26  C   UNL     1      -3.968  11.352  17.803  0.00  0.00    +0.000 A 
ATOM     27  C   UNL     1      -4.752  11.961  18.783  0.00  0.00    +0.000 A 
ATOM     28  C   UNL     1      -4.168  12.559  19.903  0.00  0.00    +0.000 A 
ATOM     29  C   UNL     1      -2.782  12.537  20.043  0.00  0.00    +0.000 A 
BRANCH  27  30
ATOM     30  S   UNL     1      -6.512  12.034  18.581  0.00  0.00    +0.000 S 
ATOM     31  C   UNL     1      -6.713  12.968  17.079  0.00  0.00    +0.000 C 
ATOM     32  O   UNL     1      -6.975  10.680  18.333  0.00  0.00    +0.000 OA
ATOM     33  O   UNL     1      -7.051  12.814  19.676  0.00  0.00    +0.000 OA
ENDBRANCH  27  30
ENDBRANCH  23  24
ENDBRANCH  22  23
ENDBRANCH  13  22
TORSDOF 6
ENDMDL
MODEL 2
REMARK VINA RESULT:      -8.2      1.859      2.418
REMARK  Name = 
REMARK  10 active torsions:
REMARK  status: ('A' for Active; 'I' for Inactive)
REMARK    1  A    between atoms: C_1  and  C_2
REMARK    2  A    between atoms: C_2  and  C_3
REMARK    3  A    between atoms: C_2  and  C_4
REMARK    4  A    between atoms: C_2  and  O_5
REMARK    5  A    between atoms: O_5  and  C_6
REMARK    6  A    between atoms: C_18  and  O_19
REMARK    7  A    between atoms: O_19  and  C_20
REMARK    8  A    between atoms: C_20  and  C_21
REMARK    9  A    between atoms: C_24  and  S_25
REMARK   10  A    between atoms: S_25  and  C_26
REMARK                            x       y       z     vdW  Elec       q    Type
REMARK                         _______ _______ _______ _____ _____    ______ ____
ROOT
ATOM      1  C   UNL     1       3.972   3.244  17.643  0.00  0.00    +0.000 C 
ATOM      2  O   UNL     1       4.070   2.027  17.737  0.00  0.00    +0.000 OA
ATOM      3  N   UNL     1       3.450   4.089  18.622  0.00  0.00    +0.000 N 
ATOM      4  C   UNL     1       2.633   5.105  18.046  0.00  0.00    +0.000 C 
ATOM      5  C   UNL     1       1.259   4.385  18.185  0.00  0.00    +0.000 C 
ATOM      6  C   UNL     1       1.330   3.517  19.457  0.00  0.00    +0.000 C 
ATOM      7  C   UNL     1       2.740   3.827  19.952  0.00  0.00    +0.000 C 
ATOM      8  C   UNL     1       2.477   5.181  20.888  0.00  0.00    +0.000 C 
ATOM      9  N   UNL     1       2.334   6.373  20.042  0.00  0.00    +0.000 N 
ATOM     10  C   UNL     1       1.609   7.538  20.143  0.00  0.00    +0.000 A 
ATOM     11  N   UNL     1       0.637   7.760  21.023  0.00  0.00    +0.000 NA
ATOM     12  C   UNL     1       0.077   9.010  20.998  0.00  0.00    +0.000 A 
ATOM     13  C   UNL     1       0.493  10.047  20.183  0.00  0.00    +0.000 A 
ATOM     14  C   UNL     1       1.418   9.679  19.258  0.00  0.00    +0.000 A 
ATOM     15  N   UNL     1       1.965   8.471  19.245  0.00  0.00    +0.000 NA
ATOM     16  C   UNL     1       3.115   6.307  18.837  0.00  0.00    +0.000 C 
ENDROOT
BRANCH   1  17
ATOM     17  O   UNL     1       4.227   3.957  16.482  0.00  0.00    +0.000 OA
BRANCH  17  19
ATOM     18  C   UNL     1       6.092   3.855  14.844  0.00  0.00    +0.000 C 
ATOM     19  C   UNL     1       5.520   4.532  16.084  0.00  0.00    +0.000 C 
ATOM     20  C   UNL     1       6.481   4.513  17.269  0.00  0.00    +0.000 C 
ATOM     21  C   UNL     1       5.300   6.024  15.690  0.00  0.00    +0.000 C 
ENDBRANCH  17  19
ENDBRANCH   1  17
BRANCH  13  22
ATOM     22  O   UNL     1       0.043  11.322  20.342  0.00  0.00    +0.000 OA
BRANCH  22  23
ATOM     23  C   UNL     1      -0.194  11.644  21.729  0.00  0.00    +0.000 C 
BRANCH  23  24
ATOM     24  C   UNL     1      -1.631  12.011  21.987  0.00  0.00    +0.000 A 
ATOM     25  C   UNL     1      -2.171  11.964  23.282  0.00  0.00    +0.000 A 
ATOM     26  C   UNL     1      -3.487  12.356  23.512  0.00  0.00    +0.000 A 
ATOM     27  C   UNL     1      -4.259  12.821  22.447  0.00  0.00    +0.000 A 
ATOM     28  C   UNL     1      -3.734  12.892  21.154  0.00  0.00    +0.000 A 
ATOM     29  C   UNL     1      -2.417  12.498  20.930  0.00  0.00    +0.000 A 
BRANCH  27  30
ATOM     30  S   UNL     1      -5.951  13.275  22.721  0.00  0.00    +0.000 S 
ATOM     31  C   UNL     1      -6.414  14.067  21.195  0.00  0.00    +0.000 C 
ATOM     32  O   UNL     1      -6.715  12.047  22.840  0.00  0.00    +0.000 OA
ATOM     33  O   UNL     1      -5.976  14.271  23.774  0.00  0.00    +0.000 OA
ENDBRANCH  27  30
ENDBRANCH  23  24
ENDBRANCH  22  23
ENDBRANCH  13  22
TORSDOF 6
ENDMDL
MODEL 3
REMARK VINA RESULT:      -8.1      2.035      2.442
REMARK  Name = 
REMARK  10 active torsions:
REMARK  status: ('A' for Active; 'I' for Inactive)
REMARK    1  A    between atoms: C_1  and  C_2
REMARK    2  A    between atoms: C_2  and  C_3
REMARK    3  A    between atoms: C_2  and  C_4
REMARK    4  A    between atoms: C_2  and  O_5
REMARK    5  A    between atoms: O_5  and  C_6
REMARK    6  A    between atoms: C_18  and  O_19
REMARK    7  A    between atoms: O_19  and  C_20
REMARK    8  A    between atoms: C_20  and  C_21
REMARK    9  A    between atoms: C_24  and  S_25
REMARK   10  A    between atoms: S_25  and  C_26
REMARK                            x       y       z     vdW  Elec       q    Type
REMARK                         _______ _______ _______ _____ _____    ______ ____
ROOT
ATOM      1  C   UNL     1       3.936   3.269  17.513  0.00  0.00    +0.000 C 
ATOM      2  O   UNL     1       4.012   2.050  17.607  0.00  0.00    +0.000 OA
ATOM      3  N   UNL     1       3.459   4.127  18.503  0.00  0.00    +0.000 N 
ATOM      4  C   UNL     1       2.649   5.159  17.947  0.00  0.00    +0.000 C 
ATOM      5  C   UNL     1       1.264   4.468  18.124  0.00  0.00    +0.000 C 
ATOM      6  C   UNL     1       1.350   3.601  19.396  0.00  0.00    +0.000 C 
ATOM      7  C   UNL     1       2.779   3.882  19.852  0.00  0.00    +0.000 C 
ATOM      8  C   UNL     1       2.570   5.243  20.792  0.00  0.00    +0.000 C 
ATOM      9  N   UNL     1       2.430   6.436  19.948  0.00  0.00    +0.000 N 
ATOM     10  C   UNL     1       1.732   7.616  20.065  0.00  0.00    +0.000 A 
ATOM     11  N   UNL     1       0.788   7.860  20.969  0.00  0.00    +0.000 NA
ATOM     12  C   UNL     1       0.255   9.122  20.957  0.00  0.00    +0.000 A 
ATOM     13  C   UNL     1       0.670  10.148  20.129  0.00  0.00    +0.000 A 
ATOM     14  C   UNL     1       1.562   9.759  19.180  0.00  0.00    +0.000 A 
ATOM     15  N   UNL     1       2.084   8.540  19.155  0.00  0.00    +0.000 NA
ATOM     16  C   UNL     1       3.176   6.351  18.722  0.00  0.00    +0.000 C 
ENDROOT
BRANCH   1  17
ATOM     17  O   UNL     1       4.175   3.975  16.343  0.00  0.00    +0.000 OA
BRANCH  17  19
ATOM     18  C   UNL     1       5.333   6.056  15.635  0.00  0.00    +0.000 C 
ATOM     19  C   UNL     1       5.457   4.566  15.935  0.00  0.00    +0.000 C 
ATOM     20  C   UNL     1       6.047   3.772  14.773  0.00  0.00    +0.000 C 
ATOM     21  C   UNL     1       6.458   4.455  17.126  0.00  0.00    +0.000 C 
ENDBRANCH  17  19
ENDBRANCH   1  17
BRANCH  13  22
ATOM     22  O   UNL     1       0.252  11.433  20.297  0.00  0.00    +0.000 OA
BRANCH  22  23
ATOM     23  C   UNL     1      -0.997  11.690  19.619  0.00  0.00    +0.000 C 
BRANCH  23  24
ATOM     24  C   UNL     1      -2.080  12.117  20.572  0.00  0.00    +0.000 A 
ATOM     25  C   UNL     1      -3.352  12.487  20.106  0.00  0.00    +0.000 A 
ATOM     26  C   UNL     1      -4.360  12.830  21.004  0.00  0.00    +0.000 A 
ATOM     27  C   UNL     1      -4.103  12.777  22.374  0.00  0.00    +0.000 A 
ATOM     28  C   UNL     1      -2.849  12.394  22.858  0.00  0.00    +0.000 A 
ATOM     29  C   UNL     1      -1.845  12.053  21.955  0.00  0.00    +0.000 A 
BRANCH  27  30
ATOM     30  S   UNL     1      -5.364  13.260  23.523  0.00  0.00    +0.000 S 
ATOM     31  C   UNL     1      -6.834  13.308  22.520  0.00  0.00    +0.000 C 
ATOM     32  O   UNL     1      -5.511  12.181  24.483  0.00  0.00    +0.000 OA
ATOM     33  O   UNL     1      -5.070  14.609  23.961  0.00  0.00    +0.000 OA
ENDBRANCH  27  30
ENDBRANCH  23  24
ENDBRANCH  22  23
ENDBRANCH  13  22
TORSDOF 6
ENDMDL
MODEL 4
REMARK VINA RESULT:      -8.1      1.089      1.474
REMARK  Name = 
REMARK  10 active torsions:
REMARK  status: ('A' for Active; 'I' for Inactive)
REMARK    1  A    between atoms: C_1  and  C_2
REMARK    2  A    between atoms: C_2  and  C_3
REMARK    3  A    between atoms: C_2  and  C_4
REMARK    4  A    between atoms: C_2  and  O_5
REMARK    5  A    between atoms: O_5  and  C_6
REMARK    6  A    between atoms: C_18  and  O_19
REMARK    7  A    between atoms: O_19  and  C_20
REMARK    8  A    between atoms: C_20  and  C_21
REMARK    9  A    between atoms: C_24  and  S_25
REMARK   10  A    between atoms: S_25  and  C_26
REMARK                            x       y       z     vdW  Elec       q    Type
REMARK                         _______ _______ _______ _____ _____    ______ ____
ROOT
ATOM      1  C   UNL     1       4.061   3.463  17.577  0.00  0.00    +0.000 C 
ATOM      2  O   UNL     1       4.175   2.266  17.806  0.00  0.00    +0.000 OA
ATOM      3  N   UNL     1       3.564   4.412  18.470  0.00  0.00    +0.000 N 
ATOM      4  C   UNL     1       2.718   5.350  17.811  0.00  0.00    +0.000 C 
ATOM      5  C   UNL     1       1.356   4.642  18.077  0.00  0.00    +0.000 C 
ATOM      6  C   UNL     1       1.478   3.926  19.436  0.00  0.00    +0.000 C 
ATOM      7  C   UNL     1       2.900   4.299  19.845  0.00  0.00    +0.000 C 
ATOM      8  C   UNL     1       2.655   5.749  20.629  0.00  0.00    +0.000 C 
ATOM      9  N   UNL     1       2.472   6.836  19.658  0.00  0.00    +0.000 N 
ATOM     10  C   UNL     1       1.739   8.000  19.649  0.00  0.00    +0.000 A 
ATOM     11  N   UNL     1       0.794   8.316  20.530  0.00  0.00    +0.000 NA
ATOM     12  C   UNL     1       0.222   9.552  20.382  0.00  0.00    +0.000 A 
ATOM     13  C   UNL     1       0.600  10.491  19.441  0.00  0.00    +0.000 A 
ATOM     14  C   UNL     1       1.498  10.025  18.532  0.00  0.00    +0.000 A 
ATOM     15  N   UNL     1       2.057   8.827  18.639  0.00  0.00    +0.000 NA
ATOM     16  C   UNL     1       3.213   6.637  18.442  0.00  0.00    +0.000 C 
ENDROOT
BRANCH   1  17
ATOM     17  O   UNL     1       4.271   4.041  16.334  0.00  0.00    +0.000 OA
BRANCH  17  19
ATOM     18  C   UNL     1       5.385   6.108  15.525  0.00  0.00    +0.000 C 
ATOM     19  C   UNL     1       5.530   4.626  15.852  0.00  0.00    +0.000 C 
ATOM     20  C   UNL     1       6.067   3.808  14.682  0.00  0.00    +0.000 C 
ATOM     21  C   UNL     1       6.585   4.546  16.997  0.00  0.00    +0.000 C 
ENDBRANCH  17  19
ENDBRANCH   1  17
BRANCH  13  22
ATOM     22  O   UNL     1       0.144  11.773  19.468  0.00  0.00    +0.000 OA
BRANCH  22  23
ATOM     23  C   UNL     1      -0.825  12.026  18.427  0.00  0.00    +0.000 C 
BRANCH  23  24
ATOM     24  C   UNL     1      -2.221  12.159  18.974  0.00  0.00    +0.000 A 
ATOM     25  C   UNL     1      -3.333  11.720  18.238  0.00  0.00    +0.000 A 
ATOM     26  C   UNL     1      -4.613  11.802  18.779  0.00  0.00    +0.000 A 
ATOM     27  C   UNL     1      -4.780  12.301  20.071  0.00  0.00    +0.000 A 
ATOM     28  C   UNL     1      -3.684  12.726  20.826  0.00  0.00    +0.000 A 
ATOM     29  C   UNL     1      -2.405  12.642  20.280  0.00  0.00    +0.000 A 
BRANCH  27  30
ATOM     30  S   UNL     1      -6.411  12.455  20.749  0.00  0.00    +0.000 S 
ATOM     31  C   UNL     1      -7.280  11.072  20.042  0.00  0.00    +0.000 C 
ATOM     32  O   UNL     1      -6.308  12.237  22.181  0.00  0.00    +0.000 OA
ATOM     33  O   UNL     1      -6.995  13.674  20.224  0.00  0.00    +0.000 OA
ENDBRANCH  27  30
ENDBRANCH  23  24
ENDBRANCH  22  23
ENDBRANCH  13  22
TORSDOF 6
ENDMDL
MODEL 5
REMARK VINA RESULT:      -8.0      1.959      2.537
REMARK  Name = 
REMARK  10 active torsions:
REMARK  status: ('A' for Active; 'I' for Inactive)
REMARK    1  A    between atoms: C_1  and  C_2
REMARK    2  A    between atoms: C_2  and  C_3
REMARK    3  A    between atoms: C_2  and  C_4
REMARK    4  A    between atoms: C_2  and  O_5
REMARK    5  A    between atoms: O_5  and  C_6
REMARK    6  A    between atoms: C_18  and  O_19
REMARK    7  A    between atoms: O_19  and  C_20
REMARK    8  A    between atoms: C_20  and  C_21
REMARK    9  A    between atoms: C_24  and  S_25
REMARK   10  A    between atoms: S_25  and  C_26
REMARK                            x       y       z     vdW  Elec       q    Type
REMARK                         _______ _______ _______ _____ _____    ______ ____
ROOT
ATOM      1  C   UNL     1       4.047   3.388  17.568  0.00  0.00    +0.000 C 
ATOM      2  O   UNL     1       4.178   2.170  17.594  0.00  0.00    +0.000 OA
ATOM      3  N   UNL     1       3.492   4.162  18.586  0.00  0.00    +0.000 N 
ATOM      4  C   UNL     1       2.653   5.186  18.058  0.00  0.00    +0.000 C 
ATOM      5  C   UNL     1       1.298   4.423  18.140  0.00  0.00    +0.000 C 
ATOM      6  C   UNL     1       1.380   3.487  19.362  0.00  0.00    +0.000 C 
ATOM      7  C   UNL     1       2.775   3.806  19.890  0.00  0.00    +0.000 C 
ATOM      8  C   UNL     1       2.465   5.098  20.898  0.00  0.00    +0.000 C 
ATOM      9  N   UNL     1       2.299   6.331  20.118  0.00  0.00    +0.000 N 
ATOM     10  C   UNL     1       1.541   7.469  20.275  0.00  0.00    +0.000 A 
ATOM     11  N   UNL     1       0.553   7.615  21.154  0.00  0.00    +0.000 NA
ATOM     12  C   UNL     1      -0.040   8.849  21.192  0.00  0.00    +0.000 A 
ATOM     13  C   UNL     1       0.355   9.941  20.442  0.00  0.00    +0.000 A 
ATOM     14  C   UNL     1       1.300   9.651  19.509  0.00  0.00    +0.000 A 
ATOM     15  N   UNL     1       1.880   8.461  19.435  0.00  0.00    +0.000 NA
ATOM     16  C   UNL     1       3.093   6.354  18.920  0.00  0.00    +0.000 C 
ENDROOT
BRANCH   1  17
ATOM     17  O   UNL     1       4.294   4.172  16.451  0.00  0.00    +0.000 OA
BRANCH  17  19
ATOM     18  C   UNL     1       6.636   4.593  17.164  0.00  0.00    +0.000 C 
ATOM     19  C   UNL     1       5.592   4.742  16.064  0.00  0.00    +0.000 C 
ATOM     20  C   UNL     1       5.407   6.187  15.610  0.00  0.00    +0.000 C 
ATOM     21  C   UNL     1       6.143   3.941  14.844  0.00  0.00    +0.000 C 
ENDBRANCH  17  19
ENDBRANCH   1  17
BRANCH  13  22
ATOM     22  O   UNL     1      -0.131  11.192  20.667  0.00  0.00    +0.000 OA
BRANCH  22  23
ATOM     23  C   UNL     1      -0.461  11.405  22.056  0.00  0.00    +0.000 C 
BRANCH  23  24
ATOM     24  C   UNL     1      -1.847  11.965  22.229  0.00  0.00    +0.000 A 
ATOM     25  C   UNL     1      -2.496  11.925  23.473  0.00  0.00    +0.000 A 
ATOM     26  C   UNL     1      -3.758  12.495  23.629  0.00  0.00    +0.000 A 
ATOM     27  C   UNL     1      -4.362  13.129  22.543  0.00  0.00    +0.000 A 
ATOM     28  C   UNL     1      -3.723  13.195  21.301  0.00  0.00    +0.000 A 
ATOM     29  C   UNL     1      -2.462  12.623  21.151  0.00  0.00    +0.000 A 
BRANCH  27  30
ATOM     30  S   UNL     1      -5.988  13.813  22.719  0.00  0.00    +0.000 S 
ATOM     31  C   UNL     1      -5.715  15.265  23.714  0.00  0.00    +0.000 C 
ATOM     32  O   UNL     1      -6.420  14.246  21.402  0.00  0.00    +0.000 OA
ATOM     33  O   UNL     1      -6.780  12.877  23.490  0.00  0.00    +0.000 OA
ENDBRANCH  27  30
ENDBRANCH  23  24
ENDBRANCH  22  23
ENDBRANCH  13  22
TORSDOF 6
ENDMDL
MODEL 6
REMARK VINA RESULT:      -8.0      3.327      4.361
REMARK  Name = 
REMARK  10 active torsions:
REMARK  status: ('A' for Active; 'I' for Inactive)
REMARK    1  A    between atoms: C_1  and  C_2
REMARK    2  A    between atoms: C_2  and  C_3
REMARK    3  A    between atoms: C_2  and  C_4
REMARK    4  A    between atoms: C_2  and  O_5
REMARK    5  A    between atoms: O_5  and  C_6
REMARK    6  A    between atoms: C_18  and  O_19
REMARK    7  A    between atoms: O_19  and  C_20
REMARK    8  A    between atoms: C_20  and  C_21
REMARK    9  A    between atoms: C_24  and  S_25
REMARK   10  A    between atoms: S_25  and  C_26
REMARK                            x       y       z     vdW  Elec       q    Type
REMARK                         _______ _______ _______ _____ _____    ______ ____
ROOT
ATOM      1  C   UNL     1       4.065   3.316  17.590  0.00  0.00    +0.000 C 
ATOM      2  O   UNL     1       4.187   2.105  17.724  0.00  0.00    +0.000 OA
ATOM      3  N   UNL     1       3.537   4.185  18.544  0.00  0.00    +0.000 N 
ATOM      4  C   UNL     1       2.696   5.165  17.943  0.00  0.00    +0.000 C 
ATOM      5  C   UNL     1       1.337   4.425  18.121  0.00  0.00    +0.000 C 
ATOM      6  C   UNL     1       1.437   3.603  19.421  0.00  0.00    +0.000 C 
ATOM      7  C   UNL     1       2.845   3.956  19.890  0.00  0.00    +0.000 C 
ATOM      8  C   UNL     1       2.566   5.336  20.782  0.00  0.00    +0.000 C 
ATOM      9  N   UNL     1       2.393   6.495  19.897  0.00  0.00    +0.000 N 
ATOM     10  C   UNL     1       1.647   7.649  19.964  0.00  0.00    +0.000 A 
ATOM     11  N   UNL     1       0.679   7.884  20.846  0.00  0.00    +0.000 NA
ATOM     12  C   UNL     1       0.096   9.122  20.784  0.00  0.00    +0.000 A 
ATOM     13  C   UNL     1       0.484  10.137  19.930  0.00  0.00    +0.000 A 
ATOM     14  C   UNL     1       1.406   9.755  19.008  0.00  0.00    +0.000 A 
ATOM     15  N   UNL     1       1.976   8.558  19.031  0.00  0.00    +0.000 NA
ATOM     16  C   UNL     1       3.162   6.402  18.686  0.00  0.00    +0.000 C 
ENDROOT
BRANCH   1  17
ATOM     17  O   UNL     1       4.295   3.993  16.402  0.00  0.00    +0.000 OA
BRANCH  17  19
ATOM     18  C   UNL     1       6.659   4.426  17.032  0.00  0.00    +0.000 C 
ATOM     19  C   UNL     1       5.562   4.612  15.989  0.00  0.00    +0.000 C 
ATOM     20  C   UNL     1       5.329   6.075  15.624  0.00  0.00    +0.000 C 
ATOM     21  C   UNL     1       6.072   3.890  14.704  0.00  0.00    +0.000 C 
ENDBRANCH  17  19
ENDBRANCH   1  17
BRANCH  13  22
ATOM     22  O   UNL     1       0.012  11.409  20.049  0.00  0.00    +0.000 OA
BRANCH  22  23
ATOM     23  C   UNL     1       0.927  12.261  20.770  0.00  0.00    +0.000 C 
BRANCH  23  24
ATOM     24  C   UNL     1       1.067  13.614  20.125  0.00  0.00    +0.000 A 
ATOM     25  C   UNL     1       2.314  14.254  20.043  0.00  0.00    +0.000 A 
ATOM     26  C   UNL     1       2.435  15.482  19.398  0.00  0.00    +0.000 A 
ATOM     27  C   UNL     1       1.311  16.060  18.808  0.00  0.00    +0.000 A 
ATOM     28  C   UNL     1       0.064  15.430  18.863  0.00  0.00    +0.000 A 
ATOM     29  C   UNL     1      -0.051  14.202  19.511  0.00  0.00    +0.000 A 
BRANCH  27  30
ATOM     30  S   UNL     1       1.446  17.646  18.027  0.00  0.00    +0.000 S 
ATOM     31  C   UNL     1      -0.173  17.898  17.331  0.00  0.00    +0.000 C 
ATOM     32  O   UNL     1       1.641  18.630  19.077  0.00  0.00    +0.000 OA
ATOM     33  O   UNL     1       2.394  17.524  16.939  0.00  0.00    +0.000 OA
ENDBRANCH  27  30
ENDBRANCH  23  24
ENDBRANCH  22  23
ENDBRANCH  13  22
TORSDOF 6
ENDMDL
MODEL 7
REMARK VINA RESULT:      -7.9      1.894      2.217
REMARK  Name = 
REMARK  10 active torsions:
REMARK  status: ('A' for Active; 'I' for Inactive)
REMARK    1  A    between atoms: C_1  and  C_2
REMARK    2  A    between atoms: C_2  and  C_3
REMARK    3  A    between atoms: C_2  and  C_4
REMARK    4  A    between atoms: C_2  and  O_5
REMARK    5  A    between atoms: O_5  and  C_6
REMARK    6  A    between atoms: C_18  and  O_19
REMARK    7  A    between atoms: O_19  and  C_20
REMARK    8  A    between atoms: C_20  and  C_21
REMARK    9  A    between atoms: C_24  and  S_25
REMARK   10  A    between atoms: S_25  and  C_26
REMARK                            x       y       z     vdW  Elec       q    Type
REMARK                         _______ _______ _______ _____ _____    ______ ____
ROOT
ATOM      1  C   UNL     1       3.962   3.298  17.487  0.00  0.00    +0.000 C 
ATOM      2  O   UNL     1       4.079   2.079  17.509  0.00  0.00    +0.000 OA
ATOM      3  N   UNL     1       3.438   4.078  18.517  0.00  0.00    +0.000 N 
ATOM      4  C   UNL     1       2.601   5.113  18.008  0.00  0.00    +0.000 C 
ATOM      5  C   UNL     1       1.239   4.366  18.119  0.00  0.00    +0.000 C 
ATOM      6  C   UNL     1       1.335   3.428  19.338  0.00  0.00    +0.000 C 
ATOM      7  C   UNL     1       2.746   3.729  19.836  0.00  0.00    +0.000 C 
ATOM      8  C   UNL     1       2.473   5.024  20.851  0.00  0.00    +0.000 C 
ATOM      9  N   UNL     1       2.305   6.260  20.076  0.00  0.00    +0.000 N 
ATOM     10  C   UNL     1       1.564   7.406  20.250  0.00  0.00    +0.000 A 
ATOM     11  N   UNL     1       0.598   7.563  21.150  0.00  0.00    +0.000 NA
ATOM     12  C   UNL     1       0.021   8.805  21.202  0.00  0.00    +0.000 A 
ATOM     13  C   UNL     1       0.413   9.892  20.445  0.00  0.00    +0.000 A 
ATOM     14  C   UNL     1       1.333   9.592  19.491  0.00  0.00    +0.000 A 
ATOM     15  N   UNL     1       1.898   8.395  19.404  0.00  0.00    +0.000 NA
ATOM     16  C   UNL     1       3.073   6.274  18.862  0.00  0.00    +0.000 C 
ENDROOT
BRANCH   1  17
ATOM     17  O   UNL     1       4.195   4.080  16.365  0.00  0.00    +0.000 OA
BRANCH  17  19
ATOM     18  C   UNL     1       6.544   4.493  17.060  0.00  0.00    +0.000 C 
ATOM     19  C   UNL     1       5.468   4.720  16.005  0.00  0.00    +0.000 C 
ATOM     20  C   UNL     1       5.236   6.196  15.698  0.00  0.00    +0.000 C 
ATOM     21  C   UNL     1       6.006   4.055  14.701  0.00  0.00    +0.000 C 
ENDBRANCH  17  19
ENDBRANCH   1  17
BRANCH  13  22
ATOM     22  O   UNL     1      -0.053  11.149  20.681  0.00  0.00    +0.000 OA
BRANCH  22  23
ATOM     23  C   UNL     1      -0.477  11.323  22.050  0.00  0.00    +0.000 C 
BRANCH  23  24
ATOM     24  C   UNL     1      -1.822  11.991  22.145  0.00  0.00    +0.000 A 
ATOM     25  C   UNL     1      -2.518  12.388  20.993  0.00  0.00    +0.000 A 
ATOM     26  C   UNL     1      -3.785  12.958  21.095  0.00  0.00    +0.000 A 
ATOM     27  C   UNL     1      -4.369  13.107  22.354  0.00  0.00    +0.000 A 
ATOM     28  C   UNL     1      -3.699  12.701  23.511  0.00  0.00    +0.000 A 
ATOM     29  C   UNL     1      -2.433  12.132  23.402  0.00  0.00    +0.000 A 
BRANCH  27  30
ATOM     30  S   UNL     1      -5.960  13.877  22.498  0.00  0.00    +0.000 S 
ATOM     31  C   UNL     1      -6.445  14.133  20.804  0.00  0.00    +0.000 C 
ATOM     32  O   UNL     1      -6.862  12.900  23.081  0.00  0.00    +0.000 OA
ATOM     33  O   UNL     1      -5.769  15.174  23.116  0.00  0.00    +0.000 OA
ENDBRANCH  27  30
ENDBRANCH  23  24
ENDBRANCH  22  23
ENDBRANCH  13  22
TORSDOF 6
ENDMDL
MODEL 8
REMARK VINA RESULT:      -7.9      3.073      4.347
REMARK  Name = 
REMARK  10 active torsions:
REMARK  status: ('A' for Active; 'I' for Inactive)
REMARK    1  A    between atoms: C_1  and  C_2
REMARK    2  A    between atoms: C_2  and  C_3
REMARK    3  A    between atoms: C_2  and  C_4
REMARK    4  A    between atoms: C_2  and  O_5
REMARK    5  A    between atoms: O_5  and  C_6
REMARK    6  A    between atoms: C_18  and  O_19
REMARK    7  A    between atoms: O_19  and  C_20
REMARK    8  A    between atoms: C_20  and  C_21
REMARK    9  A    between atoms: C_24  and  S_25
REMARK   10  A    between atoms: S_25  and  C_26
REMARK                            x       y       z     vdW  Elec       q    Type
REMARK                         _______ _______ _______ _____ _____    ______ ____
ROOT
ATOM      1  C   UNL     1       4.017   3.323  17.565  0.00  0.00    +0.000 C 
ATOM      2  O   UNL     1       4.155   2.109  17.644  0.00  0.00    +0.000 OA
ATOM      3  N   UNL     1       3.490   4.142  18.562  0.00  0.00    +0.000 N 
ATOM      4  C   UNL     1       2.630   5.137  18.015  0.00  0.00    +0.000 C 
ATOM      5  C   UNL     1       1.282   4.373  18.176  0.00  0.00    +0.000 C 
ATOM      6  C   UNL     1       1.407   3.495  19.437  0.00  0.00    +0.000 C 
ATOM      7  C   UNL     1       2.817   3.845  19.905  0.00  0.00    +0.000 C 
ATOM      8  C   UNL     1       2.532   5.181  20.860  0.00  0.00    +0.000 C 
ATOM      9  N   UNL     1       2.334   6.376  20.030  0.00  0.00    +0.000 N 
ATOM     10  C   UNL     1       1.575   7.516  20.158  0.00  0.00    +0.000 A 
ATOM     11  N   UNL     1       0.615   7.699  21.060  0.00  0.00    +0.000 NA
ATOM     12  C   UNL     1       0.017   8.932  21.060  0.00  0.00    +0.000 A 
ATOM     13  C   UNL     1       0.382   9.988  20.247  0.00  0.00    +0.000 A 
ATOM     14  C   UNL     1       1.298   9.659  19.299  0.00  0.00    +0.000 A 
ATOM     15  N   UNL     1       1.882   8.469  19.262  0.00  0.00    +0.000 NA
ATOM     16  C   UNL     1       3.090   6.346  18.807  0.00  0.00    +0.000 C 
ENDROOT
BRANCH   1  17
ATOM     17  O   UNL     1       4.224   4.055  16.405  0.00  0.00    +0.000 OA
BRANCH  17  19
ATOM     18  C   UNL     1       6.614   4.411  16.981  0.00  0.00    +0.000 C 
ATOM     19  C   UNL     1       5.491   4.669  15.984  0.00  0.00    +0.000 C 
ATOM     20  C   UNL     1       5.278   6.153  15.698  0.00  0.00    +0.000 C 
ATOM     21  C   UNL     1       5.947   4.002  14.650  0.00  0.00    +0.000 C 
ENDBRANCH  17  19
ENDBRANCH   1  17
BRANCH  13  22
ATOM     22  O   UNL     1      -0.104  11.247  20.429  0.00  0.00    +0.000 OA
BRANCH  22  23
ATOM     23  C   UNL     1      -0.481  11.868  19.181  0.00  0.00    +0.000 C 
BRANCH  23  24
ATOM     24  C   UNL     1       0.100  13.249  19.038  0.00  0.00    +0.000 A 
ATOM     25  C   UNL     1      -0.634  14.387  19.408  0.00  0.00    +0.000 A 
ATOM     26  C   UNL     1      -0.063  15.654  19.318  0.00  0.00    +0.000 A 
ATOM     27  C   UNL     1       1.256  15.782  18.883  0.00  0.00    +0.000 A 
ATOM     28  C   UNL     1       2.009  14.660  18.528  0.00  0.00    +0.000 A 
ATOM     29  C   UNL     1       1.433  13.395  18.619  0.00  0.00    +0.000 A 
BRANCH  27  30
ATOM     30  S   UNL     1       1.974  17.395  18.719  0.00  0.00    +0.000 S 
ATOM     31  C   UNL     1       1.197  18.041  17.253  0.00  0.00    +0.000 C 
ATOM     32  O   UNL     1       1.525  18.186  19.851  0.00  0.00    +0.000 OA
ATOM     33  O   UNL     1       3.387  17.224  18.446  0.00  0.00    +0.000 OA
ENDBRANCH  27  30
ENDBRANCH  23  24
ENDBRANCH  22  23
ENDBRANCH  13  22
TORSDOF 6
ENDMDL
MODEL 9
REMARK VINA RESULT:      -7.8      1.955      2.499
REMARK  Name = 
REMARK  10 active torsions:
REMARK  status: ('A' for Active; 'I' for Inactive)
REMARK    1  A    between atoms: C_1  and  C_2
REMARK    2  A    between atoms: C_2  and  C_3
REMARK    3  A    between atoms: C_2  and  C_4
REMARK    4  A    between atoms: C_2  and  O_5
REMARK    5  A    between atoms: O_5  and  C_6
REMARK    6  A    between atoms: C_18  and  O_19
REMARK    7  A    between atoms: O_19  and  C_20
REMARK    8  A    between atoms: C_20  and  C_21
REMARK    9  A    between atoms: C_24  and  S_25
REMARK   10  A    between atoms: S_25  and  C_26
REMARK                            x       y       z     vdW  Elec       q    Type
REMARK                         _______ _______ _______ _____ _____    ______ ____
ROOT
ATOM      1  C   UNL     1       3.974   3.263  17.568  0.00  0.00    +0.000 C 
ATOM      2  O   UNL     1       4.093   2.044  17.558  0.00  0.00    +0.000 OA
ATOM      3  N   UNL     1       3.449   4.014  18.618  0.00  0.00    +0.000 N 
ATOM      4  C   UNL     1       2.610   5.061  18.138  0.00  0.00    +0.000 C 
ATOM      5  C   UNL     1       1.249   4.308  18.227  0.00  0.00    +0.000 C 
ATOM      6  C   UNL     1       1.347   3.338  19.421  0.00  0.00    +0.000 C 
ATOM      7  C   UNL     1       2.756   3.629  19.928  0.00  0.00    +0.000 C 
ATOM      8  C   UNL     1       2.480   4.894  20.977  0.00  0.00    +0.000 C 
ATOM      9  N   UNL     1       2.310   6.151  20.236  0.00  0.00    +0.000 N 
ATOM     10  C   UNL     1       1.567   7.291  20.440  0.00  0.00    +0.000 A 
ATOM     11  N   UNL     1       0.600   7.422  21.344  0.00  0.00    +0.000 NA
ATOM     12  C   UNL     1       0.021   8.660  21.429  0.00  0.00    +0.000 A 
ATOM     13  C   UNL     1       0.411   9.768  20.701  0.00  0.00    +0.000 A 
ATOM     14  C   UNL     1       1.333   9.495  19.740  0.00  0.00    +0.000 A 
ATOM     15  N   UNL     1       1.899   8.302  19.621  0.00  0.00    +0.000 NA
ATOM     16  C   UNL     1       3.079   6.200  19.022  0.00  0.00    +0.000 C 
ENDROOT
BRANCH   1  17
ATOM     17  O   UNL     1       4.206   4.076  16.468  0.00  0.00    +0.000 OA
BRANCH  17  19
ATOM     18  C   UNL     1       6.041   4.011  14.796  0.00  0.00    +0.000 C 
ATOM     19  C   UNL     1       5.501   4.647  16.071  0.00  0.00    +0.000 C 
ATOM     20  C   UNL     1       6.481   4.568  17.238  0.00  0.00    +0.000 C 
ATOM     21  C   UNL     1       5.296   6.157  15.739  0.00  0.00    +0.000 C 
ENDBRANCH  17  19
ENDBRANCH   1  17
BRANCH  13  22
ATOM     22  O   UNL     1      -0.057  11.018  20.971  0.00  0.00    +0.000 OA
BRANCH  22  23
ATOM     23  C   UNL     1      -0.676  11.096  22.273  0.00  0.00    +0.000 C 
BRANCH  23  24
ATOM     24  C   UNL     1      -1.936  11.919  22.253  0.00  0.00    +0.000 A 
ATOM     25  C   UNL     1      -2.437  12.448  21.053  0.00  0.00    +0.000 A 
ATOM     26  C   UNL     1      -3.632  13.163  21.043  0.00  0.00    +0.000 A 
ATOM     27  C   UNL     1      -4.342  13.328  22.233  0.00  0.00    +0.000 A 
ATOM     28  C   UNL     1      -3.868  12.793  23.434  0.00  0.00    +0.000 A 
ATOM     29  C   UNL     1      -2.672  12.079  23.438  0.00  0.00    +0.000 A 
BRANCH  27  30
ATOM     30  S   UNL     1      -5.838  14.279  22.238  0.00  0.00    +0.000 S 
ATOM     31  C   UNL     1      -5.514  15.543  23.449  0.00  0.00    +0.000 C 
ATOM     32  O   UNL     1      -5.949  14.919  20.940  0.00  0.00    +0.000 OA
ATOM     33  O   UNL     1      -6.900  13.430  22.741  0.00  0.00    +0.000 OA
ENDBRANCH  27  30
ENDBRANCH  23  24
ENDBRANCH  22  23
ENDBRANCH  13  22
TORSDOF 6
ENDMDL
