MODEL 1
REMARK VINA RESULT:      -7.1      0.000      0.000
REMARK  Name = 
REMARK  6 active torsions:
REMARK  status: ('A' for Active; 'I' for Inactive)
REMARK    1  A    between atoms: C_2  and  C_3
REMARK    2  A    between atoms: C_3  and  C_4
REMARK    3  A    between atoms: C_4  and  C_5
REMARK    4  A    between atoms: N_7  and  C_8
REMARK    5  A    between atoms: C_8  and  C_9
REMARK    6  A    between atoms: C_9  and  C_10
REMARK                            x       y       z     vdW  Elec       q    Type
REMARK                         _______ _______ _______ _____ _____    ______ ____
ROOT
ATOM      1  C   UNL     1       4.784   5.243  17.251  0.00  0.00    +0.000 C 
ATOM      2  O   UNL     1       4.457   4.142  17.687  0.00  0.00    +0.000 OA
ATOM      3  N   UNL     1       3.958   6.343  17.374  0.00  0.00    +0.000 N 
ATOM      4  H   UNL     1       4.202   7.213  16.919  0.00  0.00    +0.000 HD
ENDROOT
BRANCH   1   5
ATOM      5  C   UNL     1       6.143   5.498  16.559  0.00  0.00    +0.000 C 
ATOM      6  C   UNL     1       7.208   4.504  17.056  0.00  0.00    +0.000 C 
ATOM      7  C   UNL     1       7.732   5.093  18.361  0.00  0.00    +0.000 C 
ATOM      8  C   UNL     1       7.515   6.598  18.273  0.00  0.00    +0.000 C 
ATOM      9  C   UNL     1       6.746   6.854  16.980  0.00  0.00    +0.000 C 
BRANCH   5  10
ATOM     10  C   UNL     1       5.988   5.410  15.022  0.00  0.00    +0.000 C 
BRANCH  10  12
ATOM     11  C   UNL     1       6.143   3.708  13.178  0.00  0.00    +0.000 C 
ATOM     12  C   UNL     1       6.437   4.103  14.423  0.00  0.00    +0.000 C 
ENDBRANCH  10  12
ENDBRANCH   5  10
ENDBRANCH   1   5
BRANCH   3  13
ATOM     13  C   UNL     1       2.693   6.237  18.085  0.00  0.00    +0.000 C 
BRANCH  13  14
ATOM     14  C   UNL     1       2.865   6.171  19.603  0.00  0.00    +0.000 C 
BRANCH  14  15
ATOM     15  C   UNL     1       2.263   4.917  20.178  0.00  0.00    +0.000 A 
ATOM     16  C   UNL     1       1.333   4.162  19.462  0.00  0.00    +0.000 A 
ATOM     17  C   UNL     1       0.825   2.988  20.011  0.00  0.00    +0.000 A 
ATOM     18  C   UNL     1       1.268   2.603  21.264  0.00  0.00    +0.000 A 
ATOM     19  N   UNL     1       2.167   3.306  21.987  0.00  0.00    +0.000 NA
ATOM     20  C   UNL     1       2.645   4.440  21.429  0.00  0.00    +0.000 A 
ENDBRANCH  14  15
ENDBRANCH  13  14
ENDBRANCH   3  13
TORSDOF 6
ENDMDL
MODEL 2
REMARK VINA RESULT:      -7.1      1.577      3.145
REMARK  Name = 
REMARK  6 active torsions:
REMARK  status: ('A' for Active; 'I' for Inactive)
REMARK    1  A    between atoms: C_2  and  C_3
REMARK    2  A    between atoms: C_3  and  C_4
REMARK    3  A    between atoms: C_4  and  C_5
REMARK    4  A    between atoms: N_7  and  C_8
REMARK    5  A    between atoms: C_8  and  C_9
REMARK    6  A    between atoms: C_9  and  C_10
REMARK                            x       y       z     vdW  Elec       q    Type
REMARK                         _______ _______ _______ _____ _____    ______ ____
ROOT
ATOM      1  C   UNL     1       5.344   5.767  18.316  0.00  0.00    +0.000 C 
ATOM      2  O   UNL     1       5.267   4.982  19.259  0.00  0.00    +0.000 OA
ATOM      3  N   UNL     1       4.295   6.604  17.986  0.00  0.00    +0.000 N 
ATOM      4  H   UNL     1       4.341   7.166  17.147  0.00  0.00    +0.000 HD
ENDROOT
BRANCH   1   5
ATOM      5  C   UNL     1       6.614   5.907  17.445  0.00  0.00    +0.000 C 
ATOM      6  C   UNL     1       6.269   6.477  16.058  0.00  0.00    +0.000 C 
ATOM      7  C   UNL     1       5.804   5.282  15.234  0.00  0.00    +0.000 C 
ATOM      8  C   UNL     1       6.470   4.054  15.840  0.00  0.00    +0.000 C 
ATOM      9  C   UNL     1       7.208   4.528  17.089  0.00  0.00    +0.000 C 
BRANCH   5  10
ATOM     10  C   UNL     1       7.659   6.797  18.159  0.00  0.00    +0.000 C 
BRANCH  10  12
ATOM     11  C   UNL     1       8.399   9.199  18.194  0.00  0.00    +0.000 C 
ATOM     12  C   UNL     1       7.821   8.170  17.562  0.00  0.00    +0.000 C 
ENDBRANCH  10  12
ENDBRANCH   5  10
ENDBRANCH   1   5
BRANCH   3  13
ATOM     13  C   UNL     1       3.084   6.618  18.792  0.00  0.00    +0.000 C 
BRANCH  13  14
ATOM     14  C   UNL     1       1.901   5.935  18.106  0.00  0.00    +0.000 C 
BRANCH  14  15
ATOM     15  C   UNL     1       1.879   4.455  18.375  0.00  0.00    +0.000 A 
ATOM     16  C   UNL     1       2.451   3.545  17.485  0.00  0.00    +0.000 A 
ATOM     17  C   UNL     1       2.444   2.186  17.784  0.00  0.00    +0.000 A 
ATOM     18  C   UNL     1       1.865   1.778  18.972  0.00  0.00    +0.000 A 
ATOM     19  N   UNL     1       1.303   2.627  19.859  0.00  0.00    +0.000 NA
ATOM     20  C   UNL     1       1.326   3.941  19.545  0.00  0.00    +0.000 A 
ENDBRANCH  14  15
ENDBRANCH  13  14
ENDBRANCH   3  13
TORSDOF 6
ENDMDL
MODEL 3
REMARK VINA RESULT:      -7.0      1.561      5.988
REMARK  Name = 
REMARK  6 active torsions:
REMARK  status: ('A' for Active; 'I' for Inactive)
REMARK    1  A    between atoms: C_2  and  C_3
REMARK    2  A    between atoms: C_3  and  C_4
REMARK    3  A    between atoms: C_4  and  C_5
REMARK    4  A    between atoms: N_7  and  C_8
REMARK    5  A    between atoms: C_8  and  C_9
REMARK    6  A    between atoms: C_9  and  C_10
REMARK                            x       y       z     vdW  Elec       q    Type
REMARK                         _______ _______ _______ _____ _____    ______ ____
ROOT
ATOM      1  C   UNL     1       4.022   4.507  19.041  0.00  0.00    +0.000 C 
ATOM      2  O   UNL     1       4.376   3.360  18.778  0.00  0.00    +0.000 OA
ATOM      3  N   UNL     1       4.929   5.467  19.448  0.00  0.00    +0.000 N 
ATOM      4  H   UNL     1       4.602   6.372  19.756  0.00  0.00    +0.000 HD
ENDROOT
BRANCH   1   5
ATOM      5  C   UNL     1       2.555   4.979  18.914  0.00  0.00    +0.000 C 
ATOM      6  C   UNL     1       1.994   5.404  20.282  0.00  0.00    +0.000 C 
ATOM      7  C   UNL     1       1.547   4.111  20.954  0.00  0.00    +0.000 C 
ATOM      8  C   UNL     1       1.227   3.130  19.833  0.00  0.00    +0.000 C 
ATOM      9  C   UNL     1       1.619   3.816  18.527  0.00  0.00    +0.000 C 
BRANCH   5  10
ATOM     10  C   UNL     1       2.452   6.140  17.895  0.00  0.00    +0.000 C 
BRANCH  10  12
ATOM     11  C   UNL     1       2.026   8.617  17.846  0.00  0.00    +0.000 C 
ATOM     12  C   UNL     1       2.364   7.509  18.517  0.00  0.00    +0.000 C 
ENDBRANCH  10  12
ENDBRANCH   5  10
ENDBRANCH   1   5
BRANCH   3  13
ATOM     13  C   UNL     1       6.348   5.154  19.518  0.00  0.00    +0.000 C 
BRANCH  13  14
ATOM     14  C   UNL     1       7.178   5.914  18.483  0.00  0.00    +0.000 C 
BRANCH  14  15
ATOM     15  C   UNL     1       6.713   5.633  17.080  0.00  0.00    +0.000 A 
ATOM     16  C   UNL     1       7.087   4.467  16.409  0.00  0.00    +0.000 A 
ATOM     17  C   UNL     1       6.608   4.223  15.126  0.00  0.00    +0.000 A 
ATOM     18  C   UNL     1       5.763   5.157  14.551  0.00  0.00    +0.000 A 
ATOM     19  N   UNL     1       5.378   6.295  15.167  0.00  0.00    +0.000 NA
ATOM     20  C   UNL     1       5.856   6.505  16.414  0.00  0.00    +0.000 A 
ENDBRANCH  14  15
ENDBRANCH  13  14
ENDBRANCH   3  13
TORSDOF 6
ENDMDL
MODEL 4
REMARK VINA RESULT:      -7.0      1.652      3.226
REMARK  Name = 
REMARK  6 active torsions:
REMARK  status: ('A' for Active; 'I' for Inactive)
REMARK    1  A    between atoms: C_2  and  C_3
REMARK    2  A    between atoms: C_3  and  C_4
REMARK    3  A    between atoms: C_4  and  C_5
REMARK    4  A    between atoms: N_7  and  C_8
REMARK    5  A    between atoms: C_8  and  C_9
REMARK    6  A    between atoms: C_9  and  C_10
REMARK                            x       y       z     vdW  Elec       q    Type
REMARK                         _______ _______ _______ _____ _____    ______ ____
ROOT
ATOM      1  C   UNL     1       5.369   5.873  18.306  0.00  0.00    +0.000 C 
ATOM      2  O   UNL     1       5.304   5.214  19.342  0.00  0.00    +0.000 OA
ATOM      3  N   UNL     1       4.294   6.614  17.853  0.00  0.00    +0.000 N 
ATOM      4  H   UNL     1       4.336   7.063  16.948  0.00  0.00    +0.000 HD
ENDROOT
BRANCH   1   5
ATOM      5  C   UNL     1       6.650   5.951  17.444  0.00  0.00    +0.000 C 
ATOM      6  C   UNL     1       6.331   6.471  16.032  0.00  0.00    +0.000 C 
ATOM      7  C   UNL     1       5.850   5.253  15.251  0.00  0.00    +0.000 C 
ATOM      8  C   UNL     1       6.486   4.037  15.914  0.00  0.00    +0.000 C 
ATOM      9  C   UNL     1       7.220   4.548  17.151  0.00  0.00    +0.000 C 
BRANCH   5  10
ATOM     10  C   UNL     1       7.706   6.849  18.133  0.00  0.00    +0.000 C 
BRANCH  10  12
ATOM     11  C   UNL     1       8.426   9.256  18.193  0.00  0.00    +0.000 C 
ATOM     12  C   UNL     1       7.786   8.249  17.585  0.00  0.00    +0.000 C 
ENDBRANCH  10  12
ENDBRANCH   5  10
ENDBRANCH   1   5
BRANCH   3  13
ATOM     13  C   UNL     1       3.068   6.681  18.632  0.00  0.00    +0.000 C 
BRANCH  13  14
ATOM     14  C   UNL     1       1.907   5.926  17.985  0.00  0.00    +0.000 C 
BRANCH  14  15
ATOM     15  C   UNL     1       1.876   4.483  18.410  0.00  0.00    +0.000 A 
ATOM     16  C   UNL     1       1.264   4.087  19.601  0.00  0.00    +0.000 A 
ATOM     17  C   UNL     1       1.223   2.739  19.944  0.00  0.00    +0.000 A 
ATOM     18  C   UNL     1       1.796   1.824  19.079  0.00  0.00    +0.000 A 
ATOM     19  N   UNL     1       2.396   2.166  17.919  0.00  0.00    +0.000 NA
ATOM     20  C   UNL     1       2.419   3.481  17.610  0.00  0.00    +0.000 A 
ENDBRANCH  14  15
ENDBRANCH  13  14
ENDBRANCH   3  13
TORSDOF 6
ENDMDL
MODEL 5
REMARK VINA RESULT:      -7.0      1.084      1.414
REMARK  Name = 
REMARK  6 active torsions:
REMARK  status: ('A' for Active; 'I' for Inactive)
REMARK    1  A    between atoms: C_2  and  C_3
REMARK    2  A    between atoms: C_3  and  C_4
REMARK    3  A    between atoms: C_4  and  C_5
REMARK    4  A    between atoms: N_7  and  C_8
REMARK    5  A    between atoms: C_8  and  C_9
REMARK    6  A    between atoms: C_9  and  C_10
REMARK                            x       y       z     vdW  Elec       q    Type
REMARK                         _______ _______ _______ _____ _____    ______ ____
ROOT
ATOM      1  C   UNL     1       5.130   5.756  18.015  0.00  0.00    +0.000 C 
ATOM      2  O   UNL     1       5.052   5.146  19.079  0.00  0.00    +0.000 OA
ATOM      3  N   UNL     1       4.056   6.461  17.505  0.00  0.00    +0.000 N 
ATOM      4  H   UNL     1       4.111   6.868  16.582  0.00  0.00    +0.000 HD
ENDROOT
BRANCH   1   5
ATOM      5  C   UNL     1       6.428   5.812  17.177  0.00  0.00    +0.000 C 
ATOM      6  C   UNL     1       7.440   4.758  17.660  0.00  0.00    +0.000 C 
ATOM      7  C   UNL     1       8.150   5.395  18.849  0.00  0.00    +0.000 C 
ATOM      8  C   UNL     1       8.067   6.903  18.644  0.00  0.00    +0.000 C 
ATOM      9  C   UNL     1       7.196   7.129  17.412  0.00  0.00    +0.000 C 
BRANCH   5  10
ATOM     10  C   UNL     1       6.107   5.614  15.676  0.00  0.00    +0.000 C 
BRANCH  10  12
ATOM     11  C   UNL     1       6.213   3.798  13.940  0.00  0.00    +0.000 C 
ATOM     12  C   UNL     1       6.114   4.178  15.220  0.00  0.00    +0.000 C 
ENDBRANCH  10  12
ENDBRANCH   5  10
ENDBRANCH   1   5
BRANCH   3  13
ATOM     13  C   UNL     1       2.812   6.548  18.255  0.00  0.00    +0.000 C 
BRANCH  13  14
ATOM     14  C   UNL     1       1.830   5.427  17.916  0.00  0.00    +0.000 C 
BRANCH  14  15
ATOM     15  C   UNL     1       1.794   4.374  18.991  0.00  0.00    +0.000 A 
ATOM     16  C   UNL     1       1.797   4.716  20.344  0.00  0.00    +0.000 A 
ATOM     17  C   UNL     1       1.725   3.717  21.311  0.00  0.00    +0.000 A 
ATOM     18  C   UNL     1       1.650   2.401  20.890  0.00  0.00    +0.000 A 
ATOM     19  N   UNL     1       1.643   2.030  19.592  0.00  0.00    +0.000 NA
ATOM     20  C   UNL     1       1.711   3.021  18.675  0.00  0.00    +0.000 A 
ENDBRANCH  14  15
ENDBRANCH  13  14
ENDBRANCH   3  13
TORSDOF 6
ENDMDL
MODEL 6
REMARK VINA RESULT:      -6.9      1.597      5.938
REMARK  Name = 
REMARK  6 active torsions:
REMARK  status: ('A' for Active; 'I' for Inactive)
REMARK    1  A    between atoms: C_2  and  C_3
REMARK    2  A    between atoms: C_3  and  C_4
REMARK    3  A    between atoms: C_4  and  C_5
REMARK    4  A    between atoms: N_7  and  C_8
REMARK    5  A    between atoms: C_8  and  C_9
REMARK    6  A    between atoms: C_9  and  C_10
REMARK                            x       y       z     vdW  Elec       q    Type
REMARK                         _______ _______ _______ _____ _____    ______ ____
ROOT
ATOM      1  C   UNL     1       4.036   4.464  19.006  0.00  0.00    +0.000 C 
ATOM      2  O   UNL     1       4.434   3.366  18.621  0.00  0.00    +0.000 OA
ATOM      3  N   UNL     1       4.912   5.426  19.472  0.00  0.00    +0.000 N 
ATOM      4  H   UNL     1       4.555   6.280  19.877  0.00  0.00    +0.000 HD
ENDROOT
BRANCH   1   5
ATOM      5  C   UNL     1       2.545   4.871  18.976  0.00  0.00    +0.000 C 
ATOM      6  C   UNL     1       2.066   5.305  20.372  0.00  0.00    +0.000 C 
ATOM      7  C   UNL     1       1.725   4.011  21.103  0.00  0.00    +0.000 C 
ATOM      8  C   UNL     1       1.368   2.991  20.029  0.00  0.00    +0.000 C 
ATOM      9  C   UNL     1       1.635   3.660  18.684  0.00  0.00    +0.000 C 
BRANCH   5  10
ATOM     10  C   UNL     1       2.318   6.001  17.943  0.00  0.00    +0.000 C 
BRANCH  10  12
ATOM     11  C   UNL     1       2.302   8.509  17.778  0.00  0.00    +0.000 C 
ATOM     12  C   UNL     1       2.473   7.393  18.497  0.00  0.00    +0.000 C 
ENDBRANCH  10  12
ENDBRANCH   5  10
ENDBRANCH   1   5
BRANCH   3  13
ATOM     13  C   UNL     1       6.346   5.181  19.462  0.00  0.00    +0.000 C 
BRANCH  13  14
ATOM     14  C   UNL     1       7.076   5.953  18.364  0.00  0.00    +0.000 C 
BRANCH  14  15
ATOM     15  C   UNL     1       6.599   5.558  16.992  0.00  0.00    +0.000 A 
ATOM     16  C   UNL     1       5.674   6.333  16.292  0.00  0.00    +0.000 A 
ATOM     17  C   UNL     1       5.282   5.956  15.011  0.00  0.00    +0.000 A 
ATOM     18  C   UNL     1       5.834   4.809  14.467  0.00  0.00    +0.000 A 
ATOM     19  N   UNL     1       6.731   4.033  15.112  0.00  0.00    +0.000 NA
ATOM     20  C   UNL     1       7.095   4.425  16.353  0.00  0.00    +0.000 A 
ENDBRANCH  14  15
ENDBRANCH  13  14
ENDBRANCH   3  13
TORSDOF 6
ENDMDL
MODEL 7
REMARK VINA RESULT:      -6.9      0.884      1.210
REMARK  Name = 
REMARK  6 active torsions:
REMARK  status: ('A' for Active; 'I' for Inactive)
REMARK    1  A    between atoms: C_2  and  C_3
REMARK    2  A    between atoms: C_3  and  C_4
REMARK    3  A    between atoms: C_4  and  C_5
REMARK    4  A    between atoms: N_7  and  C_8
REMARK    5  A    between atoms: C_8  and  C_9
REMARK    6  A    between atoms: C_9  and  C_10
REMARK                            x       y       z     vdW  Elec       q    Type
REMARK                         _______ _______ _______ _____ _____    ______ ____
ROOT
ATOM      1  C   UNL     1       5.328   5.454  18.188  0.00  0.00    +0.000 C 
ATOM      2  O   UNL     1       5.119   4.758  19.179  0.00  0.00    +0.000 OA
ATOM      3  N   UNL     1       4.390   6.360  17.731  0.00  0.00    +0.000 N 
ATOM      4  H   UNL     1       4.541   6.846  16.857  0.00  0.00    +0.000 HD
ENDROOT
BRANCH   1   5
ATOM      5  C   UNL     1       6.651   5.397  17.391  0.00  0.00    +0.000 C 
ATOM      6  C   UNL     1       7.856   5.251  18.337  0.00  0.00    +0.000 C 
ATOM      7  C   UNL     1       8.172   6.665  18.811  0.00  0.00    +0.000 C 
ATOM      8  C   UNL     1       7.670   7.607  17.724  0.00  0.00    +0.000 C 
ATOM      9  C   UNL     1       6.949   6.741  16.694  0.00  0.00    +0.000 C 
BRANCH   5  10
ATOM     10  C   UNL     1       6.614   4.236  16.369  0.00  0.00    +0.000 C 
BRANCH  10  12
ATOM     11  C   UNL     1       6.285   4.053  13.883  0.00  0.00    +0.000 C 
ATOM     12  C   UNL     1       5.937   4.574  15.066  0.00  0.00    +0.000 C 
ENDBRANCH  10  12
ENDBRANCH   5  10
ENDBRANCH   1   5
BRANCH   3  13
ATOM     13  C   UNL     1       3.145   6.557  18.456  0.00  0.00    +0.000 C 
BRANCH  13  14
ATOM     14  C   UNL     1       2.038   5.600  18.015  0.00  0.00    +0.000 C 
BRANCH  14  15
ATOM     15  C   UNL     1       1.770   4.543  19.052  0.00  0.00    +0.000 A 
ATOM     16  C   UNL     1       1.344   3.263  18.695  0.00  0.00    +0.000 A 
ATOM     17  C   UNL     1       1.141   2.300  19.679  0.00  0.00    +0.000 A 
ATOM     18  C   UNL     1       1.374   2.650  20.997  0.00  0.00    +0.000 A 
ATOM     19  N   UNL     1       1.786   3.876  21.383  0.00  0.00    +0.000 NA
ATOM     20  C   UNL     1       1.978   4.790  20.407  0.00  0.00    +0.000 A 
ENDBRANCH  14  15
ENDBRANCH  13  14
ENDBRANCH   3  13
TORSDOF 6
ENDMDL
MODEL 8
REMARK VINA RESULT:      -6.9      3.961      7.256
REMARK  Name = 
REMARK  6 active torsions:
REMARK  status: ('A' for Active; 'I' for Inactive)
REMARK    1  A    between atoms: C_2  and  C_3
REMARK    2  A    between atoms: C_3  and  C_4
REMARK    3  A    between atoms: C_4  and  C_5
REMARK    4  A    between atoms: N_7  and  C_8
REMARK    5  A    between atoms: C_8  and  C_9
REMARK    6  A    between atoms: C_9  and  C_10
REMARK                            x       y       z     vdW  Elec       q    Type
REMARK                         _______ _______ _______ _____ _____    ______ ____
ROOT
ATOM      1  C   UNL     1       7.121   6.361  17.682  0.00  0.00    +0.000 C 
ATOM      2  O   UNL     1       7.678   5.807  18.628  0.00  0.00    +0.000 OA
ATOM      3  N   UNL     1       7.383   7.679  17.361  0.00  0.00    +0.000 N 
ATOM      4  H   UNL     1       6.839   8.142  16.645  0.00  0.00    +0.000 HD
ENDROOT
BRANCH   1   5
ATOM      5  C   UNL     1       6.112   5.633  16.765  0.00  0.00    +0.000 C 
ATOM      6  C   UNL     1       5.076   6.619  16.196  0.00  0.00    +0.000 C 
ATOM      7  C   UNL     1       4.019   6.768  17.284  0.00  0.00    +0.000 C 
ATOM      8  C   UNL     1       4.056   5.483  18.100  0.00  0.00    +0.000 C 
ATOM      9  C   UNL     1       5.223   4.657  17.564  0.00  0.00    +0.000 C 
BRANCH   5  10
ATOM     10  C   UNL     1       6.856   4.901  15.622  0.00  0.00    +0.000 C 
BRANCH  10  12
ATOM     11  C   UNL     1       6.236   3.858  13.421  0.00  0.00    +0.000 C 
ATOM     12  C   UNL     1       5.965   4.100  14.710  0.00  0.00    +0.000 C 
ENDBRANCH  10  12
ENDBRANCH   5  10
ENDBRANCH   1   5
BRANCH   3  13
ATOM     13  C   UNL     1       8.381   8.432  18.104  0.00  0.00    +0.000 C 
BRANCH  13  14
ATOM     14  C   UNL     1       8.228   9.945  17.946  0.00  0.00    +0.000 C 
BRANCH  14  15
ATOM     15  C   UNL     1       9.345  10.692  18.623  0.00  0.00    +0.000 A 
ATOM     16  C   UNL     1      10.379  11.277  17.890  0.00  0.00    +0.000 A 
ATOM     17  C   UNL     1      11.376  11.991  18.547  0.00  0.00    +0.000 A 
ATOM     18  C   UNL     1      11.306  12.100  19.924  0.00  0.00    +0.000 A 
ATOM     19  N   UNL     1      10.323  11.550  20.669  0.00  0.00    +0.000 NA
ATOM     20  C   UNL     1       9.366  10.864  20.004  0.00  0.00    +0.000 A 
ENDBRANCH  14  15
ENDBRANCH  13  14
ENDBRANCH   3  13
TORSDOF 6
ENDMDL
MODEL 9
REMARK VINA RESULT:      -6.9      1.550      1.749
REMARK  Name = 
REMARK  6 active torsions:
REMARK  status: ('A' for Active; 'I' for Inactive)
REMARK    1  A    between atoms: C_2  and  C_3
REMARK    2  A    between atoms: C_3  and  C_4
REMARK    3  A    between atoms: C_4  and  C_5
REMARK    4  A    between atoms: N_7  and  C_8
REMARK    5  A    between atoms: C_8  and  C_9
REMARK    6  A    between atoms: C_9  and  C_10
REMARK                            x       y       z     vdW  Elec       q    Type
REMARK                         _______ _______ _______ _____ _____    ______ ____
ROOT
ATOM      1  C   UNL     1       4.895   5.066  16.832  0.00  0.00    +0.000 C 
ATOM      2  O   UNL     1       4.109   5.885  17.304  0.00  0.00    +0.000 OA
ATOM      3  N   UNL     1       4.558   3.732  16.706  0.00  0.00    +0.000 N 
ATOM      4  H   UNL     1       5.255   3.061  16.411  0.00  0.00    +0.000 HD
ENDROOT
BRANCH   1   5
ATOM      5  C   UNL     1       6.299   5.456  16.317  0.00  0.00    +0.000 C 
ATOM      6  C   UNL     1       7.368   4.485  16.847  0.00  0.00    +0.000 C 
ATOM      7  C   UNL     1       7.713   4.986  18.245  0.00  0.00    +0.000 C 
ATOM      8  C   UNL     1       7.408   6.478  18.255  0.00  0.00    +0.000 C 
ATOM      9  C   UNL     1       6.764   6.803  16.910  0.00  0.00    +0.000 C 
BRANCH   5  10
ATOM     10  C   UNL     1       6.312   5.494  14.770  0.00  0.00    +0.000 C 
BRANCH  10  12
ATOM     11  C   UNL     1       5.987   3.677  13.064  0.00  0.00    +0.000 C 
ATOM     12  C   UNL     1       6.645   4.178  14.117  0.00  0.00    +0.000 C 
ENDBRANCH  10  12
ENDBRANCH   5  10
ENDBRANCH   1   5
BRANCH   3  13
ATOM     13  C   UNL     1       3.230   3.271  17.079  0.00  0.00    +0.000 C 
BRANCH  13  14
ATOM     14  C   UNL     1       3.258   2.079  18.036  0.00  0.00    +0.000 C 
BRANCH  14  15
ATOM     15  C   UNL     1       2.657   2.424  19.372  0.00  0.00    +0.000 A 
ATOM     16  C   UNL     1       1.330   2.838  19.488  0.00  0.00    +0.000 A 
ATOM     17  C   UNL     1       0.798   3.114  20.745  0.00  0.00    +0.000 A 
ATOM     18  C   UNL     1       1.615   2.963  21.851  0.00  0.00    +0.000 A 
ATOM     19  N   UNL     1       2.903   2.564  21.780  0.00  0.00    +0.000 NA
ATOM     20  C   UNL     1       3.392   2.300  20.548  0.00  0.00    +0.000 A 
ENDBRANCH  14  15
ENDBRANCH  13  14
ENDBRANCH   3  13
TORSDOF 6
ENDMDL
