MODEL 1
REMARK VINA RESULT:      -6.2      0.000      0.000
REMARK  Name = 
REMARK  5 active torsions:
REMARK  status: ('A' for Active; 'I' for Inactive)
REMARK    1  A    between atoms: N_1  and  CA_2
REMARK    2  A    between atoms: CA_2  and  C_3
REMARK    3  A    between atoms: CA_2  and  C_11
REMARK    4  A    between atoms: C_3  and  C_4
REMARK    5  A    between atoms: C_11  and  OXT_13
REMARK                            x       y       z     vdW  Elec       q    Type
REMARK                         _______ _______ _______ _____ _____    ______ ____
ROOT
ATOM      1  CA  UNL     1       6.207   4.824  18.500  0.00  0.00    +0.000 C 
ENDROOT
BRANCH   1   2
ATOM      2  N   UNL     1       6.798   5.333  19.763  0.00  0.00    +0.000 NA
ATOM      3  H1  UNL     1       7.392   6.162  19.655  0.00  0.00    +0.000 HD
ATOM      4  H2  UNL     1       6.998   4.765  20.588  0.00  0.00    +0.000 HD
ENDBRANCH   1   2
BRANCH   1   5
ATOM      5  C   UNL     1       7.320   4.923  17.455  0.00  0.00    +0.000 C 
ATOM      6  O   UNL     1       7.339   5.712  16.522  0.00  0.00    +0.000 OA
BRANCH   5   7
ATOM      7  OXT UNL     1       8.282   3.992  17.684  0.00  0.00    +0.000 OA
ATOM      8  HXT UNL     1       8.309   3.836  18.666  0.00  0.00    +0.000 HD
ENDBRANCH   5   7
ENDBRANCH   1   5
BRANCH   1   9
ATOM      9  C   UNL     1       4.702   5.036  17.983  0.00  0.00    +0.000 C 
BRANCH   9  10
ATOM     10  C   UNL     1       3.311   4.769  18.590  0.00  0.00    +0.000 A 
ATOM     11  C   UNL     1       2.969   5.422  19.814  0.00  0.00    +0.000 A 
ATOM     12  C   UNL     1       1.848   5.058  20.589  0.00  0.00    +0.000 A 
ATOM     13  C   UNL     1       1.021   4.033  20.160  0.00  0.00    +0.000 A 
ATOM     14  C   UNL     1       1.312   3.410  18.950  0.00  0.00    +0.000 A 
ATOM     15  F   UNL     1       0.514   2.414  18.541  0.00  0.00    +0.000 F 
ATOM     16  C   UNL     1       2.437   3.762  18.170  0.00  0.00    +0.000 A 
ENDBRANCH   9  10
ENDBRANCH   1   9
TORSDOF 5
ENDMDL
MODEL 2
REMARK VINA RESULT:      -6.1      1.526      1.941
REMARK  Name = 
REMARK  5 active torsions:
REMARK  status: ('A' for Active; 'I' for Inactive)
REMARK    1  A    between atoms: N_1  and  CA_2
REMARK    2  A    between atoms: CA_2  and  C_3
REMARK    3  A    between atoms: CA_2  and  C_11
REMARK    4  A    between atoms: C_3  and  C_4
REMARK    5  A    between atoms: C_11  and  OXT_13
REMARK                            x       y       z     vdW  Elec       q    Type
REMARK                         _______ _______ _______ _____ _____    ______ ____
ROOT
ATOM      1  CA  UNL     1       6.899   5.141  19.167  0.00  0.00    +0.000 C 
ENDROOT
BRANCH   1   2
ATOM      2  N   UNL     1       7.920   5.625  20.131  0.00  0.00    +0.000 NA
ATOM      3  H1  UNL     1       8.212   4.933  20.830  0.00  0.00    +0.000 HD
ATOM      4  H2  UNL     1       8.048   6.598  20.410  0.00  0.00    +0.000 HD
ENDBRANCH   1   2
BRANCH   1   5
ATOM      5  C   UNL     1       7.540   5.280  17.785  0.00  0.00    +0.000 C 
ATOM      6  O   UNL     1       7.534   6.297  17.108  0.00  0.00    +0.000 OA
BRANCH   5   7
ATOM      7  OXT UNL     1       8.096   4.105  17.389  0.00  0.00    +0.000 OA
ATOM      8  HXT UNL     1       7.886   3.994  16.425  0.00  0.00    +0.000 HD
ENDBRANCH   5   7
ENDBRANCH   1   5
BRANCH   1   9
ATOM      9  C   UNL     1       5.310   5.347  19.258  0.00  0.00    +0.000 C 
BRANCH   9  10
ATOM     10  C   UNL     1       4.093   4.473  18.900  0.00  0.00    +0.000 A 
ATOM     11  C   UNL     1       4.238   3.053  18.951  0.00  0.00    +0.000 A 
ATOM     12  C   UNL     1       3.291   2.164  18.399  0.00  0.00    +0.000 A 
ATOM     13  C   UNL     1       2.156   2.667  17.785  0.00  0.00    +0.000 A 
ATOM     14  C   UNL     1       1.973   4.046  17.760  0.00  0.00    +0.000 A 
ATOM     15  F   UNL     1       0.877   4.530  17.159  0.00  0.00    +0.000 F 
ATOM     16  C   UNL     1       2.919   4.944  18.303  0.00  0.00    +0.000 A 
ENDBRANCH   9  10
ENDBRANCH   1   9
TORSDOF 5
ENDMDL
MODEL 3
REMARK VINA RESULT:      -6.1      2.017      2.315
REMARK  Name = 
REMARK  5 active torsions:
REMARK  status: ('A' for Active; 'I' for Inactive)
REMARK    1  A    between atoms: N_1  and  CA_2
REMARK    2  A    between atoms: CA_2  and  C_3
REMARK    3  A    between atoms: CA_2  and  C_11
REMARK    4  A    between atoms: C_3  and  C_4
REMARK    5  A    between atoms: C_11  and  OXT_13
REMARK                            x       y       z     vdW  Elec       q    Type
REMARK                         _______ _______ _______ _____ _____    ______ ____
ROOT
ATOM      1  CA  UNL     1       6.612   5.791  16.998  0.00  0.00    +0.000 C 
ENDROOT
BRANCH   1   2
ATOM      2  N   UNL     1       7.369   5.754  15.721  0.00  0.00    +0.000 NA
ATOM      3  H1  UNL     1       8.384   5.649  15.827  0.00  0.00    +0.000 HD
ATOM      4  H2  UNL     1       7.071   6.195  14.850  0.00  0.00    +0.000 HD
ENDBRANCH   1   2
BRANCH   1   5
ATOM      5  C   UNL     1       7.400   4.910  17.969  0.00  0.00    +0.000 C 
ATOM      6  O   UNL     1       8.288   4.133  17.650  0.00  0.00    +0.000 OA
BRANCH   5   7
ATOM      7  OXT UNL     1       6.961   5.083  19.243  0.00  0.00    +0.000 OA
ATOM      8  HXT UNL     1       6.030   5.424  19.186  0.00  0.00    +0.000 HD
ENDBRANCH   5   7
ENDBRANCH   1   5
BRANCH   1   9
ATOM      9  C   UNL     1       5.017   5.824  17.175  0.00  0.00    +0.000 C 
BRANCH   9  10
ATOM     10  C   UNL     1       3.937   4.744  17.378  0.00  0.00    +0.000 A 
ATOM     11  C   UNL     1       2.632   5.158  17.786  0.00  0.00    +0.000 A 
ATOM     12  C   UNL     1       1.652   4.256  18.251  0.00  0.00    +0.000 A 
ATOM     13  C   UNL     1       1.939   2.903  18.314  0.00  0.00    +0.000 A 
ATOM     14  C   UNL     1       3.190   2.472  17.882  0.00  0.00    +0.000 A 
ATOM     15  F   UNL     1       3.469   1.163  17.950  0.00  0.00    +0.000 F 
ATOM     16  C   UNL     1       4.181   3.368  17.422  0.00  0.00    +0.000 A 
ENDBRANCH   9  10
ENDBRANCH   1   9
TORSDOF 5
ENDMDL
MODEL 4
REMARK VINA RESULT:      -6.1      1.585      1.767
REMARK  Name = 
REMARK  5 active torsions:
REMARK  status: ('A' for Active; 'I' for Inactive)
REMARK    1  A    between atoms: N_1  and  CA_2
REMARK    2  A    between atoms: CA_2  and  C_3
REMARK    3  A    between atoms: CA_2  and  C_11
REMARK    4  A    between atoms: C_3  and  C_4
REMARK    5  A    between atoms: C_11  and  OXT_13
REMARK                            x       y       z     vdW  Elec       q    Type
REMARK                         _______ _______ _______ _____ _____    ______ ____
ROOT
ATOM      1  CA  UNL     1       6.321   5.229  16.763  0.00  0.00    +0.000 C 
ENDROOT
BRANCH   1   2
ATOM      2  N   UNL     1       7.359   5.594  15.766  0.00  0.00    +0.000 NA
ATOM      3  H1  UNL     1       7.352   5.025  14.912  0.00  0.00    +0.000 HD
ATOM      4  H2  UNL     1       8.257   6.028  15.986  0.00  0.00    +0.000 HD
ENDBRANCH   1   2
BRANCH   1   5
ATOM      5  C   UNL     1       7.085   4.720  17.986  0.00  0.00    +0.000 C 
ATOM      6  O   UNL     1       6.752   4.902  19.148  0.00  0.00    +0.000 OA
BRANCH   5   7
ATOM      7  OXT UNL     1       8.210   4.057  17.612  0.00  0.00    +0.000 OA
ATOM      8  HXT UNL     1       8.019   3.086  17.702  0.00  0.00    +0.000 HD
ENDBRANCH   5   7
ENDBRANCH   1   5
BRANCH   1   9
ATOM      9  C   UNL     1       4.890   4.564  16.469  0.00  0.00    +0.000 C 
BRANCH   9  10
ATOM     10  C   UNL     1       3.587   4.420  17.279  0.00  0.00    +0.000 A 
ATOM     11  C   UNL     1       3.248   5.450  18.209  0.00  0.00    +0.000 A 
ATOM     12  C   UNL     1       2.236   5.303  19.181  0.00  0.00    +0.000 A 
ATOM     13  C   UNL     1       1.518   4.122  19.250  0.00  0.00    +0.000 A 
ATOM     14  C   UNL     1       1.802   3.119  18.327  0.00  0.00    +0.000 A 
ATOM     15  F   UNL     1       1.110   1.974  18.400  0.00  0.00    +0.000 F 
ATOM     16  C   UNL     1       2.820   3.253  17.355  0.00  0.00    +0.000 A 
ENDBRANCH   9  10
ENDBRANCH   1   9
TORSDOF 5
ENDMDL
MODEL 5
REMARK VINA RESULT:      -6.1      1.297      1.321
REMARK  Name = 
REMARK  5 active torsions:
REMARK  status: ('A' for Active; 'I' for Inactive)
REMARK    1  A    between atoms: N_1  and  CA_2
REMARK    2  A    between atoms: CA_2  and  C_3
REMARK    3  A    between atoms: CA_2  and  C_11
REMARK    4  A    between atoms: C_3  and  C_4
REMARK    5  A    between atoms: C_11  and  OXT_13
REMARK                            x       y       z     vdW  Elec       q    Type
REMARK                         _______ _______ _______ _____ _____    ______ ____
ROOT
ATOM      1  CA  UNL     1       5.751   5.913  17.506  0.00  0.00    +0.000 C 
ENDROOT
BRANCH   1   2
ATOM      2  N   UNL     1       6.546   7.009  16.896  0.00  0.00    +0.000 NA
ATOM      3  H1  UNL     1       6.611   6.973  15.873  0.00  0.00    +0.000 HD
ATOM      4  H2  UNL     1       7.308   7.509  17.358  0.00  0.00    +0.000 HD
ENDBRANCH   1   2
BRANCH   1   5
ATOM      5  C   UNL     1       6.716   4.735  17.650  0.00  0.00    +0.000 C 
ATOM      6  O   UNL     1       7.724   4.568  16.980  0.00  0.00    +0.000 OA
BRANCH   5   7
ATOM      7  OXT UNL     1       6.287   3.873  18.608  0.00  0.00    +0.000 OA
ATOM      8  HXT UNL     1       7.084   3.606  19.137  0.00  0.00    +0.000 HD
ENDBRANCH   5   7
ENDBRANCH   1   5
BRANCH   1   9
ATOM      9  C   UNL     1       4.211   5.563  17.222  0.00  0.00    +0.000 C 
BRANCH   9  10
ATOM     10  C   UNL     1       3.026   5.136  18.110  0.00  0.00    +0.000 A 
ATOM     11  C   UNL     1       2.914   5.707  19.414  0.00  0.00    +0.000 A 
ATOM     12  C   UNL     1       2.039   5.204  20.399  0.00  0.00    +0.000 A 
ATOM     13  C   UNL     1       1.233   4.116  20.109  0.00  0.00    +0.000 A 
ATOM     14  C   UNL     1       1.294   3.569  18.831  0.00  0.00    +0.000 A 
ATOM     15  F   UNL     1       0.519   2.511  18.555  0.00  0.00    +0.000 F 
ATOM     16  C   UNL     1       2.174   4.060  17.840  0.00  0.00    +0.000 A 
ENDBRANCH   9  10
ENDBRANCH   1   9
TORSDOF 5
ENDMDL
MODEL 6
REMARK VINA RESULT:      -6.0      1.380      1.380
REMARK  Name = 
REMARK  5 active torsions:
REMARK  status: ('A' for Active; 'I' for Inactive)
REMARK    1  A    between atoms: N_1  and  CA_2
REMARK    2  A    between atoms: CA_2  and  C_3
REMARK    3  A    between atoms: CA_2  and  C_11
REMARK    4  A    between atoms: C_3  and  C_4
REMARK    5  A    between atoms: C_11  and  OXT_13
REMARK                            x       y       z     vdW  Elec       q    Type
REMARK                         _______ _______ _______ _____ _____    ______ ____
ROOT
ATOM      1  CA  UNL     1       5.610   4.730  16.572  0.00  0.00    +0.000 C 
ENDROOT
BRANCH   1   2
ATOM      2  N   UNL     1       5.651   3.266  16.327  0.00  0.00    +0.000 NA
ATOM      3  H1  UNL     1       5.324   2.978  15.399  0.00  0.00    +0.000 HD
ATOM      4  H2  UNL     1       5.582   2.548  17.050  0.00  0.00    +0.000 HD
ENDBRANCH   1   2
BRANCH   1   5
ATOM      5  C   UNL     1       7.072   5.180  16.625  0.00  0.00    +0.000 C 
ATOM      6  O   UNL     1       7.481   6.278  16.279  0.00  0.00    +0.000 OA
BRANCH   5   7
ATOM      7  OXT UNL     1       7.869   4.180  17.081  0.00  0.00    +0.000 OA
ATOM      8  HXT UNL     1       8.799   4.401  16.808  0.00  0.00    +0.000 HD
ENDBRANCH   5   7
ENDBRANCH   1   5
BRANCH   1   9
ATOM      9  C   UNL     1       4.570   5.526  17.498  0.00  0.00    +0.000 C 
BRANCH   9  10
ATOM     10  C   UNL     1       3.294   5.129  18.267  0.00  0.00    +0.000 A 
ATOM     11  C   UNL     1       3.122   5.623  19.596  0.00  0.00    +0.000 A 
ATOM     12  C   UNL     1       2.141   5.123  20.479  0.00  0.00    +0.000 A 
ATOM     13  C   UNL     1       1.290   4.115  20.058  0.00  0.00    +0.000 A 
ATOM     14  C   UNL     1       1.413   3.647  18.753  0.00  0.00    +0.000 A 
ATOM     15  F   UNL     1       0.592   2.667  18.350  0.00  0.00    +0.000 F 
ATOM     16  C   UNL     1       2.397   4.136  17.864  0.00  0.00    +0.000 A 
ENDBRANCH   9  10
ENDBRANCH   1   9
TORSDOF 5
ENDMDL
MODEL 7
REMARK VINA RESULT:      -6.0      1.204      1.329
REMARK  Name = 
REMARK  5 active torsions:
REMARK  status: ('A' for Active; 'I' for Inactive)
REMARK    1  A    between atoms: N_1  and  CA_2
REMARK    2  A    between atoms: CA_2  and  C_3
REMARK    3  A    between atoms: CA_2  and  C_11
REMARK    4  A    between atoms: C_3  and  C_4
REMARK    5  A    between atoms: C_11  and  OXT_13
REMARK                            x       y       z     vdW  Elec       q    Type
REMARK                         _______ _______ _______ _____ _____    ______ ____
ROOT
ATOM      1  CA  UNL     1       5.675   4.353  17.166  0.00  0.00    +0.000 C 
ENDROOT
BRANCH   1   2
ATOM      2  N   UNL     1       6.659   4.241  18.272  0.00  0.00    +0.000 NA
ATOM      3  H1  UNL     1       6.902   3.279  18.533  0.00  0.00    +0.000 HD
ATOM      4  H2  UNL     1       6.795   4.934  19.009  0.00  0.00    +0.000 HD
ENDBRANCH   1   2
BRANCH   1   5
ATOM      5  C   UNL     1       6.496   4.673  15.915  0.00  0.00    +0.000 C 
ATOM      6  O   UNL     1       7.228   5.643  15.785  0.00  0.00    +0.000 OA
BRANCH   5   7
ATOM      7  OXT UNL     1       6.282   3.746  14.946  0.00  0.00    +0.000 OA
ATOM      8  HXT UNL     1       5.731   4.181  14.243  0.00  0.00    +0.000 HD
ENDBRANCH   5   7
ENDBRANCH   1   5
BRANCH   1   9
ATOM      9  C   UNL     1       4.198   4.975  17.246  0.00  0.00    +0.000 C 
BRANCH   9  10
ATOM     10  C   UNL     1       2.949   4.671  18.096  0.00  0.00    +0.000 A 
ATOM     11  C   UNL     1       2.801   5.344  19.348  0.00  0.00    +0.000 A 
ATOM     12  C   UNL     1       1.852   4.957  20.318  0.00  0.00    +0.000 A 
ATOM     13  C   UNL     1       1.009   3.888  20.065  0.00  0.00    +0.000 A 
ATOM     14  C   UNL     1       1.108   3.244  18.836  0.00  0.00    +0.000 A 
ATOM     15  F   UNL     1       0.296   2.205  18.597  0.00  0.00    +0.000 F 
ATOM     16  C   UNL     1       2.060   3.618  17.861  0.00  0.00    +0.000 A 
ENDBRANCH   9  10
ENDBRANCH   1   9
TORSDOF 5
ENDMDL
MODEL 8
REMARK VINA RESULT:      -6.0      1.877      2.186
REMARK  Name = 
REMARK  5 active torsions:
REMARK  status: ('A' for Active; 'I' for Inactive)
REMARK    1  A    between atoms: N_1  and  CA_2
REMARK    2  A    between atoms: CA_2  and  C_3
REMARK    3  A    between atoms: CA_2  and  C_11
REMARK    4  A    between atoms: C_3  and  C_4
REMARK    5  A    between atoms: C_11  and  OXT_13
REMARK                            x       y       z     vdW  Elec       q    Type
REMARK                         _______ _______ _______ _____ _____    ______ ____
ROOT
ATOM      1  CA  UNL     1       6.309   6.012  17.328  0.00  0.00    +0.000 C 
ENDROOT
BRANCH   1   2
ATOM      2  N   UNL     1       7.028   7.266  16.988  0.00  0.00    +0.000 NA
ATOM      3  H1  UNL     1       7.891   7.132  16.449  0.00  0.00    +0.000 HD
ATOM      4  H2  UNL     1       6.989   8.130  17.531  0.00  0.00    +0.000 HD
ENDBRANCH   1   2
BRANCH   1   5
ATOM      5  C   UNL     1       7.387   4.929  17.411  0.00  0.00    +0.000 C 
ATOM      6  O   UNL     1       7.848   4.476  18.449  0.00  0.00    +0.000 OA
BRANCH   5   7
ATOM      7  OXT UNL     1       7.791   4.552  16.170  0.00  0.00    +0.000 OA
ATOM      8  HXT UNL     1       7.529   5.279  15.546  0.00  0.00    +0.000 HD
ENDBRANCH   5   7
ENDBRANCH   1   5
BRANCH   1   9
ATOM      9  C   UNL     1       4.860   5.558  16.809  0.00  0.00    +0.000 C 
BRANCH   9  10
ATOM     10  C   UNL     1       3.842   4.494  17.263  0.00  0.00    +0.000 A 
ATOM     11  C   UNL     1       2.583   4.934  17.776  0.00  0.00    +0.000 A 
ATOM     12  C   UNL     1       1.691   4.079  18.457  0.00  0.00    +0.000 A 
ATOM     13  C   UNL     1       2.023   2.747  18.639  0.00  0.00    +0.000 A 
ATOM     14  C   UNL     1       3.225   2.286  18.112  0.00  0.00    +0.000 A 
ATOM     15  F   UNL     1       3.547   0.998  18.296  0.00  0.00    +0.000 F 
ATOM     16  C   UNL     1       4.129   3.136  17.436  0.00  0.00    +0.000 A 
ENDBRANCH   9  10
ENDBRANCH   1   9
TORSDOF 5
ENDMDL
MODEL 9
REMARK VINA RESULT:      -5.9      2.063      2.091
REMARK  Name = 
REMARK  5 active torsions:
REMARK  status: ('A' for Active; 'I' for Inactive)
REMARK    1  A    between atoms: N_1  and  CA_2
REMARK    2  A    between atoms: CA_2  and  C_3
REMARK    3  A    between atoms: CA_2  and  C_11
REMARK    4  A    between atoms: C_3  and  C_4
REMARK    5  A    between atoms: C_11  and  OXT_13
REMARK                            x       y       z     vdW  Elec       q    Type
REMARK                         _______ _______ _______ _____ _____    ______ ____
ROOT
ATOM      1  CA  UNL     1       5.744   5.309  16.373  0.00  0.00    +0.000 C 
ENDROOT
BRANCH   1   2
ATOM      2  N   UNL     1       5.476   6.647  15.788  0.00  0.00    +0.000 NA
ATOM      3  H1  UNL     1       5.814   6.771  14.827  0.00  0.00    +0.000 HD
ATOM      4  H2  UNL     1       5.375   7.512  16.323  0.00  0.00    +0.000 HD
ENDBRANCH   1   2
BRANCH   1   5
ATOM      5  C   UNL     1       7.146   4.925  15.896  0.00  0.00    +0.000 C 
ATOM      6  O   UNL     1       7.629   5.234  14.817  0.00  0.00    +0.000 OA
BRANCH   5   7
ATOM      7  OXT UNL     1       7.780   4.162  16.824  0.00  0.00    +0.000 OA
ATOM      8  HXT UNL     1       8.327   3.496  16.329  0.00  0.00    +0.000 HD
ENDBRANCH   5   7
ENDBRANCH   1   5
BRANCH   1   9
ATOM      9  C   UNL     1       4.692   4.115  16.578  0.00  0.00    +0.000 C 
BRANCH   9  10
ATOM     10  C   UNL     1       3.754   3.696  17.727  0.00  0.00    +0.000 A 
ATOM     11  C   UNL     1       4.332   3.399  18.999  0.00  0.00    +0.000 A 
ATOM     12  C   UNL     1       3.618   2.760  20.035  0.00  0.00    +0.000 A 
ATOM     13  C   UNL     1       2.294   2.404  19.837  0.00  0.00    +0.000 A 
ATOM     14  C   UNL     1       1.699   2.720  18.620  0.00  0.00    +0.000 A 
ATOM     15  F   UNL     1       0.420   2.368  18.428  0.00  0.00    +0.000 F 
ATOM     16  C   UNL     1       2.408   3.353  17.573  0.00  0.00    +0.000 A 
ENDBRANCH   9  10
ENDBRANCH   1   9
TORSDOF 5
ENDMDL
