MODEL 1
REMARK VINA RESULT:      -7.4      0.000      0.000
REMARK  Name = 
REMARK  3 active torsions:
REMARK  status: ('A' for Active; 'I' for Inactive)
REMARK    1  A    between atoms: C_4  and  C_5
REMARK    2  A    between atoms: C_8  and  C_9
REMARK    3  A    between atoms: N_11  and  C_12
REMARK                            x       y       z     vdW  Elec       q    Type
REMARK                         _______ _______ _______ _____ _____    ______ ____
ROOT
ATOM      1  C   UNL     1       1.430   8.652  19.877  0.00  0.00    +0.000 A 
ATOM      2  C   UNL     1       2.081   7.456  20.074  0.00  0.00    +0.000 A 
ATOM      3  N   UNL     1       2.639   7.177  18.860  0.00  0.00    +0.000 N 
ATOM      4  N   UNL     1       2.359   8.145  17.967  0.00  0.00    +0.000 NA
ATOM      5  N   UNL     1       1.614   9.055  18.582  0.00  0.00    +0.000 NA
ENDROOT
BRANCH   3   6
ATOM      6  C   UNL     1       3.385   6.008  18.428  0.00  0.00    +0.000 C 
ATOM      7  C   UNL     1       4.264   5.353  19.523  0.00  0.00    +0.000 C 
ATOM      8  N   UNL     1       3.961   3.908  19.695  0.00  0.00    +0.000 NA
ATOM      9  C   UNL     1       2.529   3.757  20.039  0.00  0.00    +0.000 C 
ATOM     10  C   UNL     1       1.617   4.269  18.912  0.00  0.00    +0.000 C 
ATOM     11  C   UNL     1       2.475   4.917  17.810  0.00  0.00    +0.000 C 
ATOM     12  C   UNL     1       3.398   3.810  17.263  0.00  0.00    +0.000 C 
ATOM     13  C   UNL     1       4.217   3.206  18.418  0.00  0.00    +0.000 C 
ENDBRANCH   3   6
BRANCH   1  17
ATOM     14  C   UNL     1      -0.684  11.011  22.230  0.00  0.00    +0.000 A 
ATOM     15  C   UNL     1      -0.479   9.809  22.883  0.00  0.00    +0.000 A 
ATOM     16  C   UNL     1       0.271   8.878  22.102  0.00  0.00    +0.000 A 
ATOM     17  C   UNL     1       0.631   9.402  20.881  0.00  0.00    +0.000 A 
ATOM     18  S   UNL     1       0.055  10.991  20.679  0.00  0.00    +0.000 S 
BRANCH  14  22
ATOM     19  C   UNL     1      -3.044  13.550  23.645  0.00  0.00    +0.000 A 
ATOM     20  C   UNL     1      -2.089  14.479  23.302  0.00  0.00    +0.000 A 
ATOM     21  S   UNL     1      -0.716  13.752  22.591  0.00  0.00    +0.000 S 
ATOM     22  C   UNL     1      -1.392  12.175  22.713  0.00  0.00    +0.000 A 
ATOM     23  C   UNL     1      -2.642  12.224  23.307  0.00  0.00    +0.000 A 
ENDBRANCH  14  22
ENDBRANCH   1  17
TORSDOF 3
ENDMDL
MODEL 2
REMARK VINA RESULT:      -7.3      1.435      1.777
REMARK  Name = 
REMARK  3 active torsions:
REMARK  status: ('A' for Active; 'I' for Inactive)
REMARK    1  A    between atoms: C_4  and  C_5
REMARK    2  A    between atoms: C_8  and  C_9
REMARK    3  A    between atoms: N_11  and  C_12
REMARK                            x       y       z     vdW  Elec       q    Type
REMARK                         _______ _______ _______ _____ _____    ______ ____
ROOT
ATOM      1  C   UNL     1       1.830   8.729  18.819  0.00  0.00    +0.000 A 
ATOM      2  C   UNL     1       2.147   7.554  19.462  0.00  0.00    +0.000 A 
ATOM      3  N   UNL     1       2.957   6.901  18.580  0.00  0.00    +0.000 N 
ATOM      4  N   UNL     1       3.140   7.630  17.462  0.00  0.00    +0.000 NA
ATOM      5  N   UNL     1       2.448   8.755  17.599  0.00  0.00    +0.000 NA
ENDROOT
BRANCH   3   6
ATOM      6  C   UNL     1       3.546   5.577  18.666  0.00  0.00    +0.000 C 
ATOM      7  C   UNL     1       3.327   4.851  20.017  0.00  0.00    +0.000 C 
ATOM      8  N   UNL     1       2.701   3.514  19.841  0.00  0.00    +0.000 NA
ATOM      9  C   UNL     1       1.409   3.679  19.138  0.00  0.00    +0.000 C 
ATOM     10  C   UNL     1       1.598   4.268  17.731  0.00  0.00    +0.000 C 
ATOM     11  C   UNL     1       3.077   4.641  17.524  0.00  0.00    +0.000 C 
ATOM     12  C   UNL     1       3.883   3.333  17.646  0.00  0.00    +0.000 C 
ATOM     13  C   UNL     1       3.589   2.674  19.006  0.00  0.00    +0.000 C 
ENDBRANCH   3   6
BRANCH   1  17
ATOM     14  C   UNL     1      -0.652  11.282  20.520  0.00  0.00    +0.000 A 
ATOM     15  C   UNL     1      -0.088  11.889  19.412  0.00  0.00    +0.000 A 
ATOM     16  C   UNL     1       0.839  11.044  18.732  0.00  0.00    +0.000 A 
ATOM     17  C   UNL     1       0.946   9.809  19.331  0.00  0.00    +0.000 A 
ATOM     18  S   UNL     1      -0.052   9.683  20.705  0.00  0.00    +0.000 S 
BRANCH  14  22
ATOM     19  C   UNL     1      -2.799  12.345  23.398  0.00  0.00    +0.000 A 
ATOM     20  C   UNL     1      -3.555  13.006  22.458  0.00  0.00    +0.000 A 
ATOM     21  S   UNL     1      -2.918  12.824  20.883  0.00  0.00    +0.000 S 
ATOM     22  C   UNL     1      -1.625  11.834  21.436  0.00  0.00    +0.000 A 
ATOM     23  C   UNL     1      -1.687  11.672  22.809  0.00  0.00    +0.000 A 
ENDBRANCH  14  22
ENDBRANCH   1  17
TORSDOF 3
ENDMDL
MODEL 3
REMARK VINA RESULT:      -7.3      1.028      1.312
REMARK  Name = 
REMARK  3 active torsions:
REMARK  status: ('A' for Active; 'I' for Inactive)
REMARK    1  A    between atoms: C_4  and  C_5
REMARK    2  A    between atoms: C_8  and  C_9
REMARK    3  A    between atoms: N_11  and  C_12
REMARK                            x       y       z     vdW  Elec       q    Type
REMARK                         _______ _______ _______ _____ _____    ______ ____
ROOT
ATOM      1  C   UNL     1       1.604   8.085  20.153  0.00  0.00    +0.000 A 
ATOM      2  C   UNL     1       2.014   6.813  20.479  0.00  0.00    +0.000 A 
ATOM      3  N   UNL     1       2.707   6.395  19.380  0.00  0.00    +0.000 N 
ATOM      4  N   UNL     1       2.732   7.353  18.434  0.00  0.00    +0.000 NA
ATOM      5  N   UNL     1       2.054   8.395  18.899  0.00  0.00    +0.000 NA
ENDROOT
BRANCH   3   6
ATOM      6  C   UNL     1       3.315   5.107  19.101  0.00  0.00    +0.000 C 
ATOM      7  C   UNL     1       3.014   4.002  20.145  0.00  0.00    +0.000 C 
ATOM      8  N   UNL     1       2.430   2.785  19.522  0.00  0.00    +0.000 NA
ATOM      9  C   UNL     1       1.188   3.161  18.809  0.00  0.00    +0.000 C 
ATOM     10  C   UNL     1       1.465   4.153  17.668  0.00  0.00    +0.000 C 
ATOM     11  C   UNL     1       2.947   4.567  17.695  0.00  0.00    +0.000 C 
ATOM     12  C   UNL     1       3.769   3.282  17.471  0.00  0.00    +0.000 C 
ATOM     13  C   UNL     1       3.392   2.239  18.538  0.00  0.00    +0.000 C 
ENDBRANCH   3   6
BRANCH   1  17
ATOM     14  C   UNL     1      -0.427  10.856  22.095  0.00  0.00    +0.000 A 
ATOM     15  C   UNL     1      -0.595   9.648  22.749  0.00  0.00    +0.000 A 
ATOM     16  C   UNL     1       0.097   8.575  22.112  0.00  0.00    +0.000 A 
ATOM     17  C   UNL     1       0.786   8.995  20.996  0.00  0.00    +0.000 A 
ATOM     18  S   UNL     1       0.584  10.663  20.719  0.00  0.00    +0.000 S 
BRANCH  14  22
ATOM     19  C   UNL     1      -1.217  14.453  22.767  0.00  0.00    +0.000 A 
ATOM     20  C   UNL     1      -2.392  13.988  23.310  0.00  0.00    +0.000 A 
ATOM     21  S   UNL     1      -2.512  12.287  23.211  0.00  0.00    +0.000 S 
ATOM     22  C   UNL     1      -0.974  12.144  22.454  0.00  0.00    +0.000 A 
ATOM     23  C   UNL     1      -0.402  13.392  22.273  0.00  0.00    +0.000 A 
ENDBRANCH  14  22
ENDBRANCH   1  17
TORSDOF 3
ENDMDL
MODEL 4
REMARK VINA RESULT:      -7.2      1.520      2.039
REMARK  Name = 
REMARK  3 active torsions:
REMARK  status: ('A' for Active; 'I' for Inactive)
REMARK    1  A    between atoms: C_4  and  C_5
REMARK    2  A    between atoms: C_8  and  C_9
REMARK    3  A    between atoms: N_11  and  C_12
REMARK                            x       y       z     vdW  Elec       q    Type
REMARK                         _______ _______ _______ _____ _____    ______ ____
ROOT
ATOM      1  C   UNL     1       2.166   8.135  18.803  0.00  0.00    +0.000 A 
ATOM      2  C   UNL     1       2.242   6.889  19.383  0.00  0.00    +0.000 A 
ATOM      3  N   UNL     1       3.177   6.232  18.639  0.00  0.00    +0.000 N 
ATOM      4  N   UNL     1       3.659   7.024  17.662  0.00  0.00    +0.000 NA
ATOM      5  N   UNL     1       3.041   8.195  17.754  0.00  0.00    +0.000 NA
ENDROOT
BRANCH   3   6
ATOM      6  C   UNL     1       3.631   4.856  18.723  0.00  0.00    +0.000 C 
ATOM      7  C   UNL     1       3.239   4.117  20.027  0.00  0.00    +0.000 C 
ATOM      8  N   UNL     1       2.507   2.852  19.758  0.00  0.00    +0.000 NA
ATOM      9  C   UNL     1       1.294   3.160  18.966  0.00  0.00    +0.000 C 
ATOM     10  C   UNL     1       1.647   3.767  17.598  0.00  0.00    +0.000 C 
ATOM     11  C   UNL     1       3.166   4.001  17.516  0.00  0.00    +0.000 C 
ATOM     12  C   UNL     1       3.833   2.618  17.653  0.00  0.00    +0.000 C 
ATOM     13  C   UNL     1       3.374   1.954  18.963  0.00  0.00    +0.000 C 
ENDBRANCH   3   6
BRANCH   1  17
ATOM     14  C   UNL     1      -0.260  10.859  20.309  0.00  0.00    +0.000 A 
ATOM     15  C   UNL     1       0.086  11.240  19.025  0.00  0.00    +0.000 A 
ATOM     16  C   UNL     1       0.976  10.318  18.397  0.00  0.00    +0.000 A 
ATOM     17  C   UNL     1       1.274   9.251  19.214  0.00  0.00    +0.000 A 
ATOM     18  S   UNL     1       0.496   9.373  20.723  0.00  0.00    +0.000 S 
BRANCH  14  22
ATOM     19  C   UNL     1      -2.712  13.031  22.123  0.00  0.00    +0.000 A 
ATOM     20  C   UNL     1      -2.350  12.326  23.246  0.00  0.00    +0.000 A 
ATOM     21  S   UNL     1      -1.188  11.122  22.899  0.00  0.00    +0.000 S 
ATOM     22  C   UNL     1      -1.136  11.543  21.232  0.00  0.00    +0.000 A 
ATOM     23  C   UNL     1      -2.014  12.579  20.963  0.00  0.00    +0.000 A 
ENDBRANCH  14  22
ENDBRANCH   1  17
TORSDOF 3
ENDMDL
MODEL 5
REMARK VINA RESULT:      -7.2      1.548      2.195
REMARK  Name = 
REMARK  3 active torsions:
REMARK  status: ('A' for Active; 'I' for Inactive)
REMARK    1  A    between atoms: C_4  and  C_5
REMARK    2  A    between atoms: C_8  and  C_9
REMARK    3  A    between atoms: N_11  and  C_12
REMARK                            x       y       z     vdW  Elec       q    Type
REMARK                         _______ _______ _______ _____ _____    ______ ____
ROOT
ATOM      1  C   UNL     1       2.418   7.727  18.647  0.00  0.00    +0.000 A 
ATOM      2  C   UNL     1       2.426   6.443  19.142  0.00  0.00    +0.000 A 
ATOM      3  N   UNL     1       3.367   5.803  18.391  0.00  0.00    +0.000 N 
ATOM      4  N   UNL     1       3.916   6.640  17.490  0.00  0.00    +0.000 NA
ATOM      5  N   UNL     1       3.337   7.825  17.639  0.00  0.00    +0.000 NA
ENDROOT
BRANCH   3   6
ATOM      6  C   UNL     1       3.768   4.407  18.397  0.00  0.00    +0.000 C 
ATOM      7  C   UNL     1       3.842   3.755  19.801  0.00  0.00    +0.000 C 
ATOM      8  N   UNL     1       3.014   2.524  19.891  0.00  0.00    +0.000 NA
ATOM      9  C   UNL     1       1.611   2.865  19.565  0.00  0.00    +0.000 C 
ATOM     10  C   UNL     1       1.473   3.385  18.125  0.00  0.00    +0.000 C 
ATOM     11  C   UNL     1       2.869   3.526  17.493  0.00  0.00    +0.000 C 
ATOM     12  C   UNL     1       3.489   2.114  17.473  0.00  0.00    +0.000 C 
ATOM     13  C   UNL     1       3.504   1.540  18.900  0.00  0.00    +0.000 C 
ENDBRANCH   3   6
BRANCH   1  17
ATOM     14  C   UNL     1       0.073  10.458  20.264  0.00  0.00    +0.000 A 
ATOM     15  C   UNL     1       0.361  10.839  18.965  0.00  0.00    +0.000 A 
ATOM     16  C   UNL     1       1.218   9.914  18.297  0.00  0.00    +0.000 A 
ATOM     17  C   UNL     1       1.549   8.845  19.099  0.00  0.00    +0.000 A 
ATOM     18  S   UNL     1       0.843   8.970  20.642  0.00  0.00    +0.000 S 
BRANCH  14  22
ATOM     19  C   UNL     1      -1.780  11.778  23.238  0.00  0.00    +0.000 A 
ATOM     20  C   UNL     1      -2.398  12.626  22.348  0.00  0.00    +0.000 A 
ATOM     21  S   UNL     1      -1.831  12.402  20.753  0.00  0.00    +0.000 S 
ATOM     22  C   UNL     1      -0.757  11.145  21.227  0.00  0.00    +0.000 A 
ATOM     23  C   UNL     1      -0.834  10.927  22.592  0.00  0.00    +0.000 A 
ENDBRANCH  14  22
ENDBRANCH   1  17
TORSDOF 3
ENDMDL
MODEL 6
REMARK VINA RESULT:      -7.1      1.117      1.231
REMARK  Name = 
REMARK  3 active torsions:
REMARK  status: ('A' for Active; 'I' for Inactive)
REMARK    1  A    between atoms: C_4  and  C_5
REMARK    2  A    between atoms: C_8  and  C_9
REMARK    3  A    between atoms: N_11  and  C_12
REMARK                            x       y       z     vdW  Elec       q    Type
REMARK                         _______ _______ _______ _____ _____    ______ ____
ROOT
ATOM      1  C   UNL     1       1.708   7.915  19.998  0.00  0.00    +0.000 A 
ATOM      2  C   UNL     1       2.024   6.624  20.353  0.00  0.00    +0.000 A 
ATOM      3  N   UNL     1       2.712   6.142  19.278  0.00  0.00    +0.000 N 
ATOM      4  N   UNL     1       2.823   7.080  18.318  0.00  0.00    +0.000 NA
ATOM      5  N   UNL     1       2.207   8.173  18.751  0.00  0.00    +0.000 NA
ENDROOT
BRANCH   3   6
ATOM      6  C   UNL     1       3.237   4.811  19.033  0.00  0.00    +0.000 C 
ATOM      7  C   UNL     1       3.195   3.857  20.253  0.00  0.00    +0.000 C 
ATOM      8  N   UNL     1       2.481   2.589  19.949  0.00  0.00    +0.000 NA
ATOM      9  C   UNL     1       1.105   2.908  19.507  0.00  0.00    +0.000 C 
ATOM     10  C   UNL     1       1.101   3.739  18.213  0.00  0.00    +0.000 C 
ATOM     11  C   UNL     1       2.547   4.110  17.836  0.00  0.00    +0.000 C 
ATOM     12  C   UNL     1       3.293   2.783  17.594  0.00  0.00    +0.000 C 
ATOM     13  C   UNL     1       3.182   1.895  18.846  0.00  0.00    +0.000 C 
ENDBRANCH   3   6
BRANCH   1  17
ATOM     14  C   UNL     1      -0.487  10.702  21.726  0.00  0.00    +0.000 A 
ATOM     15  C   UNL     1       0.126   9.951  22.713  0.00  0.00    +0.000 A 
ATOM     16  C   UNL     1       0.938   8.904  22.184  0.00  0.00    +0.000 A 
ATOM     17  C   UNL     1       0.934   8.893  20.807  0.00  0.00    +0.000 A 
ATOM     18  S   UNL     1      -0.051  10.125  20.168  0.00  0.00    +0.000 S 
BRANCH  14  22
ATOM     19  C   UNL     1      -3.126  13.203  22.622  0.00  0.00    +0.000 A 
ATOM     20  C   UNL     1      -2.514  14.025  21.705  0.00  0.00    +0.000 A 
ATOM     21  S   UNL     1      -1.150  13.284  20.992  0.00  0.00    +0.000 S 
ATOM     22  C   UNL     1      -1.371  11.834  21.891  0.00  0.00    +0.000 A 
ATOM     23  C   UNL     1      -2.467  11.943  22.730  0.00  0.00    +0.000 A 
ENDBRANCH  14  22
ENDBRANCH   1  17
TORSDOF 3
ENDMDL
MODEL 7
REMARK VINA RESULT:      -7.0      1.342      1.721
REMARK  Name = 
REMARK  3 active torsions:
REMARK  status: ('A' for Active; 'I' for Inactive)
REMARK    1  A    between atoms: C_4  and  C_5
REMARK    2  A    between atoms: C_8  and  C_9
REMARK    3  A    between atoms: N_11  and  C_12
REMARK                            x       y       z     vdW  Elec       q    Type
REMARK                         _______ _______ _______ _____ _____    ______ ____
ROOT
ATOM      1  C   UNL     1       1.727   8.698  19.049  0.00  0.00    +0.000 A 
ATOM      2  C   UNL     1       2.060   7.537  19.707  0.00  0.00    +0.000 A 
ATOM      3  N   UNL     1       2.844   6.863  18.817  0.00  0.00    +0.000 N 
ATOM      4  N   UNL     1       2.997   7.568  17.679  0.00  0.00    +0.000 NA
ATOM      5  N   UNL     1       2.311   8.696  17.812  0.00  0.00    +0.000 NA
ENDROOT
BRANCH   3   6
ATOM      6  C   UNL     1       3.433   5.540  18.915  0.00  0.00    +0.000 C 
ATOM      7  C   UNL     1       3.113   4.777  20.226  0.00  0.00    +0.000 C 
ATOM      8  N   UNL     1       2.513   3.443  19.966  0.00  0.00    +0.000 NA
ATOM      9  C   UNL     1       1.278   3.620  19.169  0.00  0.00    +0.000 C 
ATOM     10  C   UNL     1       1.572   4.247  17.796  0.00  0.00    +0.000 C 
ATOM     11  C   UNL     1       3.061   4.632  17.715  0.00  0.00    +0.000 C 
ATOM     12  C   UNL     1       3.863   3.324  17.867  0.00  0.00    +0.000 C 
ATOM     13  C   UNL     1       3.468   2.629  19.182  0.00  0.00    +0.000 C 
ENDBRANCH   3   6
BRANCH   1  17
ATOM     14  C   UNL     1      -0.354  11.535  20.836  0.00  0.00    +0.000 A 
ATOM     15  C   UNL     1      -0.796  11.422  19.530  0.00  0.00    +0.000 A 
ATOM     16  C   UNL     1      -0.091  10.423  18.793  0.00  0.00    +0.000 A 
ATOM     17  C   UNL     1       0.860   9.791  19.562  0.00  0.00    +0.000 A 
ATOM     18  S   UNL     1       0.906  10.409  21.147  0.00  0.00    +0.000 S 
BRANCH  14  22
ATOM     19  C   UNL     1      -1.052  14.283  23.281  0.00  0.00    +0.000 A 
ATOM     20  C   UNL     1      -2.068  13.478  23.740  0.00  0.00    +0.000 A 
ATOM     21  S   UNL     1      -2.171  12.016  22.863  0.00  0.00    +0.000 S 
ATOM     22  C   UNL     1      -0.835  12.432  21.862  0.00  0.00    +0.000 A 
ATOM     23  C   UNL     1      -0.344  13.681  22.199  0.00  0.00    +0.000 A 
ENDBRANCH  14  22
ENDBRANCH   1  17
TORSDOF 3
ENDMDL
MODEL 8
REMARK VINA RESULT:      -7.0      1.694      2.377
REMARK  Name = 
REMARK  3 active torsions:
REMARK  status: ('A' for Active; 'I' for Inactive)
REMARK    1  A    between atoms: C_4  and  C_5
REMARK    2  A    between atoms: C_8  and  C_9
REMARK    3  A    between atoms: N_11  and  C_12
REMARK                            x       y       z     vdW  Elec       q    Type
REMARK                         _______ _______ _______ _____ _____    ______ ____
ROOT
ATOM      1  C   UNL     1       2.492   7.651  18.433  0.00  0.00    +0.000 A 
ATOM      2  C   UNL     1       2.286   6.320  18.714  0.00  0.00    +0.000 A 
ATOM      3  N   UNL     1       3.282   5.679  18.035  0.00  0.00    +0.000 N 
ATOM      4  N   UNL     1       4.063   6.560  17.381  0.00  0.00    +0.000 NA
ATOM      5  N   UNL     1       3.583   7.774  17.618  0.00  0.00    +0.000 NA
ENDROOT
BRANCH   3   6
ATOM      6  C   UNL     1       3.538   4.258  17.887  0.00  0.00    +0.000 C 
ATOM      7  C   UNL     1       4.596   3.679  18.859  0.00  0.00    +0.000 C 
ATOM      8  N   UNL     1       4.071   2.527  19.639  0.00  0.00    +0.000 NA
ATOM      9  C   UNL     1       2.875   2.965  20.394  0.00  0.00    +0.000 C 
ATOM     10  C   UNL     1       1.744   3.416  19.455  0.00  0.00    +0.000 C 
ATOM     11  C   UNL     1       2.248   3.406  18.001  0.00  0.00    +0.000 C 
ATOM     12  C   UNL     1       2.634   1.949  17.678  0.00  0.00    +0.000 C 
ATOM     13  C   UNL     1       3.671   1.454  18.701  0.00  0.00    +0.000 C 
ENDBRANCH   3   6
BRANCH   1  17
ATOM     14  C   UNL     1       0.258  10.442  20.105  0.00  0.00    +0.000 A 
ATOM     15  C   UNL     1       0.559  10.835  18.813  0.00  0.00    +0.000 A 
ATOM     16  C   UNL     1       1.378   9.890  18.125  0.00  0.00    +0.000 A 
ATOM     17  C   UNL     1       1.669   8.794  18.907  0.00  0.00    +0.000 A 
ATOM     18  S   UNL     1       0.970   8.918  20.454  0.00  0.00    +0.000 S 
BRANCH  14  22
ATOM     19  C   UNL     1      -1.933  12.731  22.099  0.00  0.00    +0.000 A 
ATOM     20  C   UNL     1      -1.692  11.879  23.151  0.00  0.00    +0.000 A 
ATOM     21  S   UNL     1      -0.688  10.573  22.699  0.00  0.00    +0.000 S 
ATOM     22  C   UNL     1      -0.543  11.142  21.083  0.00  0.00    +0.000 A 
ATOM     23  C   UNL     1      -1.273  12.306  20.908  0.00  0.00    +0.000 A 
ENDBRANCH  14  22
ENDBRANCH   1  17
TORSDOF 3
ENDMDL
MODEL 9
REMARK VINA RESULT:      -7.0      2.259      3.125
REMARK  Name = 
REMARK  3 active torsions:
REMARK  status: ('A' for Active; 'I' for Inactive)
REMARK    1  A    between atoms: C_4  and  C_5
REMARK    2  A    between atoms: C_8  and  C_9
REMARK    3  A    between atoms: N_11  and  C_12
REMARK                            x       y       z     vdW  Elec       q    Type
REMARK                         _______ _______ _______ _____ _____    ______ ____
ROOT
ATOM      1  C   UNL     1       2.272   7.714  18.980  0.00  0.00    +0.000 A 
ATOM      2  C   UNL     1       3.009   7.575  17.827  0.00  0.00    +0.000 A 
ATOM      3  N   UNL     1       3.510   6.308  17.903  0.00  0.00    +0.000 N 
ATOM      4  N   UNL     1       3.100   5.695  19.030  0.00  0.00    +0.000 NA
ATOM      5  N   UNL     1       2.341   6.553  19.700  0.00  0.00    +0.000 NA
ENDROOT
BRANCH   3   6
ATOM      6  C   UNL     1       4.424   5.617  17.012  0.00  0.00    +0.000 C 
ATOM      7  C   UNL     1       5.128   6.520  15.968  0.00  0.00    +0.000 C 
ATOM      8  N   UNL     1       6.608   6.396  16.026  0.00  0.00    +0.000 NA
ATOM      9  C   UNL     1       7.065   6.747  17.390  0.00  0.00    +0.000 C 
ATOM     10  C   UNL     1       6.499   5.783  18.445  0.00  0.00    +0.000 C 
ATOM     11  C   UNL     1       5.507   4.814  17.777  0.00  0.00    +0.000 C 
ATOM     12  C   UNL     1       6.308   4.017  16.728  0.00  0.00    +0.000 C 
ATOM     13  C   UNL     1       6.985   4.992  15.749  0.00  0.00    +0.000 C 
ENDBRANCH   3   6
BRANCH   1  17
ATOM     14  C   UNL     1       0.306  10.740  20.577  0.00  0.00    +0.000 A 
ATOM     15  C   UNL     1       0.401  10.948  19.213  0.00  0.00    +0.000 A 
ATOM     16  C   UNL     1       1.110   9.906  18.544  0.00  0.00    +0.000 A 
ATOM     17  C   UNL     1       1.525   8.923  19.414  0.00  0.00    +0.000 A 
ATOM     18  S   UNL     1       1.073   9.267  21.018  0.00  0.00    +0.000 S 
BRANCH  14  22
ATOM     19  C   UNL     1      -1.691  12.298  23.335  0.00  0.00    +0.000 A 
ATOM     20  C   UNL     1      -1.129  13.487  22.932  0.00  0.00    +0.000 A 
ATOM     21  S   UNL     1      -0.052  13.274  21.623  0.00  0.00    +0.000 S 
ATOM     22  C   UNL     1      -0.339  11.579  21.562  0.00  0.00    +0.000 A 
ATOM     23  C   UNL     1      -1.235  11.200  22.547  0.00  0.00    +0.000 A 
ENDBRANCH  14  22
ENDBRANCH   1  17
TORSDOF 3
ENDMDL
