MODEL 1
REMARK VINA RESULT:      -7.0      0.000      0.000
REMARK  Name = 
REMARK  13 active torsions:
REMARK  status: ('A' for Active; 'I' for Inactive)
REMARK    1  A    between atoms: C_1  and  C_2
REMARK    2  A    between atoms: C_2  and  C_3
REMARK    3  A    between atoms: C_3  and  C_4
REMARK    4  A    between atoms: C_4  and  C_5
REMARK    5  A    between atoms: C_5  and  C_6
REMARK    6  A    between atoms: C_6  and  C_7
REMARK    7  A    between atoms: C_7  and  C_8
REMARK    8  A    between atoms: C_8  and  C_9
REMARK    9  A    between atoms: C_9  and  C_10
REMARK   10  A    between atoms: C_10  and  C_11
REMARK   11  A    between atoms: C_11  and  C_12
REMARK   12  A    between atoms: C_17  and  C_18
REMARK   13  A    between atoms: C_18  and  O_19
REMARK                            x       y       z     vdW  Elec       q    Type
REMARK                         _______ _______ _______ _____ _____    ______ ____
ROOT
ATOM      1  C   UNL     1       5.410   6.239  18.023  0.00  0.00    +0.000 C 
ATOM      2  C   UNL     1       6.566   5.468  18.618  0.00  0.00    +0.000 C 
ATOM      3  O   UNL     1       7.748   5.673  18.395  0.00  0.00    +0.000 OA
ATOM      4  O   UNL     1       6.127   4.487  19.456  0.00  0.00    +0.000 OA
ATOM      5  C   UNL     1       4.711   4.480  19.486  0.00  0.00    +0.000 C 
ATOM      6  C   UNL     1       4.134   3.437  18.555  0.00  0.00    +0.000 C 
ATOM      7  O   UNL     1       2.890   4.002  18.117  0.00  0.00    +0.000 OA
ATOM      8  C   UNL     1       2.978   5.364  18.206  0.00  0.00    +0.000 C 
ATOM      9  O   UNL     1       2.130   6.126  17.777  0.00  0.00    +0.000 OA
ATOM     10  C   UNL     1       4.248   5.781  18.889  0.00  0.00    +0.000 C 
ENDROOT
BRANCH   1  11
ATOM     11  C   UNL     1       5.238   5.987  16.520  0.00  0.00    +0.000 C 
BRANCH  11  12
ATOM     12  C   UNL     1       5.996   4.764  15.994  0.00  0.00    +0.000 C 
BRANCH  12  13
ATOM     13  C   UNL     1       5.683   4.466  14.521  0.00  0.00    +0.000 C 
BRANCH  13  14
ATOM     14  C   UNL     1       6.889   4.062  13.673  0.00  0.00    +0.000 C 
BRANCH  14  15
ATOM     15  C   UNL     1       6.565   4.049  12.181  0.00  0.00    +0.000 C 
BRANCH  15  16
ATOM     16  C   UNL     1       6.703   2.654  11.589  0.00  0.00    +0.000 C 
BRANCH  16  17
ATOM     17  C   UNL     1       5.323   2.081  11.281  0.00  0.00    +0.000 C 
BRANCH  17  18
ATOM     18  C   UNL     1       4.233   3.106  11.564  0.00  0.00    +0.000 C 
BRANCH  18  19
ATOM     19  C   UNL     1       3.249   3.186  10.400  0.00  0.00    +0.000 C 
BRANCH  19  21
ATOM     20  C   UNL     1       2.040   4.849   8.962  0.00  0.00    +0.000 C 
ATOM     21  C   UNL     1       3.321   4.548   9.720  0.00  0.00    +0.000 C 
ENDBRANCH  19  21
ENDBRANCH  18  19
ENDBRANCH  17  18
ENDBRANCH  16  17
ENDBRANCH  15  16
ENDBRANCH  14  15
ENDBRANCH  13  14
ENDBRANCH  12  13
ENDBRANCH  11  12
ENDBRANCH   1  11
BRANCH   6  22
ATOM     22  C   UNL     1       3.903   2.091  19.227  0.00  0.00    +0.000 C 
BRANCH  22  23
ATOM     23  O   UNL     1       5.043   1.739  20.005  0.00  0.00    +0.000 OA
ATOM     24  H   UNL     1       4.788   1.821  20.943  0.00  0.00    +0.000 HD
ENDBRANCH  22  23
ENDBRANCH   6  22
TORSDOF 12
ENDMDL
MODEL 2
REMARK VINA RESULT:      -6.9      1.969      3.857
REMARK  Name = 
REMARK  13 active torsions:
REMARK  status: ('A' for Active; 'I' for Inactive)
REMARK    1  A    between atoms: C_1  and  C_2
REMARK    2  A    between atoms: C_2  and  C_3
REMARK    3  A    between atoms: C_3  and  C_4
REMARK    4  A    between atoms: C_4  and  C_5
REMARK    5  A    between atoms: C_5  and  C_6
REMARK    6  A    between atoms: C_6  and  C_7
REMARK    7  A    between atoms: C_7  and  C_8
REMARK    8  A    between atoms: C_8  and  C_9
REMARK    9  A    between atoms: C_9  and  C_10
REMARK   10  A    between atoms: C_10  and  C_11
REMARK   11  A    between atoms: C_11  and  C_12
REMARK   12  A    between atoms: C_17  and  C_18
REMARK   13  A    between atoms: C_18  and  O_19
REMARK                            x       y       z     vdW  Elec       q    Type
REMARK                         _______ _______ _______ _____ _____    ______ ____
ROOT
ATOM      1  C   UNL     1       4.724   3.912  18.290  0.00  0.00    +0.000 C 
ATOM      2  C   UNL     1       3.579   4.693  17.687  0.00  0.00    +0.000 C 
ATOM      3  O   UNL     1       3.686   5.675  16.971  0.00  0.00    +0.000 OA
ATOM      4  O   UNL     1       2.375   4.161  18.044  0.00  0.00    +0.000 OA
ATOM      5  C   UNL     1       2.576   3.049  18.897  0.00  0.00    +0.000 C 
ATOM      6  C   UNL     1       2.429   3.425  20.355  0.00  0.00    +0.000 C 
ATOM      7  O   UNL     1       3.334   2.546  21.041  0.00  0.00    +0.000 OA
ATOM      8  C   UNL     1       4.319   2.175  20.170  0.00  0.00    +0.000 C 
ATOM      9  O   UNL     1       5.307   1.541  20.497  0.00  0.00    +0.000 OA
ATOM     10  C   UNL     1       4.023   2.654  18.779  0.00  0.00    +0.000 C 
ENDROOT
BRANCH   1  11
ATOM     11  C   UNL     1       5.475   4.698  19.371  0.00  0.00    +0.000 C 
BRANCH  11  12
ATOM     12  C   UNL     1       6.883   5.146  18.963  0.00  0.00    +0.000 C 
BRANCH  12  13
ATOM     13  C   UNL     1       6.877   6.475  18.195  0.00  0.00    +0.000 C 
BRANCH  13  14
ATOM     14  C   UNL     1       7.276   6.373  16.723  0.00  0.00    +0.000 C 
BRANCH  14  15
ATOM     15  C   UNL     1       7.035   4.976  16.157  0.00  0.00    +0.000 C 
BRANCH  15  16
ATOM     16  C   UNL     1       7.179   4.951  14.642  0.00  0.00    +0.000 C 
BRANCH  16  17
ATOM     17  C   UNL     1       6.250   3.897  14.048  0.00  0.00    +0.000 C 
BRANCH  17  18
ATOM     18  C   UNL     1       6.393   3.837  12.534  0.00  0.00    +0.000 C 
BRANCH  18  19
ATOM     19  C   UNL     1       5.207   3.108  11.907  0.00  0.00    +0.000 C 
BRANCH  19  21
ATOM     20  C   UNL     1       7.146   1.713  11.138  0.00  0.00    +0.000 C 
ATOM     21  C   UNL     1       5.640   1.768  11.323  0.00  0.00    +0.000 C 
ENDBRANCH  19  21
ENDBRANCH  18  19
ENDBRANCH  17  18
ENDBRANCH  16  17
ENDBRANCH  15  16
ENDBRANCH  14  15
ENDBRANCH  13  14
ENDBRANCH  12  13
ENDBRANCH  11  12
ENDBRANCH   1  11
BRANCH   6  22
ATOM     22  C   UNL     1       1.012   3.252  20.882  0.00  0.00    +0.000 C 
BRANCH  22  23
ATOM     23  O   UNL     1       0.154   2.828  19.827  0.00  0.00    +0.000 OA
ATOM     24  H   UNL     1       0.713   2.690  19.039  0.00  0.00    +0.000 HD
ENDBRANCH  22  23
ENDBRANCH   6  22
TORSDOF 12
ENDMDL
MODEL 3
REMARK VINA RESULT:      -6.8      3.555      7.012
REMARK  Name = 
REMARK  13 active torsions:
REMARK  status: ('A' for Active; 'I' for Inactive)
REMARK    1  A    between atoms: C_1  and  C_2
REMARK    2  A    between atoms: C_2  and  C_3
REMARK    3  A    between atoms: C_3  and  C_4
REMARK    4  A    between atoms: C_4  and  C_5
REMARK    5  A    between atoms: C_5  and  C_6
REMARK    6  A    between atoms: C_6  and  C_7
REMARK    7  A    between atoms: C_7  and  C_8
REMARK    8  A    between atoms: C_8  and  C_9
REMARK    9  A    between atoms: C_9  and  C_10
REMARK   10  A    between atoms: C_10  and  C_11
REMARK   11  A    between atoms: C_11  and  C_12
REMARK   12  A    between atoms: C_17  and  C_18
REMARK   13  A    between atoms: C_18  and  O_19
REMARK                            x       y       z     vdW  Elec       q    Type
REMARK                         _______ _______ _______ _____ _____    ______ ____
ROOT
ATOM      1  C   UNL     1       5.099   3.884  17.448  0.00  0.00    +0.000 C 
ATOM      2  C   UNL     1       5.662   4.007  18.845  0.00  0.00    +0.000 C 
ATOM      3  O   UNL     1       5.175   3.523  19.853  0.00  0.00    +0.000 OA
ATOM      4  O   UNL     1       6.809   4.743  18.852  0.00  0.00    +0.000 OA
ATOM      5  C   UNL     1       7.102   5.189  17.541  0.00  0.00    +0.000 C 
ATOM      6  C   UNL     1       6.628   6.606  17.310  0.00  0.00    +0.000 C 
ATOM      7  O   UNL     1       6.286   6.642  15.916  0.00  0.00    +0.000 OA
ATOM      8  C   UNL     1       5.970   5.374  15.515  0.00  0.00    +0.000 C 
ATOM      9  O   UNL     1       5.508   5.107  14.420  0.00  0.00    +0.000 OA
ATOM     10  C   UNL     1       6.259   4.376  16.597  0.00  0.00    +0.000 C 
ENDROOT
BRANCH   1  11
ATOM     11  C   UNL     1       3.787   4.658  17.265  0.00  0.00    +0.000 C 
BRANCH  11  12
ATOM     12  C   UNL     1       2.537   3.774  17.191  0.00  0.00    +0.000 C 
BRANCH  12  13
ATOM     13  C   UNL     1       2.828   2.313  17.561  0.00  0.00    +0.000 C 
BRANCH  13  14
ATOM     14  C   UNL     1       2.003   1.765  18.726  0.00  0.00    +0.000 C 
BRANCH  14  15
ATOM     15  C   UNL     1       2.029   2.694  19.937  0.00  0.00    +0.000 C 
BRANCH  15  16
ATOM     16  C   UNL     1       0.708   3.429  20.109  0.00  0.00    +0.000 C 
BRANCH  16  17
ATOM     17  C   UNL     1       0.952   4.796  20.740  0.00  0.00    +0.000 C 
BRANCH  17  18
ATOM     18  C   UNL     1       2.289   5.371  20.291  0.00  0.00    +0.000 C 
BRANCH  18  19
ATOM     19  C   UNL     1       2.216   6.891  20.184  0.00  0.00    +0.000 C 
BRANCH  19  21
ATOM     20  C   UNL     1       1.356   8.805  21.562  0.00  0.00    +0.000 C 
ATOM     21  C   UNL     1       1.039   7.437  20.985  0.00  0.00    +0.000 C 
ENDBRANCH  19  21
ENDBRANCH  18  19
ENDBRANCH  17  18
ENDBRANCH  16  17
ENDBRANCH  15  16
ENDBRANCH  14  15
ENDBRANCH  13  14
ENDBRANCH  12  13
ENDBRANCH  11  12
ENDBRANCH   1  11
BRANCH   6  22
ATOM     22  C   UNL     1       7.683   7.655  17.629  0.00  0.00    +0.000 C 
BRANCH  22  23
ATOM     23  O   UNL     1       8.377   7.293  18.819  0.00  0.00    +0.000 OA
ATOM     24  H   UNL     1       9.240   7.749  18.799  0.00  0.00    +0.000 HD
ENDBRANCH  22  23
ENDBRANCH   6  22
TORSDOF 12
ENDMDL
MODEL 4
REMARK VINA RESULT:      -6.8      3.840      6.679
REMARK  Name = 
REMARK  13 active torsions:
REMARK  status: ('A' for Active; 'I' for Inactive)
REMARK    1  A    between atoms: C_1  and  C_2
REMARK    2  A    between atoms: C_2  and  C_3
REMARK    3  A    between atoms: C_3  and  C_4
REMARK    4  A    between atoms: C_4  and  C_5
REMARK    5  A    between atoms: C_5  and  C_6
REMARK    6  A    between atoms: C_6  and  C_7
REMARK    7  A    between atoms: C_7  and  C_8
REMARK    8  A    between atoms: C_8  and  C_9
REMARK    9  A    between atoms: C_9  and  C_10
REMARK   10  A    between atoms: C_10  and  C_11
REMARK   11  A    between atoms: C_11  and  C_12
REMARK   12  A    between atoms: C_17  and  C_18
REMARK   13  A    between atoms: C_18  and  O_19
REMARK                            x       y       z     vdW  Elec       q    Type
REMARK                         _______ _______ _______ _____ _____    ______ ____
ROOT
ATOM      1  C   UNL     1       5.544   4.189  17.474  0.00  0.00    +0.000 C 
ATOM      2  C   UNL     1       5.723   4.296  18.971  0.00  0.00    +0.000 C 
ATOM      3  O   UNL     1       4.955   3.861  19.813  0.00  0.00    +0.000 OA
ATOM      4  O   UNL     1       6.874   4.956  19.284  0.00  0.00    +0.000 OA
ATOM      5  C   UNL     1       7.533   5.361  18.099  0.00  0.00    +0.000 C 
ATOM      6  C   UNL     1       7.233   6.803  17.753  0.00  0.00    +0.000 C 
ATOM      7  O   UNL     1       7.276   6.839  16.318  0.00  0.00    +0.000 OA
ATOM      8  C   UNL     1       6.993   5.588  15.845  0.00  0.00    +0.000 C 
ATOM      9  O   UNL     1       6.821   5.334  14.666  0.00  0.00    +0.000 OA
ATOM     10  C   UNL     1       6.918   4.590  16.963  0.00  0.00    +0.000 C 
ENDROOT
BRANCH   1  11
ATOM     11  C   UNL     1       4.382   5.044  16.952  0.00  0.00    +0.000 C 
BRANCH  11  12
ATOM     12  C   UNL     1       4.084   6.288  17.796  0.00  0.00    +0.000 C 
BRANCH  12  13
ATOM     13  C   UNL     1       2.703   6.230  18.462  0.00  0.00    +0.000 C 
BRANCH  13  14
ATOM     14  C   UNL     1       2.719   6.289  19.990  0.00  0.00    +0.000 C 
BRANCH  14  15
ATOM     15  C   UNL     1       1.362   5.938  20.593  0.00  0.00    +0.000 C 
BRANCH  15  16
ATOM     16  C   UNL     1       0.899   4.553  20.166  0.00  0.00    +0.000 C 
BRANCH  16  17
ATOM     17  C   UNL     1       1.500   3.497  21.088  0.00  0.00    +0.000 C 
BRANCH  17  18
ATOM     18  C   UNL     1       1.942   2.273  20.298  0.00  0.00    +0.000 C 
BRANCH  18  19
ATOM     19  C   UNL     1       1.324   2.276  18.903  0.00  0.00    +0.000 C 
BRANCH  19  21
ATOM     20  C   UNL     1       3.524   1.295  18.199  0.00  0.00    +0.000 C 
ATOM     21  C   UNL     1       2.406   2.254  17.829  0.00  0.00    +0.000 C 
ENDBRANCH  19  21
ENDBRANCH  18  19
ENDBRANCH  17  18
ENDBRANCH  16  17
ENDBRANCH  15  16
ENDBRANCH  14  15
ENDBRANCH  13  14
ENDBRANCH  12  13
ENDBRANCH  11  12
ENDBRANCH   1  11
BRANCH   6  22
ATOM     22  C   UNL     1       8.234   7.785  18.343  0.00  0.00    +0.000 C 
BRANCH  22  23
ATOM     23  O   UNL     1       7.968   9.097  17.853  0.00  0.00    +0.000 OA
ATOM     24  H   UNL     1       8.802   9.601  17.912  0.00  0.00    +0.000 HD
ENDBRANCH  22  23
ENDBRANCH   6  22
TORSDOF 12
ENDMDL
MODEL 5
REMARK VINA RESULT:      -6.7      3.106      6.857
REMARK  Name = 
REMARK  13 active torsions:
REMARK  status: ('A' for Active; 'I' for Inactive)
REMARK    1  A    between atoms: C_1  and  C_2
REMARK    2  A    between atoms: C_2  and  C_3
REMARK    3  A    between atoms: C_3  and  C_4
REMARK    4  A    between atoms: C_4  and  C_5
REMARK    5  A    between atoms: C_5  and  C_6
REMARK    6  A    between atoms: C_6  and  C_7
REMARK    7  A    between atoms: C_7  and  C_8
REMARK    8  A    between atoms: C_8  and  C_9
REMARK    9  A    between atoms: C_9  and  C_10
REMARK   10  A    between atoms: C_10  and  C_11
REMARK   11  A    between atoms: C_11  and  C_12
REMARK   12  A    between atoms: C_17  and  C_18
REMARK   13  A    between atoms: C_18  and  O_19
REMARK                            x       y       z     vdW  Elec       q    Type
REMARK                         _______ _______ _______ _____ _____    ______ ____
ROOT
ATOM      1  C   UNL     1       5.513   6.427  17.493  0.00  0.00    +0.000 C 
ATOM      2  C   UNL     1       6.821   7.122  17.190  0.00  0.00    +0.000 C 
ATOM      3  O   UNL     1       7.140   8.236  17.571  0.00  0.00    +0.000 OA
ATOM      4  O   UNL     1       7.628   6.341  16.418  0.00  0.00    +0.000 OA
ATOM      5  C   UNL     1       6.973   5.123  16.117  0.00  0.00    +0.000 C 
ATOM      6  C   UNL     1       6.319   5.158  14.753  0.00  0.00    +0.000 C 
ATOM      7  O   UNL     1       5.167   4.312  14.891  0.00  0.00    +0.000 OA
ATOM      8  C   UNL     1       4.798   4.294  16.207  0.00  0.00    +0.000 C 
ATOM      9  O   UNL     1       3.775   3.774  16.615  0.00  0.00    +0.000 OA
ATOM     10  C   UNL     1       5.809   4.999  17.063  0.00  0.00    +0.000 C 
ENDROOT
BRANCH   1  11
ATOM     11  C   UNL     1       4.316   7.081  16.792  0.00  0.00    +0.000 C 
BRANCH  11  12
ATOM     12  C   UNL     1       3.347   7.800  17.736  0.00  0.00    +0.000 C 
BRANCH  12  13
ATOM     13  C   UNL     1       2.586   6.830  18.649  0.00  0.00    +0.000 C 
BRANCH  13  14
ATOM     14  C   UNL     1       2.029   7.450  19.931  0.00  0.00    +0.000 C 
BRANCH  14  15
ATOM     15  C   UNL     1       1.347   6.415  20.821  0.00  0.00    +0.000 C 
BRANCH  15  16
ATOM     16  C   UNL     1       2.060   5.071  20.769  0.00  0.00    +0.000 C 
BRANCH  16  17
ATOM     17  C   UNL     1       1.054   3.959  20.492  0.00  0.00    +0.000 C 
BRANCH  17  18
ATOM     18  C   UNL     1       1.763   2.662  20.125  0.00  0.00    +0.000 C 
BRANCH  18  19
ATOM     19  C   UNL     1       3.147   2.603  20.765  0.00  0.00    +0.000 C 
BRANCH  19  21
ATOM     20  C   UNL     1       3.565   1.315  18.652  0.00  0.00    +0.000 C 
ATOM     21  C   UNL     1       4.194   2.148  19.755  0.00  0.00    +0.000 C 
ENDBRANCH  19  21
ENDBRANCH  18  19
ENDBRANCH  17  18
ENDBRANCH  16  17
ENDBRANCH  15  16
ENDBRANCH  14  15
ENDBRANCH  13  14
ENDBRANCH  12  13
ENDBRANCH  11  12
ENDBRANCH   1  11
BRANCH   6  22
ATOM     22  C   UNL     1       7.223   4.653  13.638  0.00  0.00    +0.000 C 
BRANCH  22  23
ATOM     23  O   UNL     1       8.268   5.593  13.402  0.00  0.00    +0.000 OA
ATOM     24  H   UNL     1       9.082   5.222  13.792  0.00  0.00    +0.000 HD
ENDBRANCH  22  23
ENDBRANCH   6  22
TORSDOF 12
ENDMDL
MODEL 6
REMARK VINA RESULT:      -6.7      1.841      2.944
REMARK  Name = 
REMARK  13 active torsions:
REMARK  status: ('A' for Active; 'I' for Inactive)
REMARK    1  A    between atoms: C_1  and  C_2
REMARK    2  A    between atoms: C_2  and  C_3
REMARK    3  A    between atoms: C_3  and  C_4
REMARK    4  A    between atoms: C_4  and  C_5
REMARK    5  A    between atoms: C_5  and  C_6
REMARK    6  A    between atoms: C_6  and  C_7
REMARK    7  A    between atoms: C_7  and  C_8
REMARK    8  A    between atoms: C_8  and  C_9
REMARK    9  A    between atoms: C_9  and  C_10
REMARK   10  A    between atoms: C_10  and  C_11
REMARK   11  A    between atoms: C_11  and  C_12
REMARK   12  A    between atoms: C_17  and  C_18
REMARK   13  A    between atoms: C_18  and  O_19
REMARK                            x       y       z     vdW  Elec       q    Type
REMARK                         _______ _______ _______ _____ _____    ______ ____
ROOT
ATOM      1  C   UNL     1       2.168   5.764  18.320  0.00  0.00    +0.000 C 
ATOM      2  C   UNL     1       2.287   6.270  19.740  0.00  0.00    +0.000 C 
ATOM      3  O   UNL     1       2.426   7.436  20.071  0.00  0.00    +0.000 OA
ATOM      4  O   UNL     1       2.219   5.246  20.637  0.00  0.00    +0.000 OA
ATOM      5  C   UNL     1       2.084   4.015  19.950  0.00  0.00    +0.000 C 
ATOM      6  C   UNL     1       3.413   3.308  19.798  0.00  0.00    +0.000 C 
ATOM      7  O   UNL     1       3.294   2.596  18.556  0.00  0.00    +0.000 OA
ATOM      8  C   UNL     1       2.377   3.240  17.774  0.00  0.00    +0.000 C 
ATOM      9  O   UNL     1       2.161   2.953  16.610  0.00  0.00    +0.000 OA
ATOM     10  C   UNL     1       1.691   4.337  18.534  0.00  0.00    +0.000 C 
ENDROOT
BRANCH   1  11
ATOM     11  C   UNL     1       3.475   5.900  17.530  0.00  0.00    +0.000 C 
BRANCH  11  12
ATOM     12  C   UNL     1       4.742   5.830  18.388  0.00  0.00    +0.000 C 
BRANCH  12  13
ATOM     13  C   UNL     1       5.923   5.193  17.644  0.00  0.00    +0.000 C 
BRANCH  13  14
ATOM     14  C   UNL     1       6.035   5.569  16.166  0.00  0.00    +0.000 C 
BRANCH  14  15
ATOM     15  C   UNL     1       6.048   4.342  15.259  0.00  0.00    +0.000 C 
BRANCH  15  16
ATOM     16  C   UNL     1       6.795   4.612  13.960  0.00  0.00    +0.000 C 
BRANCH  16  17
ATOM     17  C   UNL     1       6.411   3.571  12.914  0.00  0.00    +0.000 C 
BRANCH  17  18
ATOM     18  C   UNL     1       4.930   3.665  12.571  0.00  0.00    +0.000 C 
BRANCH  18  19
ATOM     19  C   UNL     1       4.641   2.989  11.233  0.00  0.00    +0.000 C 
BRANCH  19  21
ATOM     20  C   UNL     1       3.041   4.138   9.678  0.00  0.00    +0.000 C 
ATOM     21  C   UNL     1       3.179   3.169  10.839  0.00  0.00    +0.000 C 
ENDBRANCH  19  21
ENDBRANCH  18  19
ENDBRANCH  17  18
ENDBRANCH  16  17
ENDBRANCH  15  16
ENDBRANCH  14  15
ENDBRANCH  13  14
ENDBRANCH  12  13
ENDBRANCH  11  12
ENDBRANCH   1  11
BRANCH   6  22
ATOM     22  C   UNL     1       3.719   2.348  20.938  0.00  0.00    +0.000 C 
BRANCH  22  23
ATOM     23  O   UNL     1       2.750   2.501  21.971  0.00  0.00    +0.000 OA
ATOM     24  H   UNL     1       3.030   1.936  22.715  0.00  0.00    +0.000 HD
ENDBRANCH  22  23
ENDBRANCH   6  22
TORSDOF 12
ENDMDL
MODEL 7
REMARK VINA RESULT:      -6.7      4.434      7.502
REMARK  Name = 
REMARK  13 active torsions:
REMARK  status: ('A' for Active; 'I' for Inactive)
REMARK    1  A    between atoms: C_1  and  C_2
REMARK    2  A    between atoms: C_2  and  C_3
REMARK    3  A    between atoms: C_3  and  C_4
REMARK    4  A    between atoms: C_4  and  C_5
REMARK    5  A    between atoms: C_5  and  C_6
REMARK    6  A    between atoms: C_6  and  C_7
REMARK    7  A    between atoms: C_7  and  C_8
REMARK    8  A    between atoms: C_8  and  C_9
REMARK    9  A    between atoms: C_9  and  C_10
REMARK   10  A    between atoms: C_10  and  C_11
REMARK   11  A    between atoms: C_11  and  C_12
REMARK   12  A    between atoms: C_17  and  C_18
REMARK   13  A    between atoms: C_18  and  O_19
REMARK                            x       y       z     vdW  Elec       q    Type
REMARK                         _______ _______ _______ _____ _____    ______ ____
ROOT
ATOM      1  C   UNL     1       4.881   4.127  18.021  0.00  0.00    +0.000 C 
ATOM      2  C   UNL     1       3.857   5.134  17.549  0.00  0.00    +0.000 C 
ATOM      3  O   UNL     1       4.090   6.124  16.875  0.00  0.00    +0.000 OA
ATOM      4  O   UNL     1       2.605   4.803  17.976  0.00  0.00    +0.000 OA
ATOM      5  C   UNL     1       2.661   3.624  18.757  0.00  0.00    +0.000 C 
ATOM      6  C   UNL     1       2.687   3.930  20.238  0.00  0.00    +0.000 C 
ATOM      7  O   UNL     1       3.464   2.865  20.806  0.00  0.00    +0.000 OA
ATOM      8  C   UNL     1       4.302   2.378  19.842  0.00  0.00    +0.000 C 
ATOM      9  O   UNL     1       5.179   1.561  20.059  0.00  0.00    +0.000 OA
ATOM     10  C   UNL     1       4.000   2.986  18.504  0.00  0.00    +0.000 C 
ENDROOT
BRANCH   1  11
ATOM     11  C   UNL     1       5.837   4.700  19.074  0.00  0.00    +0.000 C 
BRANCH  11  12
ATOM     12  C   UNL     1       7.257   4.961  18.562  0.00  0.00    +0.000 C 
BRANCH  12  13
ATOM     13  C   UNL     1       7.681   6.427  18.724  0.00  0.00    +0.000 C 
BRANCH  13  14
ATOM     14  C   UNL     1       7.680   7.246  17.433  0.00  0.00    +0.000 C 
BRANCH  14  15
ATOM     15  C   UNL     1       7.607   8.747  17.703  0.00  0.00    +0.000 C 
BRANCH  15  16
ATOM     16  C   UNL     1       8.682   9.193  18.683  0.00  0.00    +0.000 C 
BRANCH  16  17
ATOM     17  C   UNL     1       9.298  10.508  18.215  0.00  0.00    +0.000 C 
BRANCH  17  18
ATOM     18  C   UNL     1      10.243  11.071  19.268  0.00  0.00    +0.000 C 
BRANCH  18  19
ATOM     19  C   UNL     1      10.779  12.435  18.840  0.00  0.00    +0.000 C 
BRANCH  19  21
ATOM     20  C   UNL     1      11.307  13.895  16.869  0.00  0.00    +0.000 C 
ATOM     21  C   UNL     1      11.008  12.481  17.334  0.00  0.00    +0.000 C 
ENDBRANCH  19  21
ENDBRANCH  18  19
ENDBRANCH  17  18
ENDBRANCH  16  17
ENDBRANCH  15  16
ENDBRANCH  14  15
ENDBRANCH  13  14
ENDBRANCH  12  13
ENDBRANCH  11  12
ENDBRANCH   1  11
BRANCH   6  22
ATOM     22  C   UNL     1       1.303   3.979  20.869  0.00  0.00    +0.000 C 
BRANCH  22  23
ATOM     23  O   UNL     1       0.321   3.613  19.903  0.00  0.00    +0.000 OA
ATOM     24  H   UNL     1       0.670   2.843  19.415  0.00  0.00    +0.000 HD
ENDBRANCH  22  23
ENDBRANCH   6  22
TORSDOF 12
ENDMDL
MODEL 8
REMARK VINA RESULT:      -6.6      3.877      7.029
REMARK  Name = 
REMARK  13 active torsions:
REMARK  status: ('A' for Active; 'I' for Inactive)
REMARK    1  A    between atoms: C_1  and  C_2
REMARK    2  A    between atoms: C_2  and  C_3
REMARK    3  A    between atoms: C_3  and  C_4
REMARK    4  A    between atoms: C_4  and  C_5
REMARK    5  A    between atoms: C_5  and  C_6
REMARK    6  A    between atoms: C_6  and  C_7
REMARK    7  A    between atoms: C_7  and  C_8
REMARK    8  A    between atoms: C_8  and  C_9
REMARK    9  A    between atoms: C_9  and  C_10
REMARK   10  A    between atoms: C_10  and  C_11
REMARK   11  A    between atoms: C_11  and  C_12
REMARK   12  A    between atoms: C_17  and  C_18
REMARK   13  A    between atoms: C_18  and  O_19
REMARK                            x       y       z     vdW  Elec       q    Type
REMARK                         _______ _______ _______ _____ _____    ______ ____
ROOT
ATOM      1  C   UNL     1       2.957   5.268  17.400  0.00  0.00    +0.000 C 
ATOM      2  C   UNL     1       2.918   6.448  18.344  0.00  0.00    +0.000 C 
ATOM      3  O   UNL     1       3.426   7.538  18.143  0.00  0.00    +0.000 OA
ATOM      4  O   UNL     1       2.231   6.146  19.483  0.00  0.00    +0.000 OA
ATOM      5  C   UNL     1       1.789   4.802  19.435  0.00  0.00    +0.000 C 
ATOM      6  C   UNL     1       2.719   3.877  20.187  0.00  0.00    +0.000 C 
ATOM      7  O   UNL     1       2.633   2.633  19.476  0.00  0.00    +0.000 OA
ATOM      8  C   UNL     1       2.269   2.897  18.185  0.00  0.00    +0.000 C 
ATOM      9  O   UNL     1       2.246   2.057  17.303  0.00  0.00    +0.000 OA
ATOM     10  C   UNL     1       1.914   4.344  18.007  0.00  0.00    +0.000 C 
ENDROOT
BRANCH   1  11
ATOM     11  C   UNL     1       4.360   4.663  17.262  0.00  0.00    +0.000 C 
BRANCH  11  12
ATOM     12  C   UNL     1       5.220   5.305  16.169  0.00  0.00    +0.000 C 
BRANCH  12  13
ATOM     13  C   UNL     1       6.636   5.639  16.657  0.00  0.00    +0.000 C 
BRANCH  13  14
ATOM     14  C   UNL     1       6.729   6.092  18.114  0.00  0.00    +0.000 C 
BRANCH  14  15
ATOM     15  C   UNL     1       7.970   6.941  18.376  0.00  0.00    +0.000 C 
BRANCH  15  16
ATOM     16  C   UNL     1       7.873   8.300  17.697  0.00  0.00    +0.000 C 
BRANCH  16  17
ATOM     17  C   UNL     1       8.675   9.332  18.484  0.00  0.00    +0.000 C 
BRANCH  17  18
ATOM     18  C   UNL     1       8.515  10.721  17.881  0.00  0.00    +0.000 C 
BRANCH  18  19
ATOM     19  C   UNL     1       9.305  11.753  18.682  0.00  0.00    +0.000 C 
BRANCH  19  21
ATOM     20  C   UNL     1      11.526  11.840  19.847  0.00  0.00    +0.000 C 
ATOM     21  C   UNL     1      10.804  11.510  18.552  0.00  0.00    +0.000 C 
ENDBRANCH  19  21
ENDBRANCH  18  19
ENDBRANCH  17  18
ENDBRANCH  16  17
ENDBRANCH  15  16
ENDBRANCH  14  15
ENDBRANCH  13  14
ENDBRANCH  12  13
ENDBRANCH  11  12
ENDBRANCH   1  11
BRANCH   6  22
ATOM     22  C   UNL     1       2.330   3.686  21.646  0.00  0.00    +0.000 C 
BRANCH  22  23
ATOM     23  O   UNL     1       2.677   2.371  22.070  0.00  0.00    +0.000 OA
ATOM     24  H   UNL     1       2.277   1.749  21.433  0.00  0.00    +0.000 HD
ENDBRANCH  22  23
ENDBRANCH   6  22
TORSDOF 12
ENDMDL
MODEL 9
REMARK VINA RESULT:      -6.6      3.897      6.523
REMARK  Name = 
REMARK  13 active torsions:
REMARK  status: ('A' for Active; 'I' for Inactive)
REMARK    1  A    between atoms: C_1  and  C_2
REMARK    2  A    between atoms: C_2  and  C_3
REMARK    3  A    between atoms: C_3  and  C_4
REMARK    4  A    between atoms: C_4  and  C_5
REMARK    5  A    between atoms: C_5  and  C_6
REMARK    6  A    between atoms: C_6  and  C_7
REMARK    7  A    between atoms: C_7  and  C_8
REMARK    8  A    between atoms: C_8  and  C_9
REMARK    9  A    between atoms: C_9  and  C_10
REMARK   10  A    between atoms: C_10  and  C_11
REMARK   11  A    between atoms: C_11  and  C_12
REMARK   12  A    between atoms: C_17  and  C_18
REMARK   13  A    between atoms: C_18  and  O_19
REMARK                            x       y       z     vdW  Elec       q    Type
REMARK                         _______ _______ _______ _____ _____    ______ ____
ROOT
ATOM      1  C   UNL     1       5.585   6.116  16.360  0.00  0.00    +0.000 C 
ATOM      2  C   UNL     1       5.523   4.616  16.538  0.00  0.00    +0.000 C 
ATOM      3  O   UNL     1       4.585   3.900  16.229  0.00  0.00    +0.000 OA
ATOM      4  O   UNL     1       6.669   4.138  17.101  0.00  0.00    +0.000 OA
ATOM      5  C   UNL     1       7.555   5.209  17.371  0.00  0.00    +0.000 C 
ATOM      6  C   UNL     1       7.469   5.661  18.812  0.00  0.00    +0.000 C 
ATOM      7  O   UNL     1       7.753   7.067  18.760  0.00  0.00    +0.000 OA
ATOM      8  C   UNL     1       7.423   7.529  17.516  0.00  0.00    +0.000 C 
ATOM      9  O   UNL     1       7.424   8.709  17.211  0.00  0.00    +0.000 OA
ATOM     10  C   UNL     1       7.059   6.400  16.597  0.00  0.00    +0.000 C 
ENDROOT
BRANCH   1  11
ATOM     11  C   UNL     1       4.622   6.864  17.291  0.00  0.00    +0.000 C 
BRANCH  11  12
ATOM     12  C   UNL     1       3.667   5.957  18.074  0.00  0.00    +0.000 C 
BRANCH  12  13
ATOM     13  C   UNL     1       3.014   6.676  19.262  0.00  0.00    +0.000 C 
BRANCH  13  14
ATOM     14  C   UNL     1       1.862   5.918  19.922  0.00  0.00    +0.000 C 
BRANCH  14  15
ATOM     15  C   UNL     1       2.356   4.874  20.919  0.00  0.00    +0.000 C 
BRANCH  15  16
ATOM     16  C   UNL     1       1.423   3.673  20.983  0.00  0.00    +0.000 C 
BRANCH  16  17
ATOM     17  C   UNL     1       0.668   3.531  19.665  0.00  0.00    +0.000 C 
BRANCH  17  18
ATOM     18  C   UNL     1       1.068   2.250  18.945  0.00  0.00    +0.000 C 
BRANCH  18  19
ATOM     19  C   UNL     1       2.322   2.472  18.103  0.00  0.00    +0.000 C 
BRANCH  19  21
ATOM     20  C   UNL     1       4.427   2.367  19.466  0.00  0.00    +0.000 C 
ATOM     21  C   UNL     1       3.465   1.587  18.588  0.00  0.00    +0.000 C 
ENDBRANCH  19  21
ENDBRANCH  18  19
ENDBRANCH  17  18
ENDBRANCH  16  17
ENDBRANCH  15  16
ENDBRANCH  14  15
ENDBRANCH  13  14
ENDBRANCH  12  13
ENDBRANCH  11  12
ENDBRANCH   1  11
BRANCH   6  22
ATOM     22  C   UNL     1       8.455   4.949  19.727  0.00  0.00    +0.000 C 
BRANCH  22  23
ATOM     23  O   UNL     1       8.210   5.322  21.081  0.00  0.00    +0.000 OA
ATOM     24  H   UNL     1       7.948   6.262  21.077  0.00  0.00    +0.000 HD
ENDBRANCH  22  23
ENDBRANCH   6  22
TORSDOF 12
ENDMDL
