MODEL 1
REMARK VINA RESULT:      -8.4      0.000      0.000
REMARK  Name = 
REMARK  4 active torsions:
REMARK  status: ('A' for Active; 'I' for Inactive)
REMARK    1  A    between atoms: C_4  and  C_5
REMARK    2  A    between atoms: C_5  and  N_6
REMARK    3  A    between atoms: N_6  and  C_7
REMARK    4  A    between atoms: C_14  and  C_15
REMARK                            x       y       z     vdW  Elec       q    Type
REMARK                         _______ _______ _______ _____ _____    ______ ____
ROOT
ATOM      1  C   UNL     1       4.175   3.444  19.962  0.00  0.00    +0.000 A 
ATOM      2  N   UNL     1       3.612   2.224  19.976  0.00  0.00    +0.000 NA
ATOM      3  C   UNL     1       2.672   2.022  19.042  0.00  0.00    +0.000 A 
ATOM      4  N   UNL     1       2.271   2.926  18.154  0.00  0.00    +0.000 NA
ATOM      5  C   UNL     1       2.582   4.195  18.436  0.00  0.00    +0.000 A 
ATOM      6  C   UNL     1       2.039   5.179  17.644  0.00  0.00    +0.000 A 
ATOM      7  C   UNL     1       1.954   6.499  18.078  0.00  0.00    +0.000 A 
ATOM      8  C   UNL     1       2.327   6.864  19.381  0.00  0.00    +0.000 A 
ATOM      9  C   UNL     1       3.158   5.924  20.051  0.00  0.00    +0.000 A 
ATOM     10  C   UNL     1       3.363   4.563  19.525  0.00  0.00    +0.000 A 
ENDROOT
BRANCH   8  11
ATOM     11  C   UNL     1       1.683   8.127  19.910  0.00  0.00    +0.000 A 
ATOM     12  C   UNL     1       1.291   9.255  19.159  0.00  0.00    +0.000 A 
ATOM     13  C   UNL     1       0.567  10.324  19.756  0.00  0.00    +0.000 A 
ATOM     14  C   UNL     1       0.210  10.253  21.090  0.00  0.00    +0.000 A 
ATOM     15  C   UNL     1       0.607   9.183  21.849  0.00  0.00    +0.000 A 
ATOM     16  C   UNL     1       1.358   8.157  21.304  0.00  0.00    +0.000 A 
ATOM     17  O   UNL     1       0.137   9.249  23.132  0.00  0.00    +0.000 OA
ATOM     18  C   UNL     1      -0.747  10.379  23.022  0.00  0.00    +0.000 C 
ATOM     19  O   UNL     1      -0.557  11.122  21.796  0.00  0.00    +0.000 OA
ENDBRANCH   8  11
BRANCH   1  20
ATOM     20  N   UNL     1       5.381   3.330  19.216  0.00  0.00    +0.000 N 
ATOM     21  H   UNL     1       5.906   2.604  19.697  0.00  0.00    +0.000 HD
BRANCH  20  22
ATOM     22  C   UNL     1       6.295   4.419  18.882  0.00  0.00    +0.000 C 
BRANCH  22  26
ATOM     23  C   UNL     1       5.294   5.652  14.835  0.00  0.00    +0.000 A 
ATOM     24  C   UNL     1       5.654   4.347  15.102  0.00  0.00    +0.000 A 
ATOM     25  C   UNL     1       5.974   3.980  16.401  0.00  0.00    +0.000 A 
ATOM     26  C   UNL     1       5.940   4.891  17.476  0.00  0.00    +0.000 A 
ATOM     27  C   UNL     1       5.597   6.221  17.187  0.00  0.00    +0.000 A 
ATOM     28  C   UNL     1       5.271   6.595  15.873  0.00  0.00    +0.000 A 
ENDBRANCH  22  26
ENDBRANCH  20  22
ENDBRANCH   1  20
TORSDOF 4
ENDMDL
MODEL 2
REMARK VINA RESULT:      -8.3      5.002      7.071
REMARK  Name = 
REMARK  4 active torsions:
REMARK  status: ('A' for Active; 'I' for Inactive)
REMARK    1  A    between atoms: C_4  and  C_5
REMARK    2  A    between atoms: C_5  and  N_6
REMARK    3  A    between atoms: N_6  and  C_7
REMARK    4  A    between atoms: C_14  and  C_15
REMARK                            x       y       z     vdW  Elec       q    Type
REMARK                         _______ _______ _______ _____ _____    ______ ____
ROOT
ATOM      1  C   UNL     1       5.373   6.078  16.149  0.00  0.00    +0.000 A 
ATOM      2  N   UNL     1       5.751   5.076  15.336  0.00  0.00    +0.000 NA
ATOM      3  C   UNL     1       6.809   4.371  15.758  0.00  0.00    +0.000 A 
ATOM      4  N   UNL     1       7.487   4.606  16.877  0.00  0.00    +0.000 NA
ATOM      5  C   UNL     1       7.307   5.812  17.423  0.00  0.00    +0.000 A 
ATOM      6  C   UNL     1       8.117   6.167  18.476  0.00  0.00    +0.000 A 
ATOM      7  C   UNL     1       8.302   7.499  18.837  0.00  0.00    +0.000 A 
ATOM      8  C   UNL     1       7.750   8.543  18.078  0.00  0.00    +0.000 A 
ATOM      9  C   UNL     1       6.689   8.159  17.213  0.00  0.00    +0.000 A 
ATOM     10  C   UNL     1       6.399   6.742  16.930  0.00  0.00    +0.000 A 
ENDROOT
BRANCH   8  11
ATOM     11  C   UNL     1       8.454   9.877  18.204  0.00  0.00    +0.000 A 
ATOM     12  C   UNL     1       8.242  11.024  17.412  0.00  0.00    +0.000 A 
ATOM     13  C   UNL     1       8.870  12.262  17.723  0.00  0.00    +0.000 A 
ATOM     14  C   UNL     1       9.683  12.361  18.837  0.00  0.00    +0.000 A 
ATOM     15  C   UNL     1       9.930  11.253  19.605  0.00  0.00    +0.000 A 
ATOM     16  C   UNL     1       9.374  10.025  19.292  0.00  0.00    +0.000 A 
ATOM     17  O   UNL     1      10.718  11.533  20.688  0.00  0.00    +0.000 OA
ATOM     18  C   UNL     1      10.768  12.968  20.603  0.00  0.00    +0.000 C 
ATOM     19  O   UNL     1      10.279  13.472  19.339  0.00  0.00    +0.000 OA
ENDBRANCH   8  11
BRANCH   1  20
ATOM     20  N   UNL     1       4.321   5.571  16.962  0.00  0.00    +0.000 N 
ATOM     21  H   UNL     1       3.596   5.308  16.298  0.00  0.00    +0.000 HD
BRANCH  20  22
ATOM     22  C   UNL     1       3.691   6.258  18.085  0.00  0.00    +0.000 C 
BRANCH  22  26
ATOM     23  C   UNL     1       0.867   3.414  19.770  0.00  0.00    +0.000 A 
ATOM     24  C   UNL     1       1.270   3.307  18.455  0.00  0.00    +0.000 A 
ATOM     25  C   UNL     1       2.168   4.231  17.939  0.00  0.00    +0.000 A 
ATOM     26  C   UNL     1       2.700   5.283  18.712  0.00  0.00    +0.000 A 
ATOM     27  C   UNL     1       2.263   5.396  20.041  0.00  0.00    +0.000 A 
ATOM     28  C   UNL     1       1.354   4.461  20.566  0.00  0.00    +0.000 A 
ENDBRANCH  22  26
ENDBRANCH  20  22
ENDBRANCH   1  20
TORSDOF 4
ENDMDL
MODEL 3
REMARK VINA RESULT:      -8.2      0.655      1.121
REMARK  Name = 
REMARK  4 active torsions:
REMARK  status: ('A' for Active; 'I' for Inactive)
REMARK    1  A    between atoms: C_4  and  C_5
REMARK    2  A    between atoms: C_5  and  N_6
REMARK    3  A    between atoms: N_6  and  C_7
REMARK    4  A    between atoms: C_14  and  C_15
REMARK                            x       y       z     vdW  Elec       q    Type
REMARK                         _______ _______ _______ _____ _____    ______ ____
ROOT
ATOM      1  C   UNL     1       3.196   3.366  19.924  0.00  0.00    +0.000 A 
ATOM      2  N   UNL     1       2.471   2.274  19.627  0.00  0.00    +0.000 NA
ATOM      3  C   UNL     1       1.747   2.362  18.502  0.00  0.00    +0.000 A 
ATOM      4  N   UNL     1       1.696   3.427  17.708  0.00  0.00    +0.000 NA
ATOM      5  C   UNL     1       2.119   4.574  18.247  0.00  0.00    +0.000 A 
ATOM      6  C   UNL     1       1.920   5.731  17.530  0.00  0.00    +0.000 A 
ATOM      7  C   UNL     1       1.934   6.980  18.144  0.00  0.00    +0.000 A 
ATOM      8  C   UNL     1       2.052   7.106  19.537  0.00  0.00    +0.000 A 
ATOM      9  C   UNL     1       2.562   5.958  20.202  0.00  0.00    +0.000 A 
ATOM     10  C   UNL     1       2.677   4.657  19.517  0.00  0.00    +0.000 A 
ENDROOT
BRANCH   8  11
ATOM     11  C   UNL     1       1.499   8.389  20.120  0.00  0.00    +0.000 A 
ATOM     12  C   UNL     1       1.303   9.611  19.443  0.00  0.00    +0.000 A 
ATOM     13  C   UNL     1       0.642  10.704  20.069  0.00  0.00    +0.000 A 
ATOM     14  C   UNL     1       0.154  10.567  21.356  0.00  0.00    +0.000 A 
ATOM     15  C   UNL     1       0.360   9.402  22.046  0.00  0.00    +0.000 A 
ATOM     16  C   UNL     1       1.046   8.343  21.478  0.00  0.00    +0.000 A 
ATOM     17  O   UNL     1      -0.221   9.418  23.285  0.00  0.00    +0.000 OA
ATOM     18  C   UNL     1      -0.965  10.647  23.201  0.00  0.00    +0.000 C 
ATOM     19  O   UNL     1      -0.580  11.459  22.068  0.00  0.00    +0.000 OA
ENDBRANCH   8  11
BRANCH   1  20
ATOM     20  N   UNL     1       4.509   3.133  19.429  0.00  0.00    +0.000 N 
ATOM     21  H   UNL     1       4.861   2.368  20.001  0.00  0.00    +0.000 HD
BRANCH  20  22
ATOM     22  C   UNL     1       5.567   4.129  19.287  0.00  0.00    +0.000 C 
BRANCH  22  26
ATOM     23  C   UNL     1       5.376   5.768  15.264  0.00  0.00    +0.000 A 
ATOM     24  C   UNL     1       5.508   6.601  16.356  0.00  0.00    +0.000 A 
ATOM     25  C   UNL     1       5.561   6.054  17.630  0.00  0.00    +0.000 A 
ATOM     26  C   UNL     1       5.493   4.665  17.861  0.00  0.00    +0.000 A 
ATOM     27  C   UNL     1       5.334   3.829  16.745  0.00  0.00    +0.000 A 
ATOM     28  C   UNL     1       5.281   4.381  15.453  0.00  0.00    +0.000 A 
ENDBRANCH  22  26
ENDBRANCH  20  22
ENDBRANCH   1  20
TORSDOF 4
ENDMDL
MODEL 4
REMARK VINA RESULT:      -8.2      5.400      7.684
REMARK  Name = 
REMARK  4 active torsions:
REMARK  status: ('A' for Active; 'I' for Inactive)
REMARK    1  A    between atoms: C_4  and  C_5
REMARK    2  A    between atoms: C_5  and  N_6
REMARK    3  A    between atoms: N_6  and  C_7
REMARK    4  A    between atoms: C_14  and  C_15
REMARK                            x       y       z     vdW  Elec       q    Type
REMARK                         _______ _______ _______ _____ _____    ______ ____
ROOT
ATOM      1  C   UNL     1       5.713   6.592  16.085  0.00  0.00    +0.000 A 
ATOM      2  N   UNL     1       6.073   5.620  15.230  0.00  0.00    +0.000 NA
ATOM      3  C   UNL     1       6.992   4.764  15.698  0.00  0.00    +0.000 A 
ATOM      4  N   UNL     1       7.556   4.829  16.900  0.00  0.00    +0.000 NA
ATOM      5  C   UNL     1       7.445   6.003  17.530  0.00  0.00    +0.000 A 
ATOM      6  C   UNL     1       8.160   6.177  18.691  0.00  0.00    +0.000 A 
ATOM      7  C   UNL     1       8.444   7.445  19.189  0.00  0.00    +0.000 A 
ATOM      8  C   UNL     1       8.101   8.603  18.473  0.00  0.00    +0.000 A 
ATOM      9  C   UNL     1       7.114   8.415  17.468  0.00  0.00    +0.000 A 
ATOM     10  C   UNL     1       6.706   7.068  17.029  0.00  0.00    +0.000 A 
ENDROOT
BRANCH   8  11
ATOM     11  C   UNL     1       8.926   9.830  18.794  0.00  0.00    +0.000 A 
ATOM     12  C   UNL     1       9.356  10.251  20.070  0.00  0.00    +0.000 A 
ATOM     13  C   UNL     1      10.247  11.350  20.224  0.00  0.00    +0.000 A 
ATOM     14  C   UNL     1      10.729  12.006  19.106  0.00  0.00    +0.000 A 
ATOM     15  C   UNL     1      10.302  11.637  17.858  0.00  0.00    +0.000 A 
ATOM     16  C   UNL     1       9.394  10.607  17.686  0.00  0.00    +0.000 A 
ATOM     17  O   UNL     1      10.905  12.358  16.864  0.00  0.00    +0.000 OA
ATOM     18  C   UNL     1      11.887  13.077  17.631  0.00  0.00    +0.000 C 
ATOM     19  O   UNL     1      11.652  13.000  19.056  0.00  0.00    +0.000 OA
ENDBRANCH   8  11
BRANCH   1  20
ATOM     20  N   UNL     1       4.524   6.151  16.730  0.00  0.00    +0.000 N 
ATOM     21  H   UNL     1       3.891   5.930  15.965  0.00  0.00    +0.000 HD
BRANCH  20  22
ATOM     22  C   UNL     1       3.778   6.878  17.753  0.00  0.00    +0.000 C 
BRANCH  22  26
ATOM     23  C   UNL     1       1.202   4.070  19.847  0.00  0.00    +0.000 A 
ATOM     24  C   UNL     1       1.736   5.158  20.506  0.00  0.00    +0.000 A 
ATOM     25  C   UNL     1       2.560   6.036  19.817  0.00  0.00    +0.000 A 
ATOM     26  C   UNL     1       2.873   5.869  18.453  0.00  0.00    +0.000 A 
ATOM     27  C   UNL     1       2.344   4.745  17.800  0.00  0.00    +0.000 A 
ATOM     28  C   UNL     1       1.509   3.854  18.496  0.00  0.00    +0.000 A 
ENDBRANCH  22  26
ENDBRANCH  20  22
ENDBRANCH   1  20
TORSDOF 4
ENDMDL
MODEL 5
REMARK VINA RESULT:      -8.2      0.972      1.586
REMARK  Name = 
REMARK  4 active torsions:
REMARK  status: ('A' for Active; 'I' for Inactive)
REMARK    1  A    between atoms: C_4  and  C_5
REMARK    2  A    between atoms: C_5  and  N_6
REMARK    3  A    between atoms: N_6  and  C_7
REMARK    4  A    between atoms: C_14  and  C_15
REMARK                            x       y       z     vdW  Elec       q    Type
REMARK                         _______ _______ _______ _____ _____    ______ ____
ROOT
ATOM      1  C   UNL     1       3.321   3.262  19.829  0.00  0.00    +0.000 A 
ATOM      2  N   UNL     1       2.636   2.178  19.427  0.00  0.00    +0.000 NA
ATOM      3  C   UNL     1       1.929   2.339  18.300  0.00  0.00    +0.000 A 
ATOM      4  N   UNL     1       1.857   3.465  17.597  0.00  0.00    +0.000 NA
ATOM      5  C   UNL     1       2.235   4.574  18.239  0.00  0.00    +0.000 A 
ATOM      6  C   UNL     1       2.011   5.781  17.618  0.00  0.00    +0.000 A 
ATOM      7  C   UNL     1       1.976   6.974  18.334  0.00  0.00    +0.000 A 
ATOM      8  C   UNL     1       2.067   6.986  19.735  0.00  0.00    +0.000 A 
ATOM      9  C   UNL     1       2.601   5.801  20.310  0.00  0.00    +0.000 A 
ATOM     10  C   UNL     1       2.769   4.567  19.522  0.00  0.00    +0.000 A 
ENDROOT
BRANCH   8  11
ATOM     11  C   UNL     1       1.464   8.197  20.412  0.00  0.00    +0.000 A 
ATOM     12  C   UNL     1       1.238   8.370  21.794  0.00  0.00    +0.000 A 
ATOM     13  C   UNL     1       0.792   9.615  22.319  0.00  0.00    +0.000 A 
ATOM     14  C   UNL     1       0.602  10.690  21.471  0.00  0.00    +0.000 A 
ATOM     15  C   UNL     1       0.784  10.540  20.122  0.00  0.00    +0.000 A 
ATOM     16  C   UNL     1       1.164   9.324  19.581  0.00  0.00    +0.000 A 
ATOM     17  O   UNL     1       0.595  11.708  19.435  0.00  0.00    +0.000 OA
ATOM     18  C   UNL     1       0.464  12.630  20.532  0.00  0.00    +0.000 C 
ATOM     19  O   UNL     1       0.279  11.966  21.803  0.00  0.00    +0.000 OA
ENDBRANCH   8  11
BRANCH   1  20
ATOM     20  N   UNL     1       4.649   3.111  19.341  0.00  0.00    +0.000 N 
ATOM     21  H   UNL     1       5.023   2.326  19.871  0.00  0.00    +0.000 HD
BRANCH  20  22
ATOM     22  C   UNL     1       5.669   4.153  19.279  0.00  0.00    +0.000 C 
BRANCH  22  26
ATOM     23  C   UNL     1       5.389   5.864  15.291  0.00  0.00    +0.000 A 
ATOM     24  C   UNL     1       5.361   4.496  15.472  0.00  0.00    +0.000 A 
ATOM     25  C   UNL     1       5.458   3.975  16.754  0.00  0.00    +0.000 A 
ATOM     26  C   UNL     1       5.577   4.792  17.896  0.00  0.00    +0.000 A 
ATOM     27  C   UNL     1       5.630   6.180  17.698  0.00  0.00    +0.000 A 
ATOM     28  C   UNL     1       5.531   6.711  16.400  0.00  0.00    +0.000 A 
ENDBRANCH  22  26
ENDBRANCH  20  22
ENDBRANCH   1  20
TORSDOF 4
ENDMDL
MODEL 6
REMARK VINA RESULT:      -8.2      0.919      1.517
REMARK  Name = 
REMARK  4 active torsions:
REMARK  status: ('A' for Active; 'I' for Inactive)
REMARK    1  A    between atoms: C_4  and  C_5
REMARK    2  A    between atoms: C_5  and  N_6
REMARK    3  A    between atoms: N_6  and  C_7
REMARK    4  A    between atoms: C_14  and  C_15
REMARK                            x       y       z     vdW  Elec       q    Type
REMARK                         _______ _______ _______ _____ _____    ______ ____
ROOT
ATOM      1  C   UNL     1       4.340   3.434  19.721  0.00  0.00    +0.000 A 
ATOM      2  N   UNL     1       3.808   2.205  19.842  0.00  0.00    +0.000 NA
ATOM      3  C   UNL     1       2.770   1.953  19.033  0.00  0.00    +0.000 A 
ATOM      4  N   UNL     1       2.249   2.817  18.167  0.00  0.00    +0.000 NA
ATOM      5  C   UNL     1       2.564   4.100  18.367  0.00  0.00    +0.000 A 
ATOM      6  C   UNL     1       1.911   5.046  17.611  0.00  0.00    +0.000 A 
ATOM      7  C   UNL     1       1.850   6.379  18.007  0.00  0.00    +0.000 A 
ATOM      8  C   UNL     1       2.364   6.797  19.244  0.00  0.00    +0.000 A 
ATOM      9  C   UNL     1       3.287   5.897  19.844  0.00  0.00    +0.000 A 
ATOM     10  C   UNL     1       3.458   4.521  19.345  0.00  0.00    +0.000 A 
ENDROOT
BRANCH   8  11
ATOM     11  C   UNL     1       1.759   8.068  19.801  0.00  0.00    +0.000 A 
ATOM     12  C   UNL     1       1.389   9.218  19.073  0.00  0.00    +0.000 A 
ATOM     13  C   UNL     1       0.699  10.295  19.696  0.00  0.00    +0.000 A 
ATOM     14  C   UNL     1       0.354  10.210  21.033  0.00  0.00    +0.000 A 
ATOM     15  C   UNL     1       0.729   9.117  21.768  0.00  0.00    +0.000 A 
ATOM     16  C   UNL     1       1.448   8.082  21.199  0.00  0.00    +0.000 A 
ATOM     17  O   UNL     1       0.274   9.174  23.058  0.00  0.00    +0.000 OA
ATOM     18  C   UNL     1      -0.580  10.328  22.976  0.00  0.00    +0.000 C 
ATOM     19  O   UNL     1      -0.383  11.087  21.761  0.00  0.00    +0.000 OA
ENDBRANCH   8  11
BRANCH   1  20
ATOM     20  N   UNL     1       5.453   3.313  18.843  0.00  0.00    +0.000 N 
ATOM     21  H   UNL     1       6.248   3.610  19.404  0.00  0.00    +0.000 HD
BRANCH  20  22
ATOM     22  C   UNL     1       5.574   3.912  17.517  0.00  0.00    +0.000 C 
BRANCH  22  26
ATOM     23  C   UNL     1       7.817   7.596  18.063  0.00  0.00    +0.000 A 
ATOM     24  C   UNL     1       8.135   6.467  18.790  0.00  0.00    +0.000 A 
ATOM     25  C   UNL     1       7.400   5.305  18.601  0.00  0.00    +0.000 A 
ATOM     26  C   UNL     1       6.334   5.223  17.682  0.00  0.00    +0.000 A 
ATOM     27  C   UNL     1       6.005   6.386  16.968  0.00  0.00    +0.000 A 
ATOM     28  C   UNL     1       6.748   7.563  17.156  0.00  0.00    +0.000 A 
ENDBRANCH  22  26
ENDBRANCH  20  22
ENDBRANCH   1  20
TORSDOF 4
ENDMDL
MODEL 7
REMARK VINA RESULT:      -8.1      0.862      1.836
REMARK  Name = 
REMARK  4 active torsions:
REMARK  status: ('A' for Active; 'I' for Inactive)
REMARK    1  A    between atoms: C_4  and  C_5
REMARK    2  A    between atoms: C_5  and  N_6
REMARK    3  A    between atoms: N_6  and  C_7
REMARK    4  A    between atoms: C_14  and  C_15
REMARK                            x       y       z     vdW  Elec       q    Type
REMARK                         _______ _______ _______ _____ _____    ______ ____
ROOT
ATOM      1  C   UNL     1       4.413   3.343  19.826  0.00  0.00    +0.000 A 
ATOM      2  N   UNL     1       3.913   2.095  19.858  0.00  0.00    +0.000 NA
ATOM      3  C   UNL     1       2.948   1.847  18.962  0.00  0.00    +0.000 A 
ATOM      4  N   UNL     1       2.466   2.730  18.093  0.00  0.00    +0.000 NA
ATOM      5  C   UNL     1       2.725   4.013  18.366  0.00  0.00    +0.000 A 
ATOM      6  C   UNL     1       2.101   4.969  17.599  0.00  0.00    +0.000 A 
ATOM      7  C   UNL     1       1.967   6.283  18.039  0.00  0.00    +0.000 A 
ATOM      8  C   UNL     1       2.372   6.665  19.328  0.00  0.00    +0.000 A 
ATOM      9  C   UNL     1       3.276   5.768  19.961  0.00  0.00    +0.000 A 
ATOM     10  C   UNL     1       3.528   4.419  19.425  0.00  0.00    +0.000 A 
ENDROOT
BRANCH   8  11
ATOM     11  C   UNL     1       1.687   7.894  19.884  0.00  0.00    +0.000 A 
ATOM     12  C   UNL     1       1.256   8.094  21.213  0.00  0.00    +0.000 A 
ATOM     13  C   UNL     1       0.750   9.353  21.642  0.00  0.00    +0.000 A 
ATOM     14  C   UNL     1       0.702  10.414  20.757  0.00  0.00    +0.000 A 
ATOM     15  C   UNL     1       1.085  10.236  19.454  0.00  0.00    +0.000 A 
ATOM     16  C   UNL     1       1.530   9.008  18.998  0.00  0.00    +0.000 A 
ATOM     17  O   UNL     1       1.015  11.393  18.726  0.00  0.00    +0.000 OA
ATOM     18  C   UNL     1       0.729  12.336  19.773  0.00  0.00    +0.000 C 
ATOM     19  O   UNL     1       0.346  11.698  21.014  0.00  0.00    +0.000 OA
ENDBRANCH   8  11
BRANCH   1  20
ATOM     20  N   UNL     1       5.593   3.291  19.031  0.00  0.00    +0.000 N 
ATOM     21  H   UNL     1       6.172   2.591  19.489  0.00  0.00    +0.000 HD
BRANCH  20  22
ATOM     22  C   UNL     1       6.437   4.424  18.666  0.00  0.00    +0.000 C 
BRANCH  22  26
ATOM     23  C   UNL     1       5.339   5.688  14.654  0.00  0.00    +0.000 A 
ATOM     24  C   UNL     1       5.229   6.559  15.719  0.00  0.00    +0.000 A 
ATOM     25  C   UNL     1       5.580   6.129  16.990  0.00  0.00    +0.000 A 
ATOM     26  C   UNL     1       6.059   4.828  17.245  0.00  0.00    +0.000 A 
ATOM     27  C   UNL     1       6.143   3.945  16.158  0.00  0.00    +0.000 A 
ATOM     28  C   UNL     1       5.789   4.378  14.869  0.00  0.00    +0.000 A 
ENDBRANCH  22  26
ENDBRANCH  20  22
ENDBRANCH   1  20
TORSDOF 4
ENDMDL
MODEL 8
REMARK VINA RESULT:      -8.1      0.984      1.191
REMARK  Name = 
REMARK  4 active torsions:
REMARK  status: ('A' for Active; 'I' for Inactive)
REMARK    1  A    between atoms: C_4  and  C_5
REMARK    2  A    between atoms: C_5  and  N_6
REMARK    3  A    between atoms: N_6  and  C_7
REMARK    4  A    between atoms: C_14  and  C_15
REMARK                            x       y       z     vdW  Elec       q    Type
REMARK                         _______ _______ _______ _____ _____    ______ ____
ROOT
ATOM      1  C   UNL     1       5.089   3.866  19.495  0.00  0.00    +0.000 A 
ATOM      2  N   UNL     1       4.808   2.615  19.900  0.00  0.00    +0.000 NA
ATOM      3  C   UNL     1       3.683   2.093  19.393  0.00  0.00    +0.000 A 
ATOM      4  N   UNL     1       2.857   2.720  18.562  0.00  0.00    +0.000 NA
ATOM      5  C   UNL     1       2.985   4.049  18.509  0.00  0.00    +0.000 A 
ATOM      6  C   UNL     1       2.041   4.757  17.803  0.00  0.00    +0.000 A 
ATOM      7  C   UNL     1       1.838   6.117  18.019  0.00  0.00    +0.000 A 
ATOM      8  C   UNL     1       2.519   6.804  19.036  0.00  0.00    +0.000 A 
ATOM      9  C   UNL     1       3.684   6.151  19.523  0.00  0.00    +0.000 A 
ATOM     10  C   UNL     1       3.978   4.745  19.189  0.00  0.00    +0.000 A 
ENDROOT
BRANCH   8  11
ATOM     11  C   UNL     1       1.837   8.057  19.540  0.00  0.00    +0.000 A 
ATOM     12  C   UNL     1       1.390   9.148  18.765  0.00  0.00    +0.000 A 
ATOM     13  C   UNL     1       0.636  10.206  19.345  0.00  0.00    +0.000 A 
ATOM     14  C   UNL     1       0.304  10.159  20.687  0.00  0.00    +0.000 A 
ATOM     15  C   UNL     1       0.753   9.127  21.467  0.00  0.00    +0.000 A 
ATOM     16  C   UNL     1       1.533   8.114  20.939  0.00  0.00    +0.000 A 
ATOM     17  O   UNL     1       0.301   9.212  22.757  0.00  0.00    +0.000 OA
ATOM     18  C   UNL     1      -0.625  10.305  22.631  0.00  0.00    +0.000 C 
ATOM     19  O   UNL     1      -0.483  11.019  21.381  0.00  0.00    +0.000 OA
ENDBRANCH   8  11
BRANCH   1  20
ATOM     20  N   UNL     1       6.000   3.750  18.409  0.00  0.00    +0.000 N 
ATOM     21  H   UNL     1       6.684   3.066  18.727  0.00  0.00    +0.000 HD
BRANCH  20  22
ATOM     22  C   UNL     1       6.711   4.847  17.759  0.00  0.00    +0.000 C 
BRANCH  22  26
ATOM     23  C   UNL     1       6.270   4.173  13.486  0.00  0.00    +0.000 A 
ATOM     24  C   UNL     1       5.384   3.609  14.380  0.00  0.00    +0.000 A 
ATOM     25  C   UNL     1       5.550   3.834  15.739  0.00  0.00    +0.000 A 
ATOM     26  C   UNL     1       6.592   4.631  16.253  0.00  0.00    +0.000 A 
ATOM     27  C   UNL     1       7.502   5.179  15.335  0.00  0.00    +0.000 A 
ATOM     28  C   UNL     1       7.336   4.953  13.958  0.00  0.00    +0.000 A 
ENDBRANCH  22  26
ENDBRANCH  20  22
ENDBRANCH   1  20
TORSDOF 4
ENDMDL
MODEL 9
REMARK VINA RESULT:      -8.0      1.658      3.393
REMARK  Name = 
REMARK  4 active torsions:
REMARK  status: ('A' for Active; 'I' for Inactive)
REMARK    1  A    between atoms: C_4  and  C_5
REMARK    2  A    between atoms: C_5  and  N_6
REMARK    3  A    between atoms: N_6  and  C_7
REMARK    4  A    between atoms: C_14  and  C_15
REMARK                            x       y       z     vdW  Elec       q    Type
REMARK                         _______ _______ _______ _____ _____    ______ ____
ROOT
ATOM      1  C   UNL     1       5.701   5.614  17.072  0.00  0.00    +0.000 A 
ATOM      2  N   UNL     1       6.927   5.483  17.609  0.00  0.00    +0.000 NA
ATOM      3  C   UNL     1       6.946   5.184  18.915  0.00  0.00    +0.000 A 
ATOM      4  N   UNL     1       5.869   5.033  19.680  0.00  0.00    +0.000 NA
ATOM      5  C   UNL     1       4.734   5.542  19.192  0.00  0.00    +0.000 A 
ATOM      6  C   UNL     1       3.636   5.570  20.019  0.00  0.00    +0.000 A 
ATOM      7  C   UNL     1       2.563   6.422  19.777  0.00  0.00    +0.000 A 
ATOM      8  C   UNL     1       2.599   7.363  18.736  0.00  0.00    +0.000 A 
ATOM      9  C   UNL     1       3.572   7.106  17.731  0.00  0.00    +0.000 A 
ATOM     10  C   UNL     1       4.636   6.105  17.925  0.00  0.00    +0.000 A 
ENDROOT
BRANCH   8  11
ATOM     11  C   UNL     1       1.693   8.562  18.915  0.00  0.00    +0.000 A 
ATOM     12  C   UNL     1       1.007   9.263  17.901  0.00  0.00    +0.000 A 
ATOM     13  C   UNL     1       0.073  10.289  18.216  0.00  0.00    +0.000 A 
ATOM     14  C   UNL     1      -0.196  10.593  19.538  0.00  0.00    +0.000 A 
ATOM     15  C   UNL     1       0.481   9.948  20.540  0.00  0.00    +0.000 A 
ATOM     16  C   UNL     1       1.433   8.985  20.258  0.00  0.00    +0.000 A 
ATOM     17  O   UNL     1       0.066  10.338  21.785  0.00  0.00    +0.000 OA
ATOM     18  C   UNL     1      -1.068  11.149  21.433  0.00  0.00    +0.000 C 
ATOM     19  O   UNL     1      -1.118  11.463  20.022  0.00  0.00    +0.000 OA
ENDBRANCH   8  11
BRANCH   1  20
ATOM     20  N   UNL     1       5.379   4.364  16.474  0.00  0.00    +0.000 N 
ATOM     21  H   UNL     1       6.092   4.237  15.760  0.00  0.00    +0.000 HD
BRANCH  20  22
ATOM     22  C   UNL     1       4.087   3.984  15.911  0.00  0.00    +0.000 C 
BRANCH  22  26
ATOM     23  C   UNL     1       1.852   2.141  19.153  0.00  0.00    +0.000 A 
ATOM     24  C   UNL     1       3.134   1.724  18.859  0.00  0.00    +0.000 A 
ATOM     25  C   UNL     1       3.824   2.324  17.815  0.00  0.00    +0.000 A 
ATOM     26  C   UNL     1       3.270   3.361  17.038  0.00  0.00    +0.000 A 
ATOM     27  C   UNL     1       1.956   3.759  17.330  0.00  0.00    +0.000 A 
ATOM     28  C   UNL     1       1.255   3.153  18.387  0.00  0.00    +0.000 A 
ENDBRANCH  22  26
ENDBRANCH  20  22
ENDBRANCH   1  20
TORSDOF 4
ENDMDL
