MODEL 1
REMARK VINA RESULT:      -7.7      0.000      0.000
REMARK  Name = 
REMARK  8 active torsions:
REMARK  status: ('A' for Active; 'I' for Inactive)
REMARK    1  A    between atoms: C_2  and  C_3
REMARK    2  A    between atoms: C_9  and  N_10
REMARK    3  A    between atoms: N_10  and  C_11
REMARK    4  A    between atoms: C_11  and  C_12
REMARK    5  A    between atoms: C_12  and  N_13
REMARK    6  A    between atoms: C_21  and  N_22
REMARK    7  A    between atoms: N_22  and  C_23
REMARK    8  A    between atoms: C_23  and  C_24
REMARK                            x       y       z     vdW  Elec       q    Type
REMARK                         _______ _______ _______ _____ _____    ______ ____
ROOT
ATOM      1  C   UNL     1       3.017   3.258  19.204  0.00  0.00    +0.000 A 
ATOM      2  C   UNL     1       2.552   3.394  20.508  0.00  0.00    +0.000 A 
ATOM      3  N   UNL     1       2.093   4.543  21.043  0.00  0.00    +0.000 NA
ATOM      4  C   UNL     1       2.115   5.639  20.265  0.00  0.00    +0.000 A 
ATOM      5  C   UNL     1       1.721   6.864  20.772  0.00  0.00    +0.000 A 
ATOM      6  N   UNL     1       1.739   8.047  20.106  0.00  0.00    +0.000 NA
ATOM      7  C   UNL     1       2.166   8.036  18.838  0.00  0.00    +0.000 A 
ATOM      8  C   UNL     1       2.536   6.850  18.223  0.00  0.00    +0.000 A 
ATOM      9  C   UNL     1       2.551   5.622  18.925  0.00  0.00    +0.000 A 
ATOM     10  C   UNL     1       2.989   4.380  18.350  0.00  0.00    +0.000 A 
ENDROOT
BRANCH   1  12
ATOM     11  N   UNL     1       3.894   0.925  18.512  0.00  0.00    +0.000 NA
ATOM     12  C   UNL     1       3.520   1.965  18.845  0.00  0.00    +0.000 C 
ENDBRANCH   1  12
BRANCH   7  13
ATOM     13  N   UNL     1       2.213   9.214  18.074  0.00  0.00    +0.000 N 
ATOM     14  H   UNL     1       2.953   9.819  18.426  0.00  0.00    +0.000 HD
BRANCH  13  15
ATOM     15  C   UNL     1       0.920   9.900  17.990  0.00  0.00    +0.000 C 
BRANCH  15  16
ATOM     16  C   UNL     1       1.026  11.289  18.658  0.00  0.00    +0.000 C 
BRANCH  16  17
ATOM     17  N   UNL     1      -0.232  11.871  19.174  0.00  0.00    +0.000 NA
ATOM     18  C   UNL     1      -0.054  13.202  19.798  0.00  0.00    +0.000 C 
ATOM     19  C   UNL     1       0.782  13.150  21.086  0.00  0.00    +0.000 C 
ATOM     20  O   UNL     1       0.152  12.307  22.061  0.00  0.00    +0.000 OA
ATOM     21  C   UNL     1      -0.040  10.982  21.546  0.00  0.00    +0.000 C 
ATOM     22  C   UNL     1      -0.822  10.989  20.216  0.00  0.00    +0.000 C 
ENDBRANCH  16  17
ENDBRANCH  15  16
ENDBRANCH  13  15
ENDBRANCH   7  13
BRANCH  10  23
ATOM     23  N   UNL     1       3.513   4.415  17.035  0.00  0.00    +0.000 N 
ATOM     24  H   UNL     1       2.916   3.932  16.377  0.00  0.00    +0.000 HD
BRANCH  23  25
ATOM     25  C   UNL     1       4.895   4.066  16.715  0.00  0.00    +0.000 C 
BRANCH  25  26
ATOM     26  C   UNL     1       5.835   5.124  17.269  0.00  0.00    +0.000 A 
ATOM     27  C   UNL     1       5.995   6.381  16.656  0.00  0.00    +0.000 A 
ATOM     28  C   UNL     1       6.935   7.296  17.148  0.00  0.00    +0.000 A 
ATOM     29  C   UNL     1       7.717   6.965  18.252  0.00  0.00    +0.000 A 
ATOM     30  F   UNL     1       8.623   7.849  18.693  0.00  0.00    +0.000 F 
ATOM     31  C   UNL     1       7.555   5.734  18.883  0.00  0.00    +0.000 A 
ATOM     32 CL   UNL     1       8.501   5.315  20.257  0.00  0.00    +0.000 Cl
ATOM     33  C   UNL     1       6.618   4.823  18.398  0.00  0.00    +0.000 A 
ENDBRANCH  25  26
ENDBRANCH  23  25
ENDBRANCH  10  23
TORSDOF 8
ENDMDL
MODEL 2
REMARK VINA RESULT:      -7.5      0.778      1.004
REMARK  Name = 
REMARK  8 active torsions:
REMARK  status: ('A' for Active; 'I' for Inactive)
REMARK    1  A    between atoms: C_2  and  C_3
REMARK    2  A    between atoms: C_9  and  N_10
REMARK    3  A    between atoms: N_10  and  C_11
REMARK    4  A    between atoms: C_11  and  C_12
REMARK    5  A    between atoms: C_12  and  N_13
REMARK    6  A    between atoms: C_21  and  N_22
REMARK    7  A    between atoms: N_22  and  C_23
REMARK    8  A    between atoms: C_23  and  C_24
REMARK                            x       y       z     vdW  Elec       q    Type
REMARK                         _______ _______ _______ _____ _____    ______ ____
ROOT
ATOM      1  C   UNL     1       3.004   3.257  19.209  0.00  0.00    +0.000 A 
ATOM      2  C   UNL     1       2.552   3.408  20.516  0.00  0.00    +0.000 A 
ATOM      3  N   UNL     1       2.100   4.564  21.044  0.00  0.00    +0.000 NA
ATOM      4  C   UNL     1       2.116   5.651  20.254  0.00  0.00    +0.000 A 
ATOM      5  C   UNL     1       1.729   6.882  20.751  0.00  0.00    +0.000 A 
ATOM      6  N   UNL     1       1.742   8.058  20.073  0.00  0.00    +0.000 NA
ATOM      7  C   UNL     1       2.157   8.033  18.801  0.00  0.00    +0.000 A 
ATOM      8  C   UNL     1       2.519   6.840  18.195  0.00  0.00    +0.000 A 
ATOM      9  C   UNL     1       2.539   5.619  18.910  0.00  0.00    +0.000 A 
ATOM     10  C   UNL     1       2.969   4.370  18.344  0.00  0.00    +0.000 A 
ENDROOT
BRANCH   1  12
ATOM     11  N   UNL     1       3.934   0.916  18.620  0.00  0.00    +0.000 NA
ATOM     12  C   UNL     1       3.501   1.959  18.859  0.00  0.00    +0.000 C 
ENDBRANCH   1  12
BRANCH   7  13
ATOM     13  N   UNL     1       2.198   9.202  18.023  0.00  0.00    +0.000 N 
ATOM     14  H   UNL     1       3.023   9.746  18.272  0.00  0.00    +0.000 HD
BRANCH  13  15
ATOM     15  C   UNL     1       0.963   9.989  18.098  0.00  0.00    +0.000 C 
BRANCH  15  16
ATOM     16  C   UNL     1       1.249  11.337  18.795  0.00  0.00    +0.000 C 
BRANCH  16  17
ATOM     17  N   UNL     1       0.101  11.994  19.458  0.00  0.00    +0.000 NA
ATOM     18  C   UNL     1      -0.351  13.227  18.773  0.00  0.00    +0.000 C 
ATOM     19  C   UNL     1       0.691  14.355  18.830  0.00  0.00    +0.000 C 
ATOM     20  O   UNL     1       0.976  14.708  20.191  0.00  0.00    +0.000 OA
ATOM     21  C   UNL     1       1.445  13.570  20.928  0.00  0.00    +0.000 C 
ATOM     22  C   UNL     1       0.458  12.386  20.847  0.00  0.00    +0.000 C 
ENDBRANCH  16  17
ENDBRANCH  15  16
ENDBRANCH  13  15
ENDBRANCH   7  13
BRANCH  10  23
ATOM     23  N   UNL     1       3.480   4.390  17.023  0.00  0.00    +0.000 N 
ATOM     24  H   UNL     1       2.880   3.894  16.377  0.00  0.00    +0.000 HD
BRANCH  23  25
ATOM     25  C   UNL     1       4.861   4.046  16.695  0.00  0.00    +0.000 C 
BRANCH  25  26
ATOM     26  C   UNL     1       5.802   5.104  17.247  0.00  0.00    +0.000 A 
ATOM     27  C   UNL     1       5.966   6.358  16.629  0.00  0.00    +0.000 A 
ATOM     28  C   UNL     1       6.907   7.274  17.120  0.00  0.00    +0.000 A 
ATOM     29  C   UNL     1       7.684   6.945  18.228  0.00  0.00    +0.000 A 
ATOM     30  F   UNL     1       8.590   7.830  18.668  0.00  0.00    +0.000 F 
ATOM     31  C   UNL     1       7.518   5.717  18.864  0.00  0.00    +0.000 A 
ATOM     32 CL   UNL     1       8.459   5.302  20.243  0.00  0.00    +0.000 Cl
ATOM     33  C   UNL     1       6.581   4.806  18.380  0.00  0.00    +0.000 A 
ENDBRANCH  25  26
ENDBRANCH  23  25
ENDBRANCH  10  23
TORSDOF 8
ENDMDL
MODEL 3
REMARK VINA RESULT:      -7.4      4.516      7.147
REMARK  Name = 
REMARK  8 active torsions:
REMARK  status: ('A' for Active; 'I' for Inactive)
REMARK    1  A    between atoms: C_2  and  C_3
REMARK    2  A    between atoms: C_9  and  N_10
REMARK    3  A    between atoms: N_10  and  C_11
REMARK    4  A    between atoms: C_11  and  C_12
REMARK    5  A    between atoms: C_12  and  N_13
REMARK    6  A    between atoms: C_21  and  N_22
REMARK    7  A    between atoms: N_22  and  C_23
REMARK    8  A    between atoms: C_23  and  C_24
REMARK                            x       y       z     vdW  Elec       q    Type
REMARK                         _______ _______ _______ _____ _____    ______ ____
ROOT
ATOM      1  C   UNL     1       3.224   4.092  17.637  0.00  0.00    +0.000 A 
ATOM      2  C   UNL     1       4.113   3.198  17.051  0.00  0.00    +0.000 A 
ATOM      3  N   UNL     1       5.376   3.498  16.685  0.00  0.00    +0.000 NA
ATOM      4  C   UNL     1       5.789   4.762  16.877  0.00  0.00    +0.000 A 
ATOM      5  C   UNL     1       7.049   5.156  16.463  0.00  0.00    +0.000 A 
ATOM      6  N   UNL     1       7.567   6.407  16.558  0.00  0.00    +0.000 NA
ATOM      7  C   UNL     1       6.799   7.353  17.111  0.00  0.00    +0.000 A 
ATOM      8  C   UNL     1       5.539   7.049  17.601  0.00  0.00    +0.000 A 
ATOM      9  C   UNL     1       4.984   5.753  17.473  0.00  0.00    +0.000 A 
ATOM     10  C   UNL     1       3.658   5.407  17.906  0.00  0.00    +0.000 A 
ENDROOT
BRANCH   1  12
ATOM     11  N   UNL     1       0.861   3.175  18.152  0.00  0.00    +0.000 NA
ATOM     12  C   UNL     1       1.905   3.594  17.896  0.00  0.00    +0.000 C 
ENDBRANCH   1  12
BRANCH   7  13
ATOM     13  N   UNL     1       7.257   8.674  17.253  0.00  0.00    +0.000 N 
ATOM     14  H   UNL     1       7.566   9.025  16.348  0.00  0.00    +0.000 HD
BRANCH  13  15
ATOM     15  C   UNL     1       8.279   8.822  18.293  0.00  0.00    +0.000 C 
BRANCH  15  16
ATOM     16  C   UNL     1       9.143  10.068  17.997  0.00  0.00    +0.000 C 
BRANCH  16  17
ATOM     17  N   UNL     1       8.978  11.218  18.912  0.00  0.00    +0.000 NA
ATOM     18  C   UNL     1       8.987  12.528  18.222  0.00  0.00    +0.000 C 
ATOM     19  C   UNL     1      10.350  12.861  17.593  0.00  0.00    +0.000 C 
ATOM     20  O   UNL     1      11.371  12.907  18.600  0.00  0.00    +0.000 OA
ATOM     21  C   UNL     1      11.448  11.661  19.309  0.00  0.00    +0.000 C 
ATOM     22  C   UNL     1      10.084  11.253  19.905  0.00  0.00    +0.000 C 
ENDBRANCH  16  17
ENDBRANCH  15  16
ENDBRANCH  13  15
ENDBRANCH   7  13
BRANCH  10  23
ATOM     23  N   UNL     1       2.840   6.448  18.410  0.00  0.00    +0.000 N 
ATOM     24  H   UNL     1       3.098   7.349  18.029  0.00  0.00    +0.000 HD
BRANCH  23  25
ATOM     25  C   UNL     1       2.567   6.631  19.833  0.00  0.00    +0.000 C 
BRANCH  25  26
ATOM     26  C   UNL     1       1.754   7.899  20.042  0.00  0.00    +0.000 A 
ATOM     27  C   UNL     1       1.609   8.871  19.035  0.00  0.00    +0.000 A 
ATOM     28  C   UNL     1       0.923  10.065  19.296  0.00  0.00    +0.000 A 
ATOM     29  C   UNL     1       0.380  10.295  20.557  0.00  0.00    +0.000 A 
ATOM     30  F   UNL     1      -0.255  11.452  20.789  0.00  0.00    +0.000 F 
ATOM     31  C   UNL     1       0.497   9.332  21.557  0.00  0.00    +0.000 A 
ATOM     32 CL   UNL     1      -0.182   9.593  23.116  0.00  0.00    +0.000 Cl
ATOM     33  C   UNL     1       1.175   8.142  21.300  0.00  0.00    +0.000 A 
ENDBRANCH  25  26
ENDBRANCH  23  25
ENDBRANCH  10  23
TORSDOF 8
ENDMDL
MODEL 4
REMARK VINA RESULT:      -7.4      4.297      6.826
REMARK  Name = 
REMARK  8 active torsions:
REMARK  status: ('A' for Active; 'I' for Inactive)
REMARK    1  A    between atoms: C_2  and  C_3
REMARK    2  A    between atoms: C_9  and  N_10
REMARK    3  A    between atoms: N_10  and  C_11
REMARK    4  A    between atoms: C_11  and  C_12
REMARK    5  A    between atoms: C_12  and  N_13
REMARK    6  A    between atoms: C_21  and  N_22
REMARK    7  A    between atoms: N_22  and  C_23
REMARK    8  A    between atoms: C_23  and  C_24
REMARK                            x       y       z     vdW  Elec       q    Type
REMARK                         _______ _______ _______ _____ _____    ______ ____
ROOT
ATOM      1  C   UNL     1       3.315   4.106  17.884  0.00  0.00    +0.000 A 
ATOM      2  C   UNL     1       3.692   3.657  16.623  0.00  0.00    +0.000 A 
ATOM      3  N   UNL     1       4.828   4.011  15.989  0.00  0.00    +0.000 NA
ATOM      4  C   UNL     1       5.636   4.884  16.614  0.00  0.00    +0.000 A 
ATOM      5  C   UNL     1       6.784   5.341  15.992  0.00  0.00    +0.000 A 
ATOM      6  N   UNL     1       7.656   6.252  16.495  0.00  0.00    +0.000 NA
ATOM      7  C   UNL     1       7.395   6.753  17.708  0.00  0.00    +0.000 A 
ATOM      8  C   UNL     1       6.295   6.323  18.433  0.00  0.00    +0.000 A 
ATOM      9  C   UNL     1       5.367   5.398  17.898  0.00  0.00    +0.000 A 
ATOM     10  C   UNL     1       4.179   4.973  18.585  0.00  0.00    +0.000 A 
ENDROOT
BRANCH   1  12
ATOM     11  N   UNL     1       1.035   3.264  18.771  0.00  0.00    +0.000 NA
ATOM     12  C   UNL     1       2.037   3.660  18.358  0.00  0.00    +0.000 C 
ENDBRANCH   1  12
BRANCH   7  13
ATOM     13  N   UNL     1       8.247   7.697  18.306  0.00  0.00    +0.000 N 
ATOM     14  H   UNL     1       8.184   7.617  19.319  0.00  0.00    +0.000 HD
BRANCH  13  15
ATOM     15  C   UNL     1       8.011   9.066  17.836  0.00  0.00    +0.000 C 
BRANCH  15  16
ATOM     16  C   UNL     1       8.776  10.062  18.737  0.00  0.00    +0.000 C 
BRANCH  16  17
ATOM     17  N   UNL     1       9.736  10.961  18.061  0.00  0.00    +0.000 NA
ATOM     18  C   UNL     1      10.974  11.196  18.839  0.00  0.00    +0.000 C 
ATOM     19  C   UNL     1      10.721  11.978  20.137  0.00  0.00    +0.000 C 
ATOM     20  O   UNL     1      10.153  13.263  19.848  0.00  0.00    +0.000 OA
ATOM     21  C   UNL     1       8.930  13.129  19.110  0.00  0.00    +0.000 C 
ATOM     22  C   UNL     1       9.122  12.294  17.826  0.00  0.00    +0.000 C 
ENDBRANCH  16  17
ENDBRANCH  15  16
ENDBRANCH  13  15
ENDBRANCH   7  13
BRANCH  10  23
ATOM     23  N   UNL     1       3.887   5.583  19.829  0.00  0.00    +0.000 N 
ATOM     24  H   UNL     1       4.351   5.116  20.597  0.00  0.00    +0.000 HD
BRANCH  23  25
ATOM     25  C   UNL     1       2.529   5.904  20.263  0.00  0.00    +0.000 C 
BRANCH  25  26
ATOM     26  C   UNL     1       2.099   7.234  19.666  0.00  0.00    +0.000 A 
ATOM     27  C   UNL     1       2.348   7.569  18.322  0.00  0.00    +0.000 A 
ATOM     28  C   UNL     1       2.012   8.839  17.833  0.00  0.00    +0.000 A 
ATOM     29  C   UNL     1       1.428   9.778  18.679  0.00  0.00    +0.000 A 
ATOM     30  F   UNL     1       1.133  10.992  18.194  0.00  0.00    +0.000 F 
ATOM     31  C   UNL     1       1.156   9.454  20.006  0.00  0.00    +0.000 A 
ATOM     32 CL   UNL     1       0.420  10.597  21.060  0.00  0.00    +0.000 Cl
ATOM     33  C   UNL     1       1.485   8.191  20.494  0.00  0.00    +0.000 A 
ENDBRANCH  25  26
ENDBRANCH  23  25
ENDBRANCH  10  23
TORSDOF 8
ENDMDL
MODEL 5
REMARK VINA RESULT:      -7.3      4.540      7.241
REMARK  Name = 
REMARK  8 active torsions:
REMARK  status: ('A' for Active; 'I' for Inactive)
REMARK    1  A    between atoms: C_2  and  C_3
REMARK    2  A    between atoms: C_9  and  N_10
REMARK    3  A    between atoms: N_10  and  C_11
REMARK    4  A    between atoms: C_11  and  C_12
REMARK    5  A    between atoms: C_12  and  N_13
REMARK    6  A    between atoms: C_21  and  N_22
REMARK    7  A    between atoms: N_22  and  C_23
REMARK    8  A    between atoms: C_23  and  C_24
REMARK                            x       y       z     vdW  Elec       q    Type
REMARK                         _______ _______ _______ _____ _____    ______ ____
ROOT
ATOM      1  C   UNL     1       3.359   4.362  17.528  0.00  0.00    +0.000 A 
ATOM      2  C   UNL     1       4.124   3.516  16.733  0.00  0.00    +0.000 A 
ATOM      3  N   UNL     1       5.371   3.790  16.298  0.00  0.00    +0.000 NA
ATOM      4  C   UNL     1       5.895   4.980  16.636  0.00  0.00    +0.000 A 
ATOM      5  C   UNL     1       7.142   5.353  16.169  0.00  0.00    +0.000 A 
ATOM      6  N   UNL     1       7.761   6.539  16.400  0.00  0.00    +0.000 NA
ATOM      7  C   UNL     1       7.117   7.434  17.159  0.00  0.00    +0.000 A 
ATOM      8  C   UNL     1       5.882   7.136  17.716  0.00  0.00    +0.000 A 
ATOM      9  C   UNL     1       5.221   5.915  17.448  0.00  0.00    +0.000 A 
ATOM     10  C   UNL     1       3.914   5.589  17.949  0.00  0.00    +0.000 A 
ENDROOT
BRANCH   1  12
ATOM     11  N   UNL     1       0.983   3.532  18.126  0.00  0.00    +0.000 NA
ATOM     12  C   UNL     1       2.032   3.914  17.834  0.00  0.00    +0.000 C 
ENDBRANCH   1  12
BRANCH   7  13
ATOM     13  N   UNL     1       7.684   8.685  17.453  0.00  0.00    +0.000 N 
ATOM     14  H   UNL     1       8.098   9.077  16.609  0.00  0.00    +0.000 HD
BRANCH  13  15
ATOM     15  C   UNL     1       8.629   8.641  18.573  0.00  0.00    +0.000 C 
BRANCH  15  16
ATOM     16  C   UNL     1       8.954  10.080  19.033  0.00  0.00    +0.000 C 
BRANCH  16  17
ATOM     17  N   UNL     1       9.678  10.934  18.066  0.00  0.00    +0.000 NA
ATOM     18  C   UNL     1      11.033  11.322  18.519  0.00  0.00    +0.000 C 
ATOM     19  C   UNL     1      11.008  12.246  19.747  0.00  0.00    +0.000 C 
ATOM     20  O   UNL     1      10.298  13.457  19.452  0.00  0.00    +0.000 OA
ATOM     21  C   UNL     1       8.958  13.174  19.023  0.00  0.00    +0.000 C 
ATOM     22  C   UNL     1       8.931  12.197  17.829  0.00  0.00    +0.000 C 
ENDBRANCH  16  17
ENDBRANCH  15  16
ENDBRANCH  13  15
ENDBRANCH   7  13
BRANCH  10  23
ATOM     23  N   UNL     1       3.224   6.587  18.678  0.00  0.00    +0.000 N 
ATOM     24  H   UNL     1       2.713   6.199  19.461  0.00  0.00    +0.000 HD
BRANCH  23  25
ATOM     25  C   UNL     1       2.369   7.591  18.048  0.00  0.00    +0.000 C 
BRANCH  25  26
ATOM     26  C   UNL     1       1.745   8.478  19.113  0.00  0.00    +0.000 A 
ATOM     27  C   UNL     1       1.644   8.077  20.458  0.00  0.00    +0.000 A 
ATOM     28  C   UNL     1       0.984   8.888  21.392  0.00  0.00    +0.000 A 
ATOM     29  C   UNL     1       0.425  10.099  20.991  0.00  0.00    +0.000 A 
ATOM     30  F   UNL     1      -0.217  10.848  21.898  0.00  0.00    +0.000 F 
ATOM     31  C   UNL     1       0.536  10.518  19.667  0.00  0.00    +0.000 A 
ATOM     32 CL   UNL     1      -0.135  12.018  19.158  0.00  0.00    +0.000 Cl
ATOM     33  C   UNL     1       1.194   9.716  18.737  0.00  0.00    +0.000 A 
ENDBRANCH  25  26
ENDBRANCH  23  25
ENDBRANCH  10  23
TORSDOF 8
ENDMDL
MODEL 6
REMARK VINA RESULT:      -7.2      4.401      7.081
REMARK  Name = 
REMARK  8 active torsions:
REMARK  status: ('A' for Active; 'I' for Inactive)
REMARK    1  A    between atoms: C_2  and  C_3
REMARK    2  A    between atoms: C_9  and  N_10
REMARK    3  A    between atoms: N_10  and  C_11
REMARK    4  A    between atoms: C_11  and  C_12
REMARK    5  A    between atoms: C_12  and  N_13
REMARK    6  A    between atoms: C_21  and  N_22
REMARK    7  A    between atoms: N_22  and  C_23
REMARK    8  A    between atoms: C_23  and  C_24
REMARK                            x       y       z     vdW  Elec       q    Type
REMARK                         _______ _______ _______ _____ _____    ______ ____
ROOT
ATOM      1  C   UNL     1       3.335   4.526  17.537  0.00  0.00    +0.000 A 
ATOM      2  C   UNL     1       4.141   3.629  16.846  0.00  0.00    +0.000 A 
ATOM      3  N   UNL     1       5.413   3.872  16.469  0.00  0.00    +0.000 NA
ATOM      4  C   UNL     1       5.922   5.081  16.760  0.00  0.00    +0.000 A 
ATOM      5  C   UNL     1       7.197   5.421  16.345  0.00  0.00    +0.000 A 
ATOM      6  N   UNL     1       7.807   6.618  16.535  0.00  0.00    +0.000 NA
ATOM      7  C   UNL     1       7.124   7.562  17.194  0.00  0.00    +0.000 A 
ATOM      8  C   UNL     1       5.857   7.303  17.695  0.00  0.00    +0.000 A 
ATOM      9  C   UNL     1       5.207   6.067  17.468  0.00  0.00    +0.000 A 
ATOM     10  C   UNL     1       3.870   5.776  17.909  0.00  0.00    +0.000 A 
ENDROOT
BRANCH   1  12
ATOM     11  N   UNL     1       0.921   3.708  17.980  0.00  0.00    +0.000 NA
ATOM     12  C   UNL     1       1.990   4.100  17.791  0.00  0.00    +0.000 C 
ENDBRANCH   1  12
BRANCH   7  13
ATOM     13  N   UNL     1       7.680   8.828  17.440  0.00  0.00    +0.000 N 
ATOM     14  H   UNL     1       8.089   9.192  16.581  0.00  0.00    +0.000 HD
BRANCH  13  15
ATOM     15  C   UNL     1       8.625   8.836  18.560  0.00  0.00    +0.000 C 
BRANCH  15  16
ATOM     16  C   UNL     1       9.011  10.293  18.902  0.00  0.00    +0.000 C 
BRANCH  16  17
ATOM     17  N   UNL     1       9.512  11.122  17.785  0.00  0.00    +0.000 NA
ATOM     18  C   UNL     1      10.940  11.491  17.918  0.00  0.00    +0.000 C 
ATOM     19  C   UNL     1      11.205  12.428  19.106  0.00  0.00    +0.000 C 
ATOM     20  O   UNL     1      10.466  13.649  18.959  0.00  0.00    +0.000 OA
ATOM     21  C   UNL     1       9.060  13.386  18.845  0.00  0.00    +0.000 C 
ATOM     22  C   UNL     1       8.751  12.396  17.702  0.00  0.00    +0.000 C 
ENDBRANCH  16  17
ENDBRANCH  15  16
ENDBRANCH  13  15
ENDBRANCH   7  13
BRANCH  10  23
ATOM     23  N   UNL     1       3.143   6.822  18.530  0.00  0.00    +0.000 N 
ATOM     24  H   UNL     1       2.754   6.535  19.419  0.00  0.00    +0.000 HD
BRANCH  23  25
ATOM     25  C   UNL     1       2.126   7.609  17.836  0.00  0.00    +0.000 C 
BRANCH  25  26
ATOM     26  C   UNL     1       1.657   8.745  18.730  0.00  0.00    +0.000 A 
ATOM     27  C   UNL     1       1.538  10.067  18.262  0.00  0.00    +0.000 A 
ATOM     28  C   UNL     1       1.184  11.102  19.139  0.00  0.00    +0.000 A 
ATOM     29  C   UNL     1       0.948  10.824  20.483  0.00  0.00    +0.000 A 
ATOM     30  F   UNL     1       0.631  11.832  21.307  0.00  0.00    +0.000 F 
ATOM     31  C   UNL     1       1.042   9.517  20.957  0.00  0.00    +0.000 A 
ATOM     32 CL   UNL     1       0.738   9.154  22.610  0.00  0.00    +0.000 Cl
ATOM     33  C   UNL     1       1.389   8.486  20.086  0.00  0.00    +0.000 A 
ENDBRANCH  25  26
ENDBRANCH  23  25
ENDBRANCH  10  23
TORSDOF 8
ENDMDL
MODEL 7
REMARK VINA RESULT:      -7.1      3.291      5.401
REMARK  Name = 
REMARK  8 active torsions:
REMARK  status: ('A' for Active; 'I' for Inactive)
REMARK    1  A    between atoms: C_2  and  C_3
REMARK    2  A    between atoms: C_9  and  N_10
REMARK    3  A    between atoms: N_10  and  C_11
REMARK    4  A    between atoms: C_11  and  C_12
REMARK    5  A    between atoms: C_12  and  N_13
REMARK    6  A    between atoms: C_21  and  N_22
REMARK    7  A    between atoms: N_22  and  C_23
REMARK    8  A    between atoms: C_23  and  C_24
REMARK                            x       y       z     vdW  Elec       q    Type
REMARK                         _______ _______ _______ _____ _____    ______ ____
ROOT
ATOM      1  C   UNL     1       2.660   7.587  18.387  0.00  0.00    +0.000 A 
ATOM      2  C   UNL     1       2.467   8.634  17.493  0.00  0.00    +0.000 A 
ATOM      3  N   UNL     1       1.755   9.748  17.757  0.00  0.00    +0.000 NA
ATOM      4  C   UNL     1       1.169   9.834  18.963  0.00  0.00    +0.000 A 
ATOM      5  C   UNL     1       0.369  10.919  19.276  0.00  0.00    +0.000 A 
ATOM      6  N   UNL     1      -0.311  11.102  20.435  0.00  0.00    +0.000 NA
ATOM      7  C   UNL     1      -0.198  10.156  21.375  0.00  0.00    +0.000 A 
ATOM      8  C   UNL     1       0.619   9.053  21.177  0.00  0.00    +0.000 A 
ATOM      9  C   UNL     1       1.302   8.844  19.956  0.00  0.00    +0.000 A 
ATOM     10  C   UNL     1       2.106   7.685  19.681  0.00  0.00    +0.000 A 
ENDROOT
BRANCH   1  12
ATOM     11  N   UNL     1       4.023   5.558  17.539  0.00  0.00    +0.000 NA
ATOM     12  C   UNL     1       3.398   6.461  17.893  0.00  0.00    +0.000 C 
ENDBRANCH   1  12
BRANCH   7  13
ATOM     13  N   UNL     1      -0.864  10.266  22.606  0.00  0.00    +0.000 N 
ATOM     14  H   UNL     1      -1.701   9.684  22.594  0.00  0.00    +0.000 HD
BRANCH  13  15
ATOM     15  C   UNL     1      -1.151  11.653  22.986  0.00  0.00    +0.000 C 
BRANCH  15  16
ATOM     16  C   UNL     1      -2.679  11.878  23.009  0.00  0.00    +0.000 C 
BRANCH  16  17
ATOM     17  N   UNL     1      -3.205  12.717  24.108  0.00  0.00    +0.000 NA
ATOM     18  C   UNL     1      -4.683  12.821  24.116  0.00  0.00    +0.000 C 
ATOM     19  C   UNL     1      -5.233  13.575  22.896  0.00  0.00    +0.000 C 
ATOM     20  O   UNL     1      -4.716  14.913  22.856  0.00  0.00    +0.000 OA
ATOM     21  C   UNL     1      -3.282  14.907  22.822  0.00  0.00    +0.000 C 
ATOM     22  C   UNL     1      -2.683  14.105  23.997  0.00  0.00    +0.000 C 
ENDBRANCH  16  17
ENDBRANCH  15  16
ENDBRANCH  13  15
ENDBRANCH   7  13
BRANCH  10  23
ATOM     23  N   UNL     1       2.140   6.662  20.661  0.00  0.00    +0.000 N 
ATOM     24  H   UNL     1       3.070   6.281  20.778  0.00  0.00    +0.000 HD
BRANCH  23  25
ATOM     25  C   UNL     1       1.199   5.545  20.683  0.00  0.00    +0.000 C 
BRANCH  25  26
ATOM     26  C   UNL     1       1.811   4.343  19.982  0.00  0.00    +0.000 A 
ATOM     27  C   UNL     1       1.241   3.779  18.825  0.00  0.00    +0.000 A 
ATOM     28  C   UNL     1       1.787   2.618  18.259  0.00  0.00    +0.000 A 
ATOM     29  C   UNL     1       2.901   2.018  18.841  0.00  0.00    +0.000 A 
ATOM     30  F   UNL     1       3.393   0.898  18.293  0.00  0.00    +0.000 F 
ATOM     31  C   UNL     1       3.488   2.576  19.974  0.00  0.00    +0.000 A 
ATOM     32 CL   UNL     1       4.873   1.856  20.696  0.00  0.00    +0.000 Cl
ATOM     33  C   UNL     1       2.950   3.732  20.537  0.00  0.00    +0.000 A 
ENDBRANCH  25  26
ENDBRANCH  23  25
ENDBRANCH  10  23
TORSDOF 8
ENDMDL
MODEL 8
REMARK VINA RESULT:      -7.1      4.339      7.047
REMARK  Name = 
REMARK  8 active torsions:
REMARK  status: ('A' for Active; 'I' for Inactive)
REMARK    1  A    between atoms: C_2  and  C_3
REMARK    2  A    between atoms: C_9  and  N_10
REMARK    3  A    between atoms: N_10  and  C_11
REMARK    4  A    between atoms: C_11  and  C_12
REMARK    5  A    between atoms: C_12  and  N_13
REMARK    6  A    between atoms: C_21  and  N_22
REMARK    7  A    between atoms: N_22  and  C_23
REMARK    8  A    between atoms: C_23  and  C_24
REMARK                            x       y       z     vdW  Elec       q    Type
REMARK                         _______ _______ _______ _____ _____    ______ ____
ROOT
ATOM      1  C   UNL     1       3.347   4.001  17.700  0.00  0.00    +0.000 A 
ATOM      2  C   UNL     1       3.774   3.666  16.420  0.00  0.00    +0.000 A 
ATOM      3  N   UNL     1       4.932   4.077  15.864  0.00  0.00    +0.000 NA
ATOM      4  C   UNL     1       5.712   4.891  16.595  0.00  0.00    +0.000 A 
ATOM      5  C   UNL     1       6.882   5.403  16.061  0.00  0.00    +0.000 A 
ATOM      6  N   UNL     1       7.730   6.266  16.676  0.00  0.00    +0.000 NA
ATOM      7  C   UNL     1       7.421   6.657  17.918  0.00  0.00    +0.000 A 
ATOM      8  C   UNL     1       6.295   6.162  18.559  0.00  0.00    +0.000 A 
ATOM      9  C   UNL     1       5.393   5.289  17.908  0.00  0.00    +0.000 A 
ATOM     10  C   UNL     1       4.180   4.803  18.508  0.00  0.00    +0.000 A 
ENDROOT
BRANCH   1  12
ATOM     11  N   UNL     1       1.038   3.093  18.432  0.00  0.00    +0.000 NA
ATOM     12  C   UNL     1       2.055   3.513  18.084  0.00  0.00    +0.000 C 
ENDBRANCH   1  12
BRANCH   7  13
ATOM     13  N   UNL     1       8.244   7.545  18.630  0.00  0.00    +0.000 N 
ATOM     14  H   UNL     1       8.000   7.516  19.619  0.00  0.00    +0.000 HD
BRANCH  13  15
ATOM     15  C   UNL     1       8.230   8.907  18.087  0.00  0.00    +0.000 C 
BRANCH  15  16
ATOM     16  C   UNL     1       9.170   9.806  18.921  0.00  0.00    +0.000 C 
BRANCH  16  17
ATOM     17  N   UNL     1       9.251  11.227  18.519  0.00  0.00    +0.000 NA
ATOM     18  C   UNL     1      10.517  11.576  17.833  0.00  0.00    +0.000 C 
ATOM     19  C   UNL     1      11.742  11.473  18.756  0.00  0.00    +0.000 C 
ATOM     20  O   UNL     1      11.607  12.363  19.872  0.00  0.00    +0.000 OA
ATOM     21  C   UNL     1      10.410  12.081  20.612  0.00  0.00    +0.000 C 
ATOM     22  C   UNL     1       9.157  12.110  19.711  0.00  0.00    +0.000 C 
ENDBRANCH  16  17
ENDBRANCH  15  16
ENDBRANCH  13  15
ENDBRANCH   7  13
BRANCH  10  23
ATOM     23  N   UNL     1       3.839   5.299  19.790  0.00  0.00    +0.000 N 
ATOM     24  H   UNL     1       4.414   4.894  20.518  0.00  0.00    +0.000 HD
BRANCH  23  25
ATOM     25  C   UNL     1       2.466   5.348  20.288  0.00  0.00    +0.000 C 
BRANCH  25  26
ATOM     26  C   UNL     1       1.962   6.782  20.267  0.00  0.00    +0.000 A 
ATOM     27  C   UNL     1       1.202   7.326  21.319  0.00  0.00    +0.000 A 
ATOM     28  C   UNL     1       0.683   8.624  21.223  0.00  0.00    +0.000 A 
ATOM     29  C   UNL     1       0.920   9.385  20.081  0.00  0.00    +0.000 A 
ATOM     30  F   UNL     1       0.398  10.617  20.003  0.00  0.00    +0.000 F 
ATOM     31  C   UNL     1       1.689   8.868  19.040  0.00  0.00    +0.000 A 
ATOM     32 CL   UNL     1       2.005   9.801  17.630  0.00  0.00    +0.000 Cl
ATOM     33  C   UNL     1       2.209   7.579  19.135  0.00  0.00    +0.000 A 
ENDBRANCH  25  26
ENDBRANCH  23  25
ENDBRANCH  10  23
TORSDOF 8
ENDMDL
MODEL 9
REMARK VINA RESULT:      -7.1      3.018      5.072
REMARK  Name = 
REMARK  8 active torsions:
REMARK  status: ('A' for Active; 'I' for Inactive)
REMARK    1  A    between atoms: C_2  and  C_3
REMARK    2  A    between atoms: C_9  and  N_10
REMARK    3  A    between atoms: N_10  and  C_11
REMARK    4  A    between atoms: C_11  and  C_12
REMARK    5  A    between atoms: C_12  and  N_13
REMARK    6  A    between atoms: C_21  and  N_22
REMARK    7  A    between atoms: N_22  and  C_23
REMARK    8  A    between atoms: C_23  and  C_24
REMARK                            x       y       z     vdW  Elec       q    Type
REMARK                         _______ _______ _______ _____ _____    ______ ____
ROOT
ATOM      1  C   UNL     1       2.832   7.409  18.330  0.00  0.00    +0.000 A 
ATOM      2  C   UNL     1       2.645   8.464  17.445  0.00  0.00    +0.000 A 
ATOM      3  N   UNL     1       1.911   9.565  17.706  0.00  0.00    +0.000 NA
ATOM      4  C   UNL     1       1.295   9.627  18.899  0.00  0.00    +0.000 A 
ATOM      5  C   UNL     1       0.472  10.696  19.206  0.00  0.00    +0.000 A 
ATOM      6  N   UNL     1      -0.238  10.854  20.352  0.00  0.00    +0.000 NA
ATOM      7  C   UNL     1      -0.133   9.897  21.282  0.00  0.00    +0.000 A 
ATOM      8  C   UNL     1       0.705   8.809  21.089  0.00  0.00    +0.000 A 
ATOM      9  C   UNL     1       1.420   8.625  19.883  0.00  0.00    +0.000 A 
ATOM     10  C   UNL     1       2.248   7.482  19.612  0.00  0.00    +0.000 A 
ENDROOT
BRANCH   1  12
ATOM     11  N   UNL     1       4.228   5.438  17.401  0.00  0.00    +0.000 NA
ATOM     12  C   UNL     1       3.599   6.301  17.840  0.00  0.00    +0.000 C 
ENDBRANCH   1  12
BRANCH   7  13
ATOM     13  N   UNL     1      -0.829   9.981  22.498  0.00  0.00    +0.000 N 
ATOM     14  H   UNL     1      -1.743   9.544  22.398  0.00  0.00    +0.000 HD
BRANCH  13  15
ATOM     15  C   UNL     1      -0.916  11.349  23.020  0.00  0.00    +0.000 C 
BRANCH  15  16
ATOM     16  C   UNL     1      -2.398  11.774  23.116  0.00  0.00    +0.000 C 
BRANCH  16  17
ATOM     17  N   UNL     1      -2.758  13.061  22.482  0.00  0.00    +0.000 NA
ATOM     18  C   UNL     1      -1.676  14.071  22.541  0.00  0.00    +0.000 C 
ATOM     19  C   UNL     1      -1.373  14.536  23.974  0.00  0.00    +0.000 C 
ATOM     20  O   UNL     1      -2.537  15.129  24.567  0.00  0.00    +0.000 OA
ATOM     21  C   UNL     1      -3.636  14.207  24.572  0.00  0.00    +0.000 C 
ATOM     22  C   UNL     1      -3.937  13.661  23.160  0.00  0.00    +0.000 C 
ENDBRANCH  16  17
ENDBRANCH  15  16
ENDBRANCH  13  15
ENDBRANCH   7  13
BRANCH  10  23
ATOM     23  N   UNL     1       2.274   6.448  20.579  0.00  0.00    +0.000 N 
ATOM     24  H   UNL     1       3.204   6.069  20.703  0.00  0.00    +0.000 HD
BRANCH  23  25
ATOM     25  C   UNL     1       1.338   5.326  20.576  0.00  0.00    +0.000 C 
BRANCH  25  26
ATOM     26  C   UNL     1       1.973   4.127  19.891  0.00  0.00    +0.000 A 
ATOM     27  C   UNL     1       1.420   3.543  18.737  0.00  0.00    +0.000 A 
ATOM     28  C   UNL     1       1.988   2.386  18.185  0.00  0.00    +0.000 A 
ATOM     29  C   UNL     1       3.107   1.809  18.781  0.00  0.00    +0.000 A 
ATOM     30  F   UNL     1       3.620   0.691  18.247  0.00  0.00    +0.000 F 
ATOM     31  C   UNL     1       3.678   2.388  19.911  0.00  0.00    +0.000 A 
ATOM     32 CL   UNL     1       5.069   1.697  20.649  0.00  0.00    +0.000 Cl
ATOM     33  C   UNL     1       3.118   3.540  20.459  0.00  0.00    +0.000 A 
ENDBRANCH  25  26
ENDBRANCH  23  25
ENDBRANCH  10  23
TORSDOF 8
ENDMDL
