MODEL 1
REMARK VINA RESULT:      -7.9      0.000      0.000
REMARK  Name = 
REMARK  4 active torsions:
REMARK  status: ('A' for Active; 'I' for Inactive)
REMARK    1  A    between atoms: C_4  and  C_5
REMARK    2  A    between atoms: N_14  and  C_15
REMARK    3  A    between atoms: C_18  and  O_19
REMARK    4  A    between atoms: O_19  and  C_20
REMARK                            x       y       z     vdW  Elec       q    Type
REMARK                         _______ _______ _______ _____ _____    ______ ____
ROOT
ATOM      1  O   UNL     1       1.800   9.677  17.961  0.00  0.00    +0.000 OA
ATOM      2  C   UNL     1       1.926   8.640  18.596  0.00  0.00    +0.000 A 
ATOM      3  N   UNL     1       2.428   7.492  18.000  0.00  0.00    +0.000 NA
ATOM      4  C   UNL     1       2.510   6.515  18.842  0.00  0.00    +0.000 A 
ATOM      5  S   UNL     1       2.085   6.912  20.481  0.00  0.00    +0.000 S 
ATOM      6  N   UNL     1       1.587   8.449  19.946  0.00  0.00    +0.000 N 
ENDROOT
BRANCH   4   7
ATOM      7  C   UNL     1       2.891   5.151  18.492  0.00  0.00    +0.000 A 
ATOM      8  C   UNL     1       2.019   4.349  17.763  0.00  0.00    +0.000 A 
ATOM      9  F   UNL     1       0.868   4.836  17.281  0.00  0.00    +0.000 F 
ATOM     10  C   UNL     1       2.337   3.018  17.496  0.00  0.00    +0.000 A 
ATOM     11  C   UNL     1       3.536   2.480  17.963  0.00  0.00    +0.000 A 
ATOM     12  C   UNL     1       4.418   3.278  18.689  0.00  0.00    +0.000 A 
ATOM     13  C   UNL     1       4.089   4.605  18.951  0.00  0.00    +0.000 A 
ATOM     14  F   UNL     1       4.946   5.320  19.693  0.00  0.00    +0.000 F 
ENDBRANCH   4   7
BRANCH   6  15
ATOM     15  C   UNL     1       0.866   9.344  20.781  0.00  0.00    +0.000 A 
ATOM     16  C   UNL     1       0.888  10.726  20.566  0.00  0.00    +0.000 A 
ATOM     17  C   UNL     1       0.192  11.598  21.409  0.00  0.00    +0.000 A 
ATOM     18  C   UNL     1      -0.559  11.116  22.482  0.00  0.00    +0.000 A 
ATOM     19  C   UNL     1      -0.592   9.746  22.712  0.00  0.00    +0.000 A 
ATOM     20  C   UNL     1       0.089   8.873  21.856  0.00  0.00    +0.000 A 
BRANCH  18  21
ATOM     21  O   UNL     1      -1.131  12.074  23.249  0.00  0.00    +0.000 OA
BRANCH  21  22
ATOM     22  C   UNL     1      -2.515  12.358  23.117  0.00  0.00    +0.000 C 
ATOM     23  F   UNL     1      -2.864  13.623  23.430  0.00  0.00    +0.000 F 
ATOM     24  F   UNL     1      -2.897  12.108  21.845  0.00  0.00    +0.000 F 
ATOM     25  F   UNL     1      -3.201  11.526  23.933  0.00  0.00    +0.000 F 
ENDBRANCH  21  22
ENDBRANCH  18  21
ENDBRANCH   6  15
TORSDOF 4
ENDMDL
MODEL 2
REMARK VINA RESULT:      -7.8      0.851      2.021
REMARK  Name = 
REMARK  4 active torsions:
REMARK  status: ('A' for Active; 'I' for Inactive)
REMARK    1  A    between atoms: C_4  and  C_5
REMARK    2  A    between atoms: N_14  and  C_15
REMARK    3  A    between atoms: C_18  and  O_19
REMARK    4  A    between atoms: O_19  and  C_20
REMARK                            x       y       z     vdW  Elec       q    Type
REMARK                         _______ _______ _______ _____ _____    ______ ____
ROOT
ATOM      1  O   UNL     1       2.181   9.690  17.463  0.00  0.00    +0.000 OA
ATOM      2  C   UNL     1       2.133   8.700  18.178  0.00  0.00    +0.000 A 
ATOM      3  N   UNL     1       2.695   7.497  17.776  0.00  0.00    +0.000 NA
ATOM      4  C   UNL     1       2.565   6.583  18.681  0.00  0.00    +0.000 A 
ATOM      5  S   UNL     1       1.838   7.114  20.169  0.00  0.00    +0.000 S 
ATOM      6  N   UNL     1       1.523   8.620  19.441  0.00  0.00    +0.000 N 
ENDROOT
BRANCH   4   7
ATOM      7  C   UNL     1       2.950   5.187  18.508  0.00  0.00    +0.000 A 
ATOM      8  C   UNL     1       4.168   4.733  19.004  0.00  0.00    +0.000 A 
ATOM      9  F   UNL     1       4.957   5.529  19.737  0.00  0.00    +0.000 F 
ATOM     10  C   UNL     1       4.583   3.423  18.771  0.00  0.00    +0.000 A 
ATOM     11  C   UNL     1       3.779   2.557  18.030  0.00  0.00    +0.000 A 
ATOM     12  C   UNL     1       2.556   3.003  17.533  0.00  0.00    +0.000 A 
ATOM     13  C   UNL     1       2.151   4.313  17.772  0.00  0.00    +0.000 A 
ATOM     14  F   UNL     1       0.990   4.711  17.234  0.00  0.00    +0.000 F 
ENDBRANCH   4   7
BRANCH   6  15
ATOM     15  C   UNL     1       0.688   9.595  20.050  0.00  0.00    +0.000 A 
ATOM     16  C   UNL     1      -0.365  10.197  19.353  0.00  0.00    +0.000 A 
ATOM     17  C   UNL     1      -1.165  11.172  19.956  0.00  0.00    +0.000 A 
ATOM     18  C   UNL     1      -0.948  11.564  21.278  0.00  0.00    +0.000 A 
ATOM     19  C   UNL     1       0.094  10.979  21.986  0.00  0.00    +0.000 A 
ATOM     20  C   UNL     1       0.882   9.988  21.387  0.00  0.00    +0.000 A 
BRANCH  18  21
ATOM     21  O   UNL     1      -1.758  12.559  21.714  0.00  0.00    +0.000 OA
BRANCH  21  22
ATOM     22  C   UNL     1      -2.591  12.353  22.844  0.00  0.00    +0.000 C 
ATOM     23  F   UNL     1      -2.346  11.215  23.525  0.00  0.00    +0.000 F 
ATOM     24  F   UNL     1      -2.454  13.399  23.689  0.00  0.00    +0.000 F 
ATOM     25  F   UNL     1      -3.876  12.315  22.426  0.00  0.00    +0.000 F 
ENDBRANCH  21  22
ENDBRANCH  18  21
ENDBRANCH   6  15
TORSDOF 4
ENDMDL
MODEL 3
REMARK VINA RESULT:      -7.7      0.951      1.098
REMARK  Name = 
REMARK  4 active torsions:
REMARK  status: ('A' for Active; 'I' for Inactive)
REMARK    1  A    between atoms: C_4  and  C_5
REMARK    2  A    between atoms: N_14  and  C_15
REMARK    3  A    between atoms: C_18  and  O_19
REMARK    4  A    between atoms: O_19  and  C_20
REMARK                            x       y       z     vdW  Elec       q    Type
REMARK                         _______ _______ _______ _____ _____    ______ ____
ROOT
ATOM      1  O   UNL     1       2.186   9.752  17.377  0.00  0.00    +0.000 OA
ATOM      2  C   UNL     1       2.141   8.766  18.098  0.00  0.00    +0.000 A 
ATOM      3  N   UNL     1       2.727   7.569  17.713  0.00  0.00    +0.000 NA
ATOM      4  C   UNL     1       2.596   6.660  18.622  0.00  0.00    +0.000 A 
ATOM      5  S   UNL     1       1.836   7.190  20.094  0.00  0.00    +0.000 S 
ATOM      6  N   UNL     1       1.511   8.686  19.351  0.00  0.00    +0.000 N 
ENDROOT
BRANCH   4   7
ATOM      7  C   UNL     1       3.005   5.269  18.465  0.00  0.00    +0.000 A 
ATOM      8  C   UNL     1       2.160   4.360  17.836  0.00  0.00    +0.000 A 
ATOM      9  F   UNL     1       1.012   4.759  17.272  0.00  0.00    +0.000 F 
ATOM     10  C   UNL     1       2.503   3.012  17.755  0.00  0.00    +0.000 A 
ATOM     11  C   UNL     1       3.700   2.563  18.312  0.00  0.00    +0.000 A 
ATOM     12  C   UNL     1       4.555   3.466  18.940  0.00  0.00    +0.000 A 
ATOM     13  C   UNL     1       4.202   4.811  19.015  0.00  0.00    +0.000 A 
ATOM     14  F   UNL     1       5.032   5.634  19.670  0.00  0.00    +0.000 F 
ENDBRANCH   4   7
BRANCH   6  15
ATOM     15  C   UNL     1       0.652   9.652  19.939  0.00  0.00    +0.000 A 
ATOM     16  C   UNL     1      -0.470  10.144  19.263  0.00  0.00    +0.000 A 
ATOM     17  C   UNL     1      -1.295  11.112  19.844  0.00  0.00    +0.000 A 
ATOM     18  C   UNL     1      -1.034  11.607  21.122  0.00  0.00    +0.000 A 
ATOM     19  C   UNL     1       0.076  11.131  21.809  0.00  0.00    +0.000 A 
ATOM     20  C   UNL     1       0.890  10.148  21.235  0.00  0.00    +0.000 A 
BRANCH  18  21
ATOM     21  O   UNL     1      -1.878  12.582  21.536  0.00  0.00    +0.000 OA
BRANCH  21  22
ATOM     22  C   UNL     1      -2.301  12.629  22.890  0.00  0.00    +0.000 C 
ATOM     23  F   UNL     1      -1.444  13.248  23.727  0.00  0.00    +0.000 F 
ATOM     24  F   UNL     1      -3.497  13.256  22.957  0.00  0.00    +0.000 F 
ATOM     25  F   UNL     1      -2.466  11.362  23.330  0.00  0.00    +0.000 F 
ENDBRANCH  21  22
ENDBRANCH  18  21
ENDBRANCH   6  15
TORSDOF 4
ENDMDL
MODEL 4
REMARK VINA RESULT:      -7.7      3.998      9.522
REMARK  Name = 
REMARK  4 active torsions:
REMARK  status: ('A' for Active; 'I' for Inactive)
REMARK    1  A    between atoms: C_4  and  C_5
REMARK    2  A    between atoms: N_14  and  C_15
REMARK    3  A    between atoms: C_18  and  O_19
REMARK    4  A    between atoms: O_19  and  C_20
REMARK                            x       y       z     vdW  Elec       q    Type
REMARK                         _______ _______ _______ _____ _____    ______ ____
ROOT
ATOM      1  O   UNL     1       3.099   5.186  20.050  0.00  0.00    +0.000 OA
ATOM      2  C   UNL     1       2.834   6.256  19.521  0.00  0.00    +0.000 A 
ATOM      3  N   UNL     1       1.977   7.163  20.128  0.00  0.00    +0.000 NA
ATOM      4  C   UNL     1       1.849   8.241  19.426  0.00  0.00    +0.000 A 
ATOM      5  S   UNL     1       2.841   8.318  18.000  0.00  0.00    +0.000 S 
ATOM      6  N   UNL     1       3.313   6.708  18.280  0.00  0.00    +0.000 N 
ENDROOT
BRANCH   4   7
ATOM      7  C   UNL     1       0.930   9.329  19.743  0.00  0.00    +0.000 A 
ATOM      8  C   UNL     1       0.835   9.805  21.046  0.00  0.00    +0.000 A 
ATOM      9  F   UNL     1       1.651   9.356  22.009  0.00  0.00    +0.000 F 
ATOM     10  C   UNL     1      -0.099  10.785  21.376  0.00  0.00    +0.000 A 
ATOM     11  C   UNL     1      -0.953  11.293  20.397  0.00  0.00    +0.000 A 
ATOM     12  C   UNL     1      -0.861  10.825  19.087  0.00  0.00    +0.000 A 
ATOM     13  C   UNL     1       0.076   9.846  18.769  0.00  0.00    +0.000 A 
ATOM     14  F   UNL     1       0.095   9.393  17.508  0.00  0.00    +0.000 F 
ENDBRANCH   4   7
BRANCH   6  15
ATOM     15  C   UNL     1       4.033   5.951  17.316  0.00  0.00    +0.000 A 
ATOM     16  C   UNL     1       3.919   4.559  17.242  0.00  0.00    +0.000 A 
ATOM     17  C   UNL     1       4.651   3.824  16.304  0.00  0.00    +0.000 A 
ATOM     18  C   UNL     1       5.505   4.459  15.401  0.00  0.00    +0.000 A 
ATOM     19  C   UNL     1       5.632   5.841  15.459  0.00  0.00    +0.000 A 
ATOM     20  C   UNL     1       4.884   6.577  16.386  0.00  0.00    +0.000 A 
BRANCH  18  21
ATOM     21  O   UNL     1       6.195   3.621  14.590  0.00  0.00    +0.000 OA
BRANCH  21  22
ATOM     22  C   UNL     1       6.012   3.683  13.184  0.00  0.00    +0.000 C 
ATOM     23  F   UNL     1       4.772   4.040  12.792  0.00  0.00    +0.000 F 
ATOM     24  F   UNL     1       6.898   4.560  12.662  0.00  0.00    +0.000 F 
ATOM     25  F   UNL     1       6.273   2.463  12.666  0.00  0.00    +0.000 F 
ENDBRANCH  21  22
ENDBRANCH  18  21
ENDBRANCH   6  15
TORSDOF 4
ENDMDL
MODEL 5
REMARK VINA RESULT:      -7.6      4.057      9.477
REMARK  Name = 
REMARK  4 active torsions:
REMARK  status: ('A' for Active; 'I' for Inactive)
REMARK    1  A    between atoms: C_4  and  C_5
REMARK    2  A    between atoms: N_14  and  C_15
REMARK    3  A    between atoms: C_18  and  O_19
REMARK    4  A    between atoms: O_19  and  C_20
REMARK                            x       y       z     vdW  Elec       q    Type
REMARK                         _______ _______ _______ _____ _____    ______ ____
ROOT
ATOM      1  O   UNL     1       3.097   4.936  19.904  0.00  0.00    +0.000 OA
ATOM      2  C   UNL     1       2.870   6.037  19.425  0.00  0.00    +0.000 A 
ATOM      3  N   UNL     1       2.022   6.934  20.057  0.00  0.00    +0.000 NA
ATOM      4  C   UNL     1       1.936   8.049  19.408  0.00  0.00    +0.000 A 
ATOM      5  S   UNL     1       2.962   8.171  18.009  0.00  0.00    +0.000 S 
ATOM      6  N   UNL     1       3.388   6.537  18.218  0.00  0.00    +0.000 N 
ENDROOT
BRANCH   4   7
ATOM      7  C   UNL     1       1.037   9.142  19.759  0.00  0.00    +0.000 A 
ATOM      8  C   UNL     1       0.291   9.776  18.770  0.00  0.00    +0.000 A 
ATOM      9  F   UNL     1       0.299   9.334  17.506  0.00  0.00    +0.000 F 
ATOM     10  C   UNL     1      -0.507  10.876  19.081  0.00  0.00    +0.000 A 
ATOM     11  C   UNL     1      -0.558  11.353  20.390  0.00  0.00    +0.000 A 
ATOM     12  C   UNL     1       0.182  10.722  21.388  0.00  0.00    +0.000 A 
ATOM     13  C   UNL     1       0.976   9.624  21.066  0.00  0.00    +0.000 A 
ATOM     14  F   UNL     1       1.707   9.079  22.048  0.00  0.00    +0.000 F 
ENDBRANCH   4   7
BRANCH   6  15
ATOM     15  C   UNL     1       4.111   5.812  17.233  0.00  0.00    +0.000 A 
ATOM     16  C   UNL     1       4.015   4.420  17.130  0.00  0.00    +0.000 A 
ATOM     17  C   UNL     1       4.750   3.716  16.171  0.00  0.00    +0.000 A 
ATOM     18  C   UNL     1       5.589   4.380  15.276  0.00  0.00    +0.000 A 
ATOM     19  C   UNL     1       5.699   5.763  15.364  0.00  0.00    +0.000 A 
ATOM     20  C   UNL     1       4.948   6.469  16.312  0.00  0.00    +0.000 A 
BRANCH  18  21
ATOM     21  O   UNL     1       6.284   3.570  14.443  0.00  0.00    +0.000 OA
BRANCH  21  22
ATOM     22  C   UNL     1       6.037   3.608  13.045  0.00  0.00    +0.000 C 
ATOM     23  F   UNL     1       6.218   2.433  12.409  0.00  0.00    +0.000 F 
ATOM     24  F   UNL     1       4.769   4.022  12.833  0.00  0.00    +0.000 F 
ATOM     25  F   UNL     1       6.873   4.513  12.489  0.00  0.00    +0.000 F 
ENDBRANCH  21  22
ENDBRANCH  18  21
ENDBRANCH   6  15
TORSDOF 4
ENDMDL
MODEL 6
REMARK VINA RESULT:      -7.6      0.977      1.876
REMARK  Name = 
REMARK  4 active torsions:
REMARK  status: ('A' for Active; 'I' for Inactive)
REMARK    1  A    between atoms: C_4  and  C_5
REMARK    2  A    between atoms: N_14  and  C_15
REMARK    3  A    between atoms: C_18  and  O_19
REMARK    4  A    between atoms: O_19  and  C_20
REMARK                            x       y       z     vdW  Elec       q    Type
REMARK                         _______ _______ _______ _____ _____    ______ ____
ROOT
ATOM      1  O   UNL     1       1.267   9.978  17.752  0.00  0.00    +0.000 OA
ATOM      2  C   UNL     1       1.653   8.959  18.305  0.00  0.00    +0.000 A 
ATOM      3  N   UNL     1       2.261   7.939  17.585  0.00  0.00    +0.000 NA
ATOM      4  C   UNL     1       2.622   6.964  18.353  0.00  0.00    +0.000 A 
ATOM      5  S   UNL     1       2.360   7.223  20.052  0.00  0.00    +0.000 S 
ATOM      6  N   UNL     1       1.538   8.664  19.673  0.00  0.00    +0.000 N 
ENDROOT
BRANCH   4   7
ATOM      7  C   UNL     1       3.181   5.703  17.879  0.00  0.00    +0.000 A 
ATOM      8  C   UNL     1       4.490   5.653  17.409  0.00  0.00    +0.000 A 
ATOM      9  F   UNL     1       5.292   6.724  17.479  0.00  0.00    +0.000 F 
ATOM     10  C   UNL     1       5.006   4.474  16.876  0.00  0.00    +0.000 A 
ATOM     11  C   UNL     1       4.208   3.332  16.805  0.00  0.00    +0.000 A 
ATOM     12  C   UNL     1       2.898   3.371  17.277  0.00  0.00    +0.000 A 
ATOM     13  C   UNL     1       2.393   4.555  17.808  0.00  0.00    +0.000 A 
ATOM     14  F   UNL     1       1.113   4.559  18.206  0.00  0.00    +0.000 F 
ENDBRANCH   4   7
BRANCH   6  15
ATOM     15  C   UNL     1       0.792   9.387  20.643  0.00  0.00    +0.000 A 
ATOM     16  C   UNL     1       0.747  10.786  20.640  0.00  0.00    +0.000 A 
ATOM     17  C   UNL     1       0.029  11.486  21.614  0.00  0.00    +0.000 A 
ATOM     18  C   UNL     1      -0.679  10.812  22.610  0.00  0.00    +0.000 A 
ATOM     19  C   UNL     1      -0.646   9.423  22.630  0.00  0.00    +0.000 A 
ATOM     20  C   UNL     1       0.058   8.722  21.643  0.00  0.00    +0.000 A 
BRANCH  18  21
ATOM     21  O   UNL     1      -1.280  11.614  23.520  0.00  0.00    +0.000 OA
BRANCH  21  22
ATOM     22  C   UNL     1      -2.513  12.244  23.209  0.00  0.00    +0.000 C 
ATOM     23  F   UNL     1      -2.945  12.046  21.947  0.00  0.00    +0.000 F 
ATOM     24  F   UNL     1      -3.462  11.801  24.063  0.00  0.00    +0.000 F 
ATOM     25  F   UNL     1      -2.371  13.576  23.393  0.00  0.00    +0.000 F 
ENDBRANCH  21  22
ENDBRANCH  18  21
ENDBRANCH   6  15
TORSDOF 4
ENDMDL
MODEL 7
REMARK VINA RESULT:      -7.6      2.423      2.741
REMARK  Name = 
REMARK  4 active torsions:
REMARK  status: ('A' for Active; 'I' for Inactive)
REMARK    1  A    between atoms: C_4  and  C_5
REMARK    2  A    between atoms: N_14  and  C_15
REMARK    3  A    between atoms: C_18  and  O_19
REMARK    4  A    between atoms: O_19  and  C_20
REMARK                            x       y       z     vdW  Elec       q    Type
REMARK                         _______ _______ _______ _____ _____    ______ ____
ROOT
ATOM      1  O   UNL     1       1.853   5.530  20.871  0.00  0.00    +0.000 OA
ATOM      2  C   UNL     1       2.390   6.015  19.886  0.00  0.00    +0.000 A 
ATOM      3  N   UNL     1       3.240   5.262  19.089  0.00  0.00    +0.000 NA
ATOM      4  C   UNL     1       3.682   5.945  18.085  0.00  0.00    +0.000 A 
ATOM      5  S   UNL     1       3.029   7.550  17.937  0.00  0.00    +0.000 S 
ATOM      6  N   UNL     1       2.255   7.340  19.437  0.00  0.00    +0.000 N 
ENDROOT
BRANCH   4   7
ATOM      7  C   UNL     1       4.681   5.467  17.136  0.00  0.00    +0.000 A 
ATOM      8  C   UNL     1       4.501   4.249  16.488  0.00  0.00    +0.000 A 
ATOM      9  F   UNL     1       3.371   3.545  16.639  0.00  0.00    +0.000 F 
ATOM     10  C   UNL     1       5.488   3.743  15.644  0.00  0.00    +0.000 A 
ATOM     11  C   UNL     1       6.670   4.456  15.447  0.00  0.00    +0.000 A 
ATOM     12  C   UNL     1       6.857   5.680  16.087  0.00  0.00    +0.000 A 
ATOM     13  C   UNL     1       5.864   6.176  16.927  0.00  0.00    +0.000 A 
ATOM     14  F   UNL     1       6.107   7.333  17.559  0.00  0.00    +0.000 F 
ENDBRANCH   4   7
BRANCH   6  15
ATOM     15  C   UNL     1       1.636   8.417  20.127  0.00  0.00    +0.000 A 
ATOM     16  C   UNL     1       1.147   9.538  19.448  0.00  0.00    +0.000 A 
ATOM     17  C   UNL     1       0.561  10.602  20.141  0.00  0.00    +0.000 A 
ATOM     18  C   UNL     1       0.430  10.571  21.530  0.00  0.00    +0.000 A 
ATOM     19  C   UNL     1       0.910   9.466  22.222  0.00  0.00    +0.000 A 
ATOM     20  C   UNL     1       1.480   8.393  21.526  0.00  0.00    +0.000 A 
BRANCH  18  21
ATOM     21  O   UNL     1      -0.102  11.691  22.074  0.00  0.00    +0.000 OA
BRANCH  21  22
ATOM     22  C   UNL     1      -1.367  11.639  22.714  0.00  0.00    +0.000 C 
ATOM     23  F   UNL     1      -1.623  10.487  23.365  0.00  0.00    +0.000 F 
ATOM     24  F   UNL     1      -1.459  12.661  23.594  0.00  0.00    +0.000 F 
ATOM     25  F   UNL     1      -2.327  11.806  21.777  0.00  0.00    +0.000 F 
ENDBRANCH  21  22
ENDBRANCH  18  21
ENDBRANCH   6  15
TORSDOF 4
ENDMDL
MODEL 8
REMARK VINA RESULT:      -7.6      0.938      1.535
REMARK  Name = 
REMARK  4 active torsions:
REMARK  status: ('A' for Active; 'I' for Inactive)
REMARK    1  A    between atoms: C_4  and  C_5
REMARK    2  A    between atoms: N_14  and  C_15
REMARK    3  A    between atoms: C_18  and  O_19
REMARK    4  A    between atoms: O_19  and  C_20
REMARK                            x       y       z     vdW  Elec       q    Type
REMARK                         _______ _______ _______ _____ _____    ______ ____
ROOT
ATOM      1  O   UNL     1       1.555  10.051  17.876  0.00  0.00    +0.000 OA
ATOM      2  C   UNL     1       1.840   8.972  18.374  0.00  0.00    +0.000 A 
ATOM      3  N   UNL     1       2.417   7.963  17.618  0.00  0.00    +0.000 NA
ATOM      4  C   UNL     1       2.668   6.915  18.332  0.00  0.00    +0.000 A 
ATOM      5  S   UNL     1       2.326   7.077  20.029  0.00  0.00    +0.000 S 
ATOM      6  N   UNL     1       1.626   8.595  19.711  0.00  0.00    +0.000 N 
ENDROOT
BRANCH   4   7
ATOM      7  C   UNL     1       3.167   5.652  17.800  0.00  0.00    +0.000 A 
ATOM      8  C   UNL     1       2.334   4.539  17.747  0.00  0.00    +0.000 A 
ATOM      9  F   UNL     1       1.039   4.627  18.078  0.00  0.00    +0.000 F 
ATOM     10  C   UNL     1       2.824   3.307  17.319  0.00  0.00    +0.000 A 
ATOM     11  C   UNL     1       4.162   3.180  16.946  0.00  0.00    +0.000 A 
ATOM     12  C   UNL     1       5.003   4.290  16.991  0.00  0.00    +0.000 A 
ATOM     13  C   UNL     1       4.502   5.516  17.420  0.00  0.00    +0.000 A 
ATOM     14  F   UNL     1       5.359   6.544  17.493  0.00  0.00    +0.000 F 
ENDBRANCH   4   7
BRANCH   6  15
ATOM     15  C   UNL     1       0.876   9.303  20.689  0.00  0.00    +0.000 A 
ATOM     16  C   UNL     1       0.186   8.637  21.707  0.00  0.00    +0.000 A 
ATOM     17  C   UNL     1      -0.567   9.344  22.649  0.00  0.00    +0.000 A 
ATOM     18  C   UNL     1      -0.642  10.737  22.613  0.00  0.00    +0.000 A 
ATOM     19  C   UNL     1       0.036  11.416  21.608  0.00  0.00    +0.000 A 
ATOM     20  C   UNL     1       0.806  10.709  20.677  0.00  0.00    +0.000 A 
BRANCH  18  21
ATOM     21  O   UNL     1      -1.453  11.286  23.548  0.00  0.00    +0.000 OA
BRANCH  21  22
ATOM     22  C   UNL     1      -2.497  12.164  23.156  0.00  0.00    +0.000 C 
ATOM     23  F   UNL     1      -2.905  12.020  21.879  0.00  0.00    +0.000 F 
ATOM     24  F   UNL     1      -3.559  11.978  23.971  0.00  0.00    +0.000 F 
ATOM     25  F   UNL     1      -2.066  13.436  23.311  0.00  0.00    +0.000 F 
ENDBRANCH  21  22
ENDBRANCH  18  21
ENDBRANCH   6  15
TORSDOF 4
ENDMDL
MODEL 9
REMARK VINA RESULT:      -7.6      3.582      9.205
REMARK  Name = 
REMARK  4 active torsions:
REMARK  status: ('A' for Active; 'I' for Inactive)
REMARK    1  A    between atoms: C_4  and  C_5
REMARK    2  A    between atoms: N_14  and  C_15
REMARK    3  A    between atoms: C_18  and  O_19
REMARK    4  A    between atoms: O_19  and  C_20
REMARK                            x       y       z     vdW  Elec       q    Type
REMARK                         _______ _______ _______ _____ _____    ______ ____
ROOT
ATOM      1  O   UNL     1       2.218   6.541  20.699  0.00  0.00    +0.000 OA
ATOM      2  C   UNL     1       2.013   7.434  19.889  0.00  0.00    +0.000 A 
ATOM      3  N   UNL     1       1.112   8.454  20.159  0.00  0.00    +0.000 NA
ATOM      4  C   UNL     1       1.060   9.311  19.194  0.00  0.00    +0.000 A 
ATOM      5  S   UNL     1       2.181   9.031  17.894  0.00  0.00    +0.000 S 
ATOM      6  N   UNL     1       2.609   7.555  18.623  0.00  0.00    +0.000 N 
ENDROOT
BRANCH   4   7
ATOM      7  C   UNL     1       0.126  10.430  19.132  0.00  0.00    +0.000 A 
ATOM      8  C   UNL     1       0.211  11.462  20.061  0.00  0.00    +0.000 A 
ATOM      9  F   UNL     1       1.205  11.507  20.957  0.00  0.00    +0.000 F 
ATOM     10  C   UNL     1      -0.728  12.492  20.063  0.00  0.00    +0.000 A 
ATOM     11  C   UNL     1      -1.766  12.492  19.132  0.00  0.00    +0.000 A 
ATOM     12  C   UNL     1      -1.856  11.465  18.194  0.00  0.00    +0.000 A 
ATOM     13  C   UNL     1      -0.913  10.441  18.201  0.00  0.00    +0.000 A 
ATOM     14  F   UNL     1      -1.067   9.450  17.312  0.00  0.00    +0.000 F 
ENDBRANCH   4   7
BRANCH   6  15
ATOM     15  C   UNL     1       3.408   6.586  17.958  0.00  0.00    +0.000 A 
ATOM     16  C   UNL     1       4.657   6.910  17.418  0.00  0.00    +0.000 A 
ATOM     17  C   UNL     1       5.422   5.953  16.746  0.00  0.00    +0.000 A 
ATOM     18  C   UNL     1       4.971   4.640  16.605  0.00  0.00    +0.000 A 
ATOM     19  C   UNL     1       3.732   4.299  17.134  0.00  0.00    +0.000 A 
ATOM     20  C   UNL     1       2.975   5.253  17.824  0.00  0.00    +0.000 A 
BRANCH  18  21
ATOM     21  O   UNL     1       5.785   3.835  15.881  0.00  0.00    +0.000 OA
BRANCH  21  22
ATOM     22  C   UNL     1       6.125   4.183  14.548  0.00  0.00    +0.000 C 
ATOM     23  F   UNL     1       7.202   4.986  14.431  0.00  0.00    +0.000 F 
ATOM     24  F   UNL     1       6.352   3.053  13.842  0.00  0.00    +0.000 F 
ATOM     25  F   UNL     1       5.072   4.821  13.992  0.00  0.00    +0.000 F 
ENDBRANCH  21  22
ENDBRANCH  18  21
ENDBRANCH   6  15
TORSDOF 4
ENDMDL
