MODEL 1
REMARK VINA RESULT:      -7.5      0.000      0.000
REMARK  Name = 
REMARK  4 active torsions:
REMARK  status: ('A' for Active; 'I' for Inactive)
REMARK    1  A    between atoms: C_1  and  O_2
REMARK    2  A    between atoms: O_2  and  C_3
REMARK    3  A    between atoms: C_8  and  N_9
REMARK    4  A    between atoms: N_12  and  C_13
REMARK                            x       y       z     vdW  Elec       q    Type
REMARK                         _______ _______ _______ _____ _____    ______ ____
ROOT
ATOM      1  N   UNL     1       6.934   7.732  16.955  0.00  0.00    +0.000 N 
ATOM      2  C   UNL     1       7.876   8.216  17.854  0.00  0.00    +0.000 C 
ATOM      3  O   UNL     1       8.426   7.494  18.672  0.00  0.00    +0.000 OA
ATOM      4  N   UNL     1       8.106   9.575  17.725  0.00  0.00    +0.000 N 
ATOM      5  H   UNL     1       6.935   8.103  16.014  0.00  0.00    +0.000 HD
ATOM      6  H   UNL     1       7.498  10.095  17.109  0.00  0.00    +0.000 HD
ENDROOT
BRANCH   4   7
ATOM      7  C   UNL     1       9.140  10.300  18.386  0.00  0.00    +0.000 A 
ATOM      8  C   UNL     1      10.260  10.832  17.707  0.00  0.00    +0.000 A 
ATOM      9  C   UNL     1      11.085  11.796  18.286  0.00  0.00    +0.000 A 
ATOM     10  C   UNL     1      10.771  12.215  19.556  0.00  0.00    +0.000 A 
ATOM     11  C   UNL     1       9.794  11.558  20.315  0.00  0.00    +0.000 A 
ATOM     12  C   UNL     1       8.970  10.597  19.745  0.00  0.00    +0.000 A 
ATOM     13  C   UNL     1       9.711  12.195  21.672  0.00  0.00    +0.000 C 
ATOM     14  C   UNL     1      10.089  13.624  21.267  0.00  0.00    +0.000 C 
ATOM     15  C   UNL     1      11.237  13.459  20.254  0.00  0.00    +0.000 C 
ENDBRANCH   4   7
BRANCH   1  21
ATOM     16  C   UNL     1       6.613   5.415  16.188  0.00  0.00    +0.000 A 
ATOM     17  C   UNL     1       5.964   4.175  16.326  0.00  0.00    +0.000 A 
ATOM     18  C   UNL     1       5.082   3.940  17.383  0.00  0.00    +0.000 A 
ATOM     19  C   UNL     1       4.823   4.943  18.301  0.00  0.00    +0.000 A 
ATOM     20  C   UNL     1       5.426   6.190  18.147  0.00  0.00    +0.000 A 
ATOM     21  C   UNL     1       6.332   6.445  17.103  0.00  0.00    +0.000 A 
BRANCH  16  23
ATOM     22  C   UNL     1       7.327   4.949  13.979  0.00  0.00    +0.000 C 
ATOM     23  O   UNL     1       7.523   5.687  15.191  0.00  0.00    +0.000 OA
ENDBRANCH  16  23
ENDBRANCH   1  21
TORSDOF 3
ENDMDL
MODEL 2
REMARK VINA RESULT:      -7.4      1.394      2.799
REMARK  Name = 
REMARK  4 active torsions:
REMARK  status: ('A' for Active; 'I' for Inactive)
REMARK    1  A    between atoms: C_1  and  O_2
REMARK    2  A    between atoms: O_2  and  C_3
REMARK    3  A    between atoms: C_8  and  N_9
REMARK    4  A    between atoms: N_12  and  C_13
REMARK                            x       y       z     vdW  Elec       q    Type
REMARK                         _______ _______ _______ _____ _____    ______ ____
ROOT
ATOM      1  N   UNL     1       7.665   6.643  18.297  0.00  0.00    +0.000 N 
ATOM      2  C   UNL     1       7.864   8.008  18.130  0.00  0.00    +0.000 C 
ATOM      3  O   UNL     1       7.189   8.674  17.359  0.00  0.00    +0.000 OA
ATOM      4  N   UNL     1       8.893   8.510  18.909  0.00  0.00    +0.000 N 
ATOM      5  H   UNL     1       7.758   6.256  19.227  0.00  0.00    +0.000 HD
ATOM      6  H   UNL     1       9.469   7.845  19.404  0.00  0.00    +0.000 HD
ENDROOT
BRANCH   4   7
ATOM      7  C   UNL     1       9.199   9.892  19.075  0.00  0.00    +0.000 A 
ATOM      8  C   UNL     1       9.197  10.533  20.335  0.00  0.00    +0.000 A 
ATOM      9  C   UNL     1       9.800  11.775  20.531  0.00  0.00    +0.000 A 
ATOM     10  C   UNL     1      10.398  12.366  19.444  0.00  0.00    +0.000 A 
ATOM     11  C   UNL     1      10.234  11.845  18.155  0.00  0.00    +0.000 A 
ATOM     12  C   UNL     1       9.636  10.608  17.952  0.00  0.00    +0.000 A 
ATOM     13  C   UNL     1      10.948  12.725  17.171  0.00  0.00    +0.000 C 
ATOM     14  C   UNL     1      12.081  13.203  18.086  0.00  0.00    +0.000 C 
ATOM     15  C   UNL     1      11.406  13.477  19.443  0.00  0.00    +0.000 C 
ENDBRANCH   4   7
BRANCH   1  21
ATOM     16  C   UNL     1       5.613   5.385  17.781  0.00  0.00    +0.000 A 
ATOM     17  C   UNL     1       4.878   4.583  16.890  0.00  0.00    +0.000 A 
ATOM     18  C   UNL     1       5.363   4.304  15.610  0.00  0.00    +0.000 A 
ATOM     19  C   UNL     1       6.592   4.804  15.213  0.00  0.00    +0.000 A 
ATOM     20  C   UNL     1       7.347   5.562  16.106  0.00  0.00    +0.000 A 
ATOM     21  C   UNL     1       6.873   5.872  17.392  0.00  0.00    +0.000 A 
BRANCH  16  23
ATOM     22  C   UNL     1       3.920   5.127  19.417  0.00  0.00    +0.000 C 
ATOM     23  O   UNL     1       5.165   5.727  19.038  0.00  0.00    +0.000 OA
ENDBRANCH  16  23
ENDBRANCH   1  21
TORSDOF 3
ENDMDL
MODEL 3
REMARK VINA RESULT:      -7.2      6.285      8.546
REMARK  Name = 
REMARK  4 active torsions:
REMARK  status: ('A' for Active; 'I' for Inactive)
REMARK    1  A    between atoms: C_1  and  O_2
REMARK    2  A    between atoms: O_2  and  C_3
REMARK    3  A    between atoms: C_8  and  N_9
REMARK    4  A    between atoms: N_12  and  C_13
REMARK                            x       y       z     vdW  Elec       q    Type
REMARK                         _______ _______ _______ _____ _____    ______ ____
ROOT
ATOM      1  N   UNL     1       4.720   3.892  18.770  0.00  0.00    +0.000 N 
ATOM      2  C   UNL     1       4.642   4.087  17.397  0.00  0.00    +0.000 C 
ATOM      3  O   UNL     1       3.597   4.386  16.841  0.00  0.00    +0.000 OA
ATOM      4  N   UNL     1       5.851   3.898  16.749  0.00  0.00    +0.000 N 
ATOM      5  H   UNL     1       5.547   4.216  19.254  0.00  0.00    +0.000 HD
ATOM      6  H   UNL     1       6.616   3.520  17.290  0.00  0.00    +0.000 HD
ENDROOT
BRANCH   4   7
ATOM      7  C   UNL     1       6.106   4.202  15.380  0.00  0.00    +0.000 A 
ATOM      8  C   UNL     1       7.140   5.073  14.967  0.00  0.00    +0.000 A 
ATOM      9  C   UNL     1       7.587   5.113  13.646  0.00  0.00    +0.000 A 
ATOM     10  C   UNL     1       6.977   4.273  12.747  0.00  0.00    +0.000 A 
ATOM     11  C   UNL     1       5.823   3.557  13.093  0.00  0.00    +0.000 A 
ATOM     12  C   UNL     1       5.374   3.512  14.406  0.00  0.00    +0.000 A 
ATOM     13  C   UNL     1       5.352   2.775  11.901  0.00  0.00    +0.000 C 
ATOM     14  C   UNL     1       6.717   2.519  11.252  0.00  0.00    +0.000 C 
ATOM     15  C   UNL     1       7.481   3.849  11.399  0.00  0.00    +0.000 C 
ENDBRANCH   4   7
BRANCH   1  21
ATOM     16  C   UNL     1       2.907   4.870  20.119  0.00  0.00    +0.000 A 
ATOM     17  C   UNL     1       1.797   4.692  20.962  0.00  0.00    +0.000 A 
ATOM     18  C   UNL     1       1.303   3.415  21.239  0.00  0.00    +0.000 A 
ATOM     19  C   UNL     1       1.924   2.303  20.695  0.00  0.00    +0.000 A 
ATOM     20  C   UNL     1       3.053   2.467  19.895  0.00  0.00    +0.000 A 
ATOM     21  C   UNL     1       3.556   3.743  19.586  0.00  0.00    +0.000 A 
BRANCH  16  23
ATOM     22  C   UNL     1       2.511   6.935  19.028  0.00  0.00    +0.000 C 
ATOM     23  O   UNL     1       3.409   6.107  19.778  0.00  0.00    +0.000 OA
ENDBRANCH  16  23
ENDBRANCH   1  21
TORSDOF 3
ENDMDL
MODEL 4
REMARK VINA RESULT:      -7.0      6.341      8.488
REMARK  Name = 
REMARK  4 active torsions:
REMARK  status: ('A' for Active; 'I' for Inactive)
REMARK    1  A    between atoms: C_1  and  O_2
REMARK    2  A    between atoms: O_2  and  C_3
REMARK    3  A    between atoms: C_8  and  N_9
REMARK    4  A    between atoms: N_12  and  C_13
REMARK                            x       y       z     vdW  Elec       q    Type
REMARK                         _______ _______ _______ _____ _____    ______ ____
ROOT
ATOM      1  N   UNL     1       4.375   4.846  18.692  0.00  0.00    +0.000 N 
ATOM      2  C   UNL     1       4.482   4.507  17.349  0.00  0.00    +0.000 C 
ATOM      3  O   UNL     1       3.599   3.908  16.756  0.00  0.00    +0.000 OA
ATOM      4  N   UNL     1       5.679   4.908  16.779  0.00  0.00    +0.000 N 
ATOM      5  H   UNL     1       4.741   5.741  18.991  0.00  0.00    +0.000 HD
ATOM      6  H   UNL     1       6.390   5.274  17.395  0.00  0.00    +0.000 HD
ENDROOT
BRANCH   4   7
ATOM      7  C   UNL     1       5.985   4.854  15.387  0.00  0.00    +0.000 A 
ATOM      8  C   UNL     1       7.257   5.188  14.868  0.00  0.00    +0.000 A 
ATOM      9  C   UNL     1       7.643   4.830  13.577  0.00  0.00    +0.000 A 
ATOM     10  C   UNL     1       6.734   4.138  12.814  0.00  0.00    +0.000 A 
ATOM     11  C   UNL     1       5.408   3.978  13.236  0.00  0.00    +0.000 A 
ATOM     12  C   UNL     1       5.017   4.331  14.521  0.00  0.00    +0.000 A 
ATOM     13  C   UNL     1       4.640   3.237  12.181  0.00  0.00    +0.000 C 
ATOM     14  C   UNL     1       5.787   2.380  11.634  0.00  0.00    +0.000 C 
ATOM     15  C   UNL     1       6.998   3.330  11.578  0.00  0.00    +0.000 C 
ENDBRANCH   4   7
BRANCH   1  21
ATOM     16  C   UNL     1       3.614   3.074  20.222  0.00  0.00    +0.000 A 
ATOM     17  C   UNL     1       2.593   2.513  21.009  0.00  0.00    +0.000 A 
ATOM     18  C   UNL     1       1.364   3.160  21.159  0.00  0.00    +0.000 A 
ATOM     19  C   UNL     1       1.134   4.362  20.511  0.00  0.00    +0.000 A 
ATOM     20  C   UNL     1       2.124   4.904  19.693  0.00  0.00    +0.000 A 
ATOM     21  C   UNL     1       3.375   4.281  19.542  0.00  0.00    +0.000 A 
BRANCH  16  23
ATOM     22  C   UNL     1       5.088   1.343  20.886  0.00  0.00    +0.000 C 
ATOM     23  O   UNL     1       4.858   2.502  20.074  0.00  0.00    +0.000 OA
ENDBRANCH  16  23
ENDBRANCH   1  21
TORSDOF 3
ENDMDL
MODEL 5
REMARK VINA RESULT:      -7.0      1.737      7.938
REMARK  Name = 
REMARK  4 active torsions:
REMARK  status: ('A' for Active; 'I' for Inactive)
REMARK    1  A    between atoms: C_1  and  O_2
REMARK    2  A    between atoms: O_2  and  C_3
REMARK    3  A    between atoms: C_8  and  N_9
REMARK    4  A    between atoms: N_12  and  C_13
REMARK                            x       y       z     vdW  Elec       q    Type
REMARK                         _______ _______ _______ _____ _____    ______ ____
ROOT
ATOM      1  N   UNL     1       8.482  10.341  18.096  0.00  0.00    +0.000 N 
ATOM      2  C   UNL     1       8.281   8.969  18.179  0.00  0.00    +0.000 C 
ATOM      3  O   UNL     1       8.968   8.253  18.892  0.00  0.00    +0.000 OA
ATOM      4  N   UNL     1       7.248   8.518  17.375  0.00  0.00    +0.000 N 
ATOM      5  H   UNL     1       7.670  10.940  18.024  0.00  0.00    +0.000 HD
ATOM      6  H   UNL     1       6.840   9.177  16.727  0.00  0.00    +0.000 HD
ENDROOT
BRANCH   4   7
ATOM      7  C   UNL     1       6.707   7.199  17.394  0.00  0.00    +0.000 A 
ATOM      8  C   UNL     1       7.491   6.052  17.652  0.00  0.00    +0.000 A 
ATOM      9  C   UNL     1       6.916   4.826  17.985  0.00  0.00    +0.000 A 
ATOM     10  C   UNL     1       5.546   4.767  18.050  0.00  0.00    +0.000 A 
ATOM     11  C   UNL     1       4.753   5.832  17.603  0.00  0.00    +0.000 A 
ATOM     12  C   UNL     1       5.319   7.056  17.271  0.00  0.00    +0.000 A 
ATOM     13  C   UNL     1       3.305   5.463  17.742  0.00  0.00    +0.000 C 
ATOM     14  C   UNL     1       3.427   4.552  18.968  0.00  0.00    +0.000 C 
ATOM     15  C   UNL     1       4.702   3.724  18.722  0.00  0.00    +0.000 C 
ENDBRANCH   4   7
BRANCH   1  21
ATOM     16  C   UNL     1       9.782  11.277  19.965  0.00  0.00    +0.000 A 
ATOM     17  C   UNL     1      10.932  11.945  20.423  0.00  0.00    +0.000 A 
ATOM     18  C   UNL     1      11.972  12.265  19.549  0.00  0.00    +0.000 A 
ATOM     19  C   UNL     1      11.869  11.941  18.206  0.00  0.00    +0.000 A 
ATOM     20  C   UNL     1      10.715  11.319  17.735  0.00  0.00    +0.000 A 
ATOM     21  C   UNL     1       9.663  10.970  18.598  0.00  0.00    +0.000 A 
BRANCH  16  23
ATOM     22  C   UNL     1       8.572  11.720  21.953  0.00  0.00    +0.000 C 
ATOM     23  O   UNL     1       8.745  10.900  20.790  0.00  0.00    +0.000 OA
ENDBRANCH  16  23
ENDBRANCH   1  21
TORSDOF 3
ENDMDL
MODEL 6
REMARK VINA RESULT:      -7.0      5.983      8.934
REMARK  Name = 
REMARK  4 active torsions:
REMARK  status: ('A' for Active; 'I' for Inactive)
REMARK    1  A    between atoms: C_1  and  O_2
REMARK    2  A    between atoms: O_2  and  C_3
REMARK    3  A    between atoms: C_8  and  N_9
REMARK    4  A    between atoms: N_12  and  C_13
REMARK                            x       y       z     vdW  Elec       q    Type
REMARK                         _______ _______ _______ _____ _____    ______ ____
ROOT
ATOM      1  N   UNL     1       1.619   8.111  20.382  0.00  0.00    +0.000 N 
ATOM      2  C   UNL     1       2.287   7.444  19.363  0.00  0.00    +0.000 C 
ATOM      3  O   UNL     1       2.571   7.988  18.306  0.00  0.00    +0.000 OA
ATOM      4  N   UNL     1       2.577   6.126  19.671  0.00  0.00    +0.000 N 
ATOM      5  H   UNL     1       1.889   7.919  21.338  0.00  0.00    +0.000 HD
ATOM      6  H   UNL     1       2.175   5.745  20.515  0.00  0.00    +0.000 HD
ENDROOT
BRANCH   4   7
ATOM      7  C   UNL     1       3.404   5.263  18.894  0.00  0.00    +0.000 A 
ATOM      8  C   UNL     1       2.894   4.413  17.887  0.00  0.00    +0.000 A 
ATOM      9  C   UNL     1       3.721   3.825  16.929  0.00  0.00    +0.000 A 
ATOM     10  C   UNL     1       5.065   4.099  17.002  0.00  0.00    +0.000 A 
ATOM     11  C   UNL     1       5.610   4.769  18.105  0.00  0.00    +0.000 A 
ATOM     12  C   UNL     1       4.792   5.357  19.061  0.00  0.00    +0.000 A 
ATOM     13  C   UNL     1       7.097   4.874  17.935  0.00  0.00    +0.000 C 
ATOM     14  C   UNL     1       7.140   4.948  16.405  0.00  0.00    +0.000 C 
ATOM     15  C   UNL     1       6.098   3.917  15.929  0.00  0.00    +0.000 C 
ENDBRANCH   4   7
BRANCH   1  21
ATOM     16  C   UNL     1       0.675  10.209  21.259  0.00  0.00    +0.000 A 
ATOM     17  C   UNL     1      -0.014  11.413  21.030  0.00  0.00    +0.000 A 
ATOM     18  C   UNL     1      -0.370  11.802  19.737  0.00  0.00    +0.000 A 
ATOM     19  C   UNL     1      -0.060  10.986  18.661  0.00  0.00    +0.000 A 
ATOM     20  C   UNL     1       0.583   9.770  18.883  0.00  0.00    +0.000 A 
ATOM     21  C   UNL     1       0.968   9.366  20.173  0.00  0.00    +0.000 A 
BRANCH  16  23
ATOM     22  C   UNL     1       0.027   9.511  23.427  0.00  0.00    +0.000 C 
ATOM     23  O   UNL     1       1.088   9.797  22.507  0.00  0.00    +0.000 OA
ENDBRANCH  16  23
ENDBRANCH   1  21
TORSDOF 3
ENDMDL
MODEL 7
REMARK VINA RESULT:      -6.9      1.163      2.001
REMARK  Name = 
REMARK  4 active torsions:
REMARK  status: ('A' for Active; 'I' for Inactive)
REMARK    1  A    between atoms: C_1  and  O_2
REMARK    2  A    between atoms: O_2  and  C_3
REMARK    3  A    between atoms: C_8  and  N_9
REMARK    4  A    between atoms: N_12  and  C_13
REMARK                            x       y       z     vdW  Elec       q    Type
REMARK                         _______ _______ _______ _____ _____    ______ ____
ROOT
ATOM      1  N   UNL     1       6.898   7.881  16.860  0.00  0.00    +0.000 N 
ATOM      2  C   UNL     1       7.844   8.323  17.777  0.00  0.00    +0.000 C 
ATOM      3  O   UNL     1       8.400   7.564  18.556  0.00  0.00    +0.000 OA
ATOM      4  N   UNL     1       8.070   9.688  17.713  0.00  0.00    +0.000 N 
ATOM      5  H   UNL     1       6.893   8.297  15.938  0.00  0.00    +0.000 HD
ATOM      6  H   UNL     1       7.456  10.235  17.127  0.00  0.00    +0.000 HD
ENDROOT
BRANCH   4   7
ATOM      7  C   UNL     1       9.105  10.383  18.404  0.00  0.00    +0.000 A 
ATOM      8  C   UNL     1      10.253  10.892  17.755  0.00  0.00    +0.000 A 
ATOM      9  C   UNL     1      11.086  11.832  18.361  0.00  0.00    +0.000 A 
ATOM     10  C   UNL     1      10.754  12.248  19.627  0.00  0.00    +0.000 A 
ATOM     11  C   UNL     1       9.744  11.609  20.358  0.00  0.00    +0.000 A 
ATOM     12  C   UNL     1       8.911  10.673  19.761  0.00  0.00    +0.000 A 
ATOM     13  C   UNL     1       9.645  12.237  21.717  0.00  0.00    +0.000 C 
ATOM     14  C   UNL     1      10.066  13.660  21.333  0.00  0.00    +0.000 C 
ATOM     15  C   UNL     1      11.233  13.475  20.345  0.00  0.00    +0.000 C 
ENDBRANCH   4   7
BRANCH   1  21
ATOM     16  C   UNL     1       4.982   6.437  17.414  0.00  0.00    +0.000 A 
ATOM     17  C   UNL     1       4.437   5.147  17.541  0.00  0.00    +0.000 A 
ATOM     18  C   UNL     1       5.171   4.019  17.169  0.00  0.00    +0.000 A 
ATOM     19  C   UNL     1       6.461   4.163  16.686  0.00  0.00    +0.000 A 
ATOM     20  C   UNL     1       7.025   5.434  16.599  0.00  0.00    +0.000 A 
ATOM     21  C   UNL     1       6.300   6.586  16.948  0.00  0.00    +0.000 A 
BRANCH  16  23
ATOM     22  C   UNL     1       2.902   7.389  18.027  0.00  0.00    +0.000 C 
ATOM     23  O   UNL     1       4.289   7.587  17.725  0.00  0.00    +0.000 OA
ENDBRANCH  16  23
ENDBRANCH   1  21
TORSDOF 3
ENDMDL
MODEL 8
REMARK VINA RESULT:      -6.9      6.263      9.615
REMARK  Name = 
REMARK  4 active torsions:
REMARK  status: ('A' for Active; 'I' for Inactive)
REMARK    1  A    between atoms: C_1  and  O_2
REMARK    2  A    between atoms: O_2  and  C_3
REMARK    3  A    between atoms: C_8  and  N_9
REMARK    4  A    between atoms: N_12  and  C_13
REMARK                            x       y       z     vdW  Elec       q    Type
REMARK                         _______ _______ _______ _____ _____    ______ ____
ROOT
ATOM      1  N   UNL     1       1.374   9.943  19.447  0.00  0.00    +0.000 N 
ATOM      2  C   UNL     1       1.796   9.066  18.456  0.00  0.00    +0.000 C 
ATOM      3  O   UNL     1       1.926   9.412  17.292  0.00  0.00    +0.000 OA
ATOM      4  N   UNL     1       2.037   7.786  18.926  0.00  0.00    +0.000 N 
ATOM      5  H   UNL     1       1.796   9.870  20.363  0.00  0.00    +0.000 HD
ATOM      6  H   UNL     1       1.766   7.580  19.877  0.00  0.00    +0.000 HD
ENDROOT
BRANCH   4   7
ATOM      7  C   UNL     1       2.645   6.736  18.178  0.00  0.00    +0.000 A 
ATOM      8  C   UNL     1       3.942   6.839  17.626  0.00  0.00    +0.000 A 
ATOM      9  C   UNL     1       4.647   5.719  17.184  0.00  0.00    +0.000 A 
ATOM     10  C   UNL     1       4.028   4.498  17.299  0.00  0.00    +0.000 A 
ATOM     11  C   UNL     1       2.676   4.401  17.652  0.00  0.00    +0.000 A 
ATOM     12  C   UNL     1       1.969   5.512  18.093  0.00  0.00    +0.000 A 
ATOM     13  C   UNL     1       2.265   2.958  17.641  0.00  0.00    +0.000 C 
ATOM     14  C   UNL     1       3.609   2.343  18.046  0.00  0.00    +0.000 C 
ATOM     15  C   UNL     1       4.664   3.140  17.255  0.00  0.00    +0.000 C 
ENDBRANCH   4   7
BRANCH   1  21
ATOM     16  C   UNL     1      -0.569  11.312  18.806  0.00  0.00    +0.000 A 
ATOM     17  C   UNL     1      -1.103  12.566  18.458  0.00  0.00    +0.000 A 
ATOM     18  C   UNL     1      -0.311  13.716  18.487  0.00  0.00    +0.000 A 
ATOM     19  C   UNL     1       1.024  13.625  18.844  0.00  0.00    +0.000 A 
ATOM     20  C   UNL     1       1.573  12.380  19.146  0.00  0.00    +0.000 A 
ATOM     21  C   UNL     1       0.792  11.212  19.143  0.00  0.00    +0.000 A 
BRANCH  16  23
ATOM     22  C   UNL     1      -2.272  10.026  17.777  0.00  0.00    +0.000 C 
ATOM     23  O   UNL     1      -1.314  10.153  18.836  0.00  0.00    +0.000 OA
ENDBRANCH  16  23
ENDBRANCH   1  21
TORSDOF 3
ENDMDL
MODEL 9
REMARK VINA RESULT:      -6.9      6.454      9.673
REMARK  Name = 
REMARK  4 active torsions:
REMARK  status: ('A' for Active; 'I' for Inactive)
REMARK    1  A    between atoms: C_1  and  O_2
REMARK    2  A    between atoms: O_2  and  C_3
REMARK    3  A    between atoms: C_8  and  N_9
REMARK    4  A    between atoms: N_12  and  C_13
REMARK                            x       y       z     vdW  Elec       q    Type
REMARK                         _______ _______ _______ _____ _____    ______ ____
ROOT
ATOM      1  N   UNL     1       1.488   9.673  17.726  0.00  0.00    +0.000 N 
ATOM      2  C   UNL     1       1.871   8.566  18.473  0.00  0.00    +0.000 C 
ATOM      3  O   UNL     1       1.685   8.499  19.679  0.00  0.00    +0.000 OA
ATOM      4  N   UNL     1       2.479   7.579  17.716  0.00  0.00    +0.000 N 
ATOM      5  H   UNL     1       1.113   9.519  16.799  0.00  0.00    +0.000 HD
ATOM      6  H   UNL     1       2.702   7.799  16.756  0.00  0.00    +0.000 HD
ENDROOT
BRANCH   4   7
ATOM      7  C   UNL     1       2.808   6.272  18.181  0.00  0.00    +0.000 A 
ATOM      8  C   UNL     1       4.040   5.967  18.803  0.00  0.00    +0.000 A 
ATOM      9  C   UNL     1       4.227   4.793  19.533  0.00  0.00    +0.000 A 
ATOM     10  C   UNL     1       3.162   3.930  19.623  0.00  0.00    +0.000 A 
ATOM     11  C   UNL     1       2.009   4.118  18.850  0.00  0.00    +0.000 A 
ATOM     12  C   UNL     1       1.817   5.284  18.122  0.00  0.00    +0.000 A 
ATOM     13  C   UNL     1       1.049   2.995  19.115  0.00  0.00    +0.000 C 
ATOM     14  C   UNL     1       1.426   2.723  20.576  0.00  0.00    +0.000 C 
ATOM     15  C   UNL     1       2.963   2.819  20.612  0.00  0.00    +0.000 C 
ENDBRANCH   4   7
BRANCH   1  21
ATOM     16  C   UNL     1      -0.213  11.160  18.704  0.00  0.00    +0.000 A 
ATOM     17  C   UNL     1      -0.556  12.409  19.251  0.00  0.00    +0.000 A 
ATOM     18  C   UNL     1       0.416  13.387  19.472  0.00  0.00    +0.000 A 
ATOM     19  C   UNL     1       1.735  13.138  19.133  0.00  0.00    +0.000 A 
ATOM     20  C   UNL     1       2.077  11.920  18.549  0.00  0.00    +0.000 A 
ATOM     21  C   UNL     1       1.121  10.913  18.334  0.00  0.00    +0.000 A 
BRANCH  16  23
ATOM     22  C   UNL     1      -2.028  10.354  17.414  0.00  0.00    +0.000 C 
ATOM     23  O   UNL     1      -1.122  10.144  18.504  0.00  0.00    +0.000 OA
ENDBRANCH  16  23
ENDBRANCH   1  21
TORSDOF 3
ENDMDL
