MODEL 1
REMARK VINA RESULT:      -8.0      0.000      0.000
REMARK  Name = 
REMARK  7 active torsions:
REMARK  status: ('A' for Active; 'I' for Inactive)
REMARK    1  A    between atoms: C_1  and  C_2
REMARK    2  A    between atoms: C_2  and  C_3
REMARK    3  A    between atoms: C_2  and  C_4
REMARK    4  A    between atoms: C_7  and  C_8
REMARK    5  A    between atoms: C_8  and  C_9
REMARK    6  A    between atoms: C_9  and  C_10
REMARK    7  A    between atoms: C_12  and  C_13
REMARK                            x       y       z     vdW  Elec       q    Type
REMARK                         _______ _______ _______ _____ _____    ______ ____
ROOT
ATOM      1  C   UNL     1       6.349   4.478  17.672  0.00  0.00    +0.000 A 
ATOM      2  N   UNL     1       5.074   4.205  17.545  0.00  0.00    +0.000 NA
ATOM      3  C   UNL     1       4.685   3.984  18.850  0.00  0.00    +0.000 A 
ATOM      4  N   UNL     1       5.687   4.096  19.740  0.00  0.00    +0.000 NA
ATOM      5  O   UNL     1       6.792   4.423  18.958  0.00  0.00    +0.000 OA
ENDROOT
BRANCH   3   6
ATOM      6  C   UNL     1       3.301   3.694  19.205  0.00  0.00    +0.000 A 
ATOM      7  C   UNL     1       2.665   2.553  18.693  0.00  0.00    +0.000 A 
ATOM      8  C   UNL     1       1.331   2.282  19.005  0.00  0.00    +0.000 A 
ATOM      9  C   UNL     1       0.619   3.149  19.832  0.00  0.00    +0.000 A 
ATOM     10  C   UNL     1       1.241   4.284  20.352  0.00  0.00    +0.000 A 
ATOM     11  C   UNL     1       2.575   4.554  20.043  0.00  0.00    +0.000 A 
ENDBRANCH   3   6
BRANCH   1  12
ATOM     12  C   UNL     1       7.337   4.851  16.639  0.00  0.00    +0.000 C 
BRANCH  12  13
ATOM     13  C   UNL     1       6.682   5.667  15.529  0.00  0.00    +0.000 C 
BRANCH  13  17
ATOM     14  C   UNL     1       6.146   3.570  12.722  0.00  0.00    +0.000 A 
ATOM     15  N   UNL     1       7.152   4.305  12.229  0.00  0.00    +0.000 NA
ATOM     16  O   UNL     1       7.459   5.173  13.281  0.00  0.00    +0.000 OA
ATOM     17  C   UNL     1       6.599   4.866  14.292  0.00  0.00    +0.000 A 
ATOM     18  N   UNL     1       5.772   3.889  14.002  0.00  0.00    +0.000 NA
BRANCH  14  20
ATOM     19  C   UNL     1       4.305   3.067  11.130  0.00  0.00    +0.000 C 
ATOM     20  C   UNL     1       5.467   2.496  11.946  0.00  0.00    +0.000 C 
ATOM     21  C   UNL     1       6.457   1.774  11.030  0.00  0.00    +0.000 C 
ENDBRANCH  14  20
ENDBRANCH  13  17
ENDBRANCH  12  13
ENDBRANCH   1  12
TORSDOF 5
ENDMDL
MODEL 2
REMARK VINA RESULT:      -8.0      1.605      1.981
REMARK  Name = 
REMARK  7 active torsions:
REMARK  status: ('A' for Active; 'I' for Inactive)
REMARK    1  A    between atoms: C_1  and  C_2
REMARK    2  A    between atoms: C_2  and  C_3
REMARK    3  A    between atoms: C_2  and  C_4
REMARK    4  A    between atoms: C_7  and  C_8
REMARK    5  A    between atoms: C_8  and  C_9
REMARK    6  A    between atoms: C_9  and  C_10
REMARK    7  A    between atoms: C_12  and  C_13
REMARK                            x       y       z     vdW  Elec       q    Type
REMARK                         _______ _______ _______ _____ _____    ______ ____
ROOT
ATOM      1  C   UNL     1       5.011   6.305  17.314  0.00  0.00    +0.000 A 
ATOM      2  N   UNL     1       4.598   5.237  17.951  0.00  0.00    +0.000 NA
ATOM      3  C   UNL     1       3.312   5.583  18.312  0.00  0.00    +0.000 A 
ATOM      4  N   UNL     1       2.959   6.823  17.931  0.00  0.00    +0.000 NA
ATOM      5  O   UNL     1       4.086   7.303  17.269  0.00  0.00    +0.000 OA
ENDROOT
BRANCH   3   6
ATOM      6  C   UNL     1       2.430   4.656  19.009  0.00  0.00    +0.000 A 
ATOM      7  C   UNL     1       2.409   4.622  20.412  0.00  0.00    +0.000 A 
ATOM      8  C   UNL     1       1.587   3.718  21.089  0.00  0.00    +0.000 A 
ATOM      9  C   UNL     1       0.779   2.839  20.371  0.00  0.00    +0.000 A 
ATOM     10  C   UNL     1       0.786   2.866  18.977  0.00  0.00    +0.000 A 
ATOM     11  C   UNL     1       1.605   3.771  18.300  0.00  0.00    +0.000 A 
ENDBRANCH   3   6
BRANCH   1  12
ATOM     12  C   UNL     1       6.299   6.556  16.637  0.00  0.00    +0.000 C 
BRANCH  12  13
ATOM     13  C   UNL     1       7.080   5.257  16.455  0.00  0.00    +0.000 C 
BRANCH  13  17
ATOM     14  C   UNL     1       6.421   3.812  13.287  0.00  0.00    +0.000 A 
ATOM     15  N   UNL     1       7.255   4.784  12.890  0.00  0.00    +0.000 NA
ATOM     16  O   UNL     1       7.596   5.420  14.087  0.00  0.00    +0.000 OA
ATOM     17  C   UNL     1       6.926   4.761  15.074  0.00  0.00    +0.000 A 
ATOM     18  N   UNL     1       6.189   3.766  14.638  0.00  0.00    +0.000 NA
BRANCH  14  20
ATOM     19  C   UNL     1       4.615   3.528  11.602  0.00  0.00    +0.000 C 
ATOM     20  C   UNL     1       5.775   2.858  12.342  0.00  0.00    +0.000 C 
ATOM     21  C   UNL     1       6.794   2.303  11.346  0.00  0.00    +0.000 C 
ENDBRANCH  14  20
ENDBRANCH  13  17
ENDBRANCH  12  13
ENDBRANCH   1  12
TORSDOF 5
ENDMDL
MODEL 3
REMARK VINA RESULT:      -7.9      1.412      7.028
REMARK  Name = 
REMARK  7 active torsions:
REMARK  status: ('A' for Active; 'I' for Inactive)
REMARK    1  A    between atoms: C_1  and  C_2
REMARK    2  A    between atoms: C_2  and  C_3
REMARK    3  A    between atoms: C_2  and  C_4
REMARK    4  A    between atoms: C_7  and  C_8
REMARK    5  A    between atoms: C_8  and  C_9
REMARK    6  A    between atoms: C_9  and  C_10
REMARK    7  A    between atoms: C_12  and  C_13
REMARK                            x       y       z     vdW  Elec       q    Type
REMARK                         _______ _______ _______ _____ _____    ______ ____
ROOT
ATOM      1  C   UNL     1       7.031   4.722  16.499  0.00  0.00    +0.000 A 
ATOM      2  N   UNL     1       6.385   3.890  15.721  0.00  0.00    +0.000 NA
ATOM      3  C   UNL     1       6.652   4.389  14.463  0.00  0.00    +0.000 A 
ATOM      4  N   UNL     1       7.414   5.497  14.471  0.00  0.00    +0.000 NA
ATOM      5  O   UNL     1       7.665   5.719  15.822  0.00  0.00    +0.000 OA
ENDROOT
BRANCH   3   6
ATOM      6  C   UNL     1       6.170   3.734  13.254  0.00  0.00    +0.000 A 
ATOM      7  C   UNL     1       4.823   3.849  12.878  0.00  0.00    +0.000 A 
ATOM      8  C   UNL     1       4.346   3.202  11.736  0.00  0.00    +0.000 A 
ATOM      9  C   UNL     1       5.209   2.433  10.959  0.00  0.00    +0.000 A 
ATOM     10  C   UNL     1       6.552   2.314  11.318  0.00  0.00    +0.000 A 
ATOM     11  C   UNL     1       7.030   2.963  12.458  0.00  0.00    +0.000 A 
ENDBRANCH   3   6
BRANCH   1  12
ATOM     12  C   UNL     1       7.180   4.712  17.969  0.00  0.00    +0.000 C 
BRANCH  12  13
ATOM     13  C   UNL     1       6.094   5.553  18.632  0.00  0.00    +0.000 C 
BRANCH  13  17
ATOM     14  C   UNL     1       3.201   3.774  19.647  0.00  0.00    +0.000 A 
ATOM     15  N   UNL     1       4.103   2.796  19.815  0.00  0.00    +0.000 NA
ATOM     16  O   UNL     1       5.306   3.405  19.451  0.00  0.00    +0.000 OA
ATOM     17  C   UNL     1       4.995   4.685  19.100  0.00  0.00    +0.000 A 
ATOM     18  N   UNL     1       3.717   4.964  19.202  0.00  0.00    +0.000 NA
BRANCH  14  20
ATOM     19  C   UNL     1       1.115   2.685  18.846  0.00  0.00    +0.000 C 
ATOM     20  C   UNL     1       1.746   3.592  19.906  0.00  0.00    +0.000 C 
ATOM     21  C   UNL     1       1.507   3.022  21.306  0.00  0.00    +0.000 C 
ENDBRANCH  14  20
ENDBRANCH  13  17
ENDBRANCH  12  13
ENDBRANCH   1  12
TORSDOF 5
ENDMDL
MODEL 4
REMARK VINA RESULT:      -7.8      1.511      1.842
REMARK  Name = 
REMARK  7 active torsions:
REMARK  status: ('A' for Active; 'I' for Inactive)
REMARK    1  A    between atoms: C_1  and  C_2
REMARK    2  A    between atoms: C_2  and  C_3
REMARK    3  A    between atoms: C_2  and  C_4
REMARK    4  A    between atoms: C_7  and  C_8
REMARK    5  A    between atoms: C_8  and  C_9
REMARK    6  A    between atoms: C_9  and  C_10
REMARK    7  A    between atoms: C_12  and  C_13
REMARK                            x       y       z     vdW  Elec       q    Type
REMARK                         _______ _______ _______ _____ _____    ______ ____
ROOT
ATOM      1  C   UNL     1       5.311   5.928  17.617  0.00  0.00    +0.000 A 
ATOM      2  N   UNL     1       4.858   4.956  18.368  0.00  0.00    +0.000 NA
ATOM      3  C   UNL     1       3.541   5.318  18.562  0.00  0.00    +0.000 A 
ATOM      4  N   UNL     1       3.206   6.478  17.972  0.00  0.00    +0.000 NA
ATOM      5  O   UNL     1       4.381   6.885  17.345  0.00  0.00    +0.000 OA
ENDROOT
BRANCH   3   6
ATOM      6  C   UNL     1       2.613   4.481  19.312  0.00  0.00    +0.000 A 
ATOM      7  C   UNL     1       1.617   3.755  18.641  0.00  0.00    +0.000 A 
ATOM      8  C   UNL     1       0.706   2.971  19.354  0.00  0.00    +0.000 A 
ATOM      9  C   UNL     1       0.781   2.907  20.744  0.00  0.00    +0.000 A 
ATOM     10  C   UNL     1       1.769   3.619  21.422  0.00  0.00    +0.000 A 
ATOM     11  C   UNL     1       2.681   4.400  20.711  0.00  0.00    +0.000 A 
ENDBRANCH   3   6
BRANCH   1  12
ATOM     12  C   UNL     1       6.651   6.110  17.022  0.00  0.00    +0.000 C 
BRANCH  12  13
ATOM     13  C   UNL     1       7.225   4.775  16.556  0.00  0.00    +0.000 C 
BRANCH  13  17
ATOM     14  C   UNL     1       6.769   4.250  13.081  0.00  0.00    +0.000 A 
ATOM     15  N   UNL     1       7.580   5.314  13.014  0.00  0.00    +0.000 NA
ATOM     16  O   UNL     1       7.841   5.602  14.356  0.00  0.00    +0.000 OA
ATOM     17  C   UNL     1       7.154   4.678  15.084  0.00  0.00    +0.000 A 
ATOM     18  N   UNL     1       6.478   3.825  14.352  0.00  0.00    +0.000 NA
BRANCH  14  20
ATOM     19  C   UNL     1       6.826   2.192  11.686  0.00  0.00    +0.000 C 
ATOM     20  C   UNL     1       6.206   3.579  11.876  0.00  0.00    +0.000 C 
ATOM     21  C   UNL     1       4.683   3.474  11.970  0.00  0.00    +0.000 C 
ENDBRANCH  14  20
ENDBRANCH  13  17
ENDBRANCH  12  13
ENDBRANCH   1  12
TORSDOF 5
ENDMDL
MODEL 5
REMARK VINA RESULT:      -7.8      0.416      1.356
REMARK  Name = 
REMARK  7 active torsions:
REMARK  status: ('A' for Active; 'I' for Inactive)
REMARK    1  A    between atoms: C_1  and  C_2
REMARK    2  A    between atoms: C_2  and  C_3
REMARK    3  A    between atoms: C_2  and  C_4
REMARK    4  A    between atoms: C_7  and  C_8
REMARK    5  A    between atoms: C_8  and  C_9
REMARK    6  A    between atoms: C_9  and  C_10
REMARK    7  A    between atoms: C_12  and  C_13
REMARK                            x       y       z     vdW  Elec       q    Type
REMARK                         _______ _______ _______ _____ _____    ______ ____
ROOT
ATOM      1  C   UNL     1       6.271   4.285  17.615  0.00  0.00    +0.000 A 
ATOM      2  N   UNL     1       5.029   3.873  17.564  0.00  0.00    +0.000 NA
ATOM      3  C   UNL     1       4.597   4.066  18.860  0.00  0.00    +0.000 A 
ATOM      4  N   UNL     1       5.543   4.556  19.679  0.00  0.00    +0.000 NA
ATOM      5  O   UNL     1       6.655   4.701  18.854  0.00  0.00    +0.000 OA
ENDROOT
BRANCH   3   6
ATOM      6  C   UNL     1       3.224   3.789  19.266  0.00  0.00    +0.000 A 
ATOM      7  C   UNL     1       2.656   4.477  20.348  0.00  0.00    +0.000 A 
ATOM      8  C   UNL     1       1.350   4.199  20.761  0.00  0.00    +0.000 A 
ATOM      9  C   UNL     1       0.602   3.229  20.097  0.00  0.00    +0.000 A 
ATOM     10  C   UNL     1       1.153   2.541  19.016  0.00  0.00    +0.000 A 
ATOM     11  C   UNL     1       2.456   2.821  18.601  0.00  0.00    +0.000 A 
ENDBRANCH   3   6
BRANCH   1  12
ATOM     12  C   UNL     1       7.276   4.380  16.536  0.00  0.00    +0.000 C 
BRANCH  12  13
ATOM     13  C   UNL     1       6.888   5.456  15.526  0.00  0.00    +0.000 C 
BRANCH  13  17
ATOM     14  C   UNL     1       6.407   3.894  12.381  0.00  0.00    +0.000 A 
ATOM     15  N   UNL     1       7.467   4.650  12.065  0.00  0.00    +0.000 NA
ATOM     16  O   UNL     1       7.757   5.311  13.262  0.00  0.00    +0.000 OA
ATOM     17  C   UNL     1       6.835   4.881  14.168  0.00  0.00    +0.000 A 
ATOM     18  N   UNL     1       5.982   4.011  13.680  0.00  0.00    +0.000 NA
BRANCH  14  20
ATOM     19  C   UNL     1       6.113   1.541  11.635  0.00  0.00    +0.000 C 
ATOM     20  C   UNL     1       5.723   3.003  11.404  0.00  0.00    +0.000 C 
ATOM     21  C   UNL     1       4.204   3.168  11.483  0.00  0.00    +0.000 C 
ENDBRANCH  14  20
ENDBRANCH  13  17
ENDBRANCH  12  13
ENDBRANCH   1  12
TORSDOF 5
ENDMDL
MODEL 6
REMARK VINA RESULT:      -7.8      1.307      6.732
REMARK  Name = 
REMARK  7 active torsions:
REMARK  status: ('A' for Active; 'I' for Inactive)
REMARK    1  A    between atoms: C_1  and  C_2
REMARK    2  A    between atoms: C_2  and  C_3
REMARK    3  A    between atoms: C_2  and  C_4
REMARK    4  A    between atoms: C_7  and  C_8
REMARK    5  A    between atoms: C_8  and  C_9
REMARK    6  A    between atoms: C_9  and  C_10
REMARK    7  A    between atoms: C_12  and  C_13
REMARK                            x       y       z     vdW  Elec       q    Type
REMARK                         _______ _______ _______ _____ _____    ______ ____
ROOT
ATOM      1  C   UNL     1       7.159   4.629  16.097  0.00  0.00    +0.000 A 
ATOM      2  N   UNL     1       6.453   3.775  15.398  0.00  0.00    +0.000 NA
ATOM      3  C   UNL     1       6.562   4.275  14.117  0.00  0.00    +0.000 A 
ATOM      4  N   UNL     1       7.287   5.404  14.037  0.00  0.00    +0.000 NA
ATOM      5  O   UNL     1       7.684   5.640  15.350  0.00  0.00    +0.000 OA
ENDROOT
BRANCH   3   6
ATOM      6  C   UNL     1       5.965   3.600  12.971  0.00  0.00    +0.000 A 
ATOM      7  C   UNL     1       4.678   3.952  12.537  0.00  0.00    +0.000 A 
ATOM      8  C   UNL     1       4.086   3.292  11.457  0.00  0.00    +0.000 A 
ATOM      9  C   UNL     1       4.775   2.274  10.801  0.00  0.00    +0.000 A 
ATOM     10  C   UNL     1       6.057   1.918  11.219  0.00  0.00    +0.000 A 
ATOM     11  C   UNL     1       6.650   2.579  12.296  0.00  0.00    +0.000 A 
ENDBRANCH   3   6
BRANCH   1  12
ATOM     12  C   UNL     1       7.475   4.630  17.540  0.00  0.00    +0.000 C 
BRANCH  12  13
ATOM     13  C   UNL     1       6.419   5.400  18.327  0.00  0.00    +0.000 C 
BRANCH  13  17
ATOM     14  C   UNL     1       3.449   3.503  18.701  0.00  0.00    +0.000 A 
ATOM     15  N   UNL     1       4.220   2.835  19.570  0.00  0.00    +0.000 NA
ATOM     16  O   UNL     1       5.435   3.522  19.513  0.00  0.00    +0.000 OA
ATOM     17  C   UNL     1       5.262   4.529  18.611  0.00  0.00    +0.000 A 
ATOM     18  N   UNL     1       4.062   4.563  18.083  0.00  0.00    +0.000 NA
BRANCH  14  20
ATOM     19  C   UNL     1       1.295   2.758  19.695  0.00  0.00    +0.000 C 
ATOM     20  C   UNL     1       2.038   3.126  18.408  0.00  0.00    +0.000 C 
ATOM     21  C   UNL     1       1.311   4.256  17.678  0.00  0.00    +0.000 C 
ENDBRANCH  14  20
ENDBRANCH  13  17
ENDBRANCH  12  13
ENDBRANCH   1  12
TORSDOF 5
ENDMDL
MODEL 7
REMARK VINA RESULT:      -7.8      0.922      1.294
REMARK  Name = 
REMARK  7 active torsions:
REMARK  status: ('A' for Active; 'I' for Inactive)
REMARK    1  A    between atoms: C_1  and  C_2
REMARK    2  A    between atoms: C_2  and  C_3
REMARK    3  A    between atoms: C_2  and  C_4
REMARK    4  A    between atoms: C_7  and  C_8
REMARK    5  A    between atoms: C_8  and  C_9
REMARK    6  A    between atoms: C_9  and  C_10
REMARK    7  A    between atoms: C_12  and  C_13
REMARK                            x       y       z     vdW  Elec       q    Type
REMARK                         _______ _______ _______ _____ _____    ______ ____
ROOT
ATOM      1  C   UNL     1       5.166   5.256  17.131  0.00  0.00    +0.000 A 
ATOM      2  N   UNL     1       3.943   5.061  17.559  0.00  0.00    +0.000 NA
ATOM      3  C   UNL     1       4.134   4.220  18.636  0.00  0.00    +0.000 A 
ATOM      4  N   UNL     1       5.422   3.895  18.846  0.00  0.00    +0.000 NA
ATOM      5  O   UNL     1       6.107   4.581  17.848  0.00  0.00    +0.000 OA
ENDROOT
BRANCH   3   6
ATOM      6  C   UNL     1       3.027   3.772  19.472  0.00  0.00    +0.000 A 
ATOM      7  C   UNL     1       3.174   3.714  20.866  0.00  0.00    +0.000 A 
ATOM      8  C   UNL     1       2.128   3.260  21.673  0.00  0.00    +0.000 A 
ATOM      9  C   UNL     1       0.926   2.858  21.094  0.00  0.00    +0.000 A 
ATOM     10  C   UNL     1       0.765   2.916  19.710  0.00  0.00    +0.000 A 
ATOM     11  C   UNL     1       1.809   3.372  18.903  0.00  0.00    +0.000 A 
ENDBRANCH   3   6
BRANCH   1  12
ATOM     12  C   UNL     1       5.650   6.105  16.023  0.00  0.00    +0.000 C 
BRANCH  12  13
ATOM     13  C   UNL     1       7.000   5.612  15.511  0.00  0.00    +0.000 C 
BRANCH  13  17
ATOM     14  C   UNL     1       6.250   3.578  12.707  0.00  0.00    +0.000 A 
ATOM     15  N   UNL     1       7.186   4.353  12.142  0.00  0.00    +0.000 NA
ATOM     16  O   UNL     1       7.570   5.200  13.185  0.00  0.00    +0.000 OA
ATOM     17  C   UNL     1       6.819   4.842  14.264  0.00  0.00    +0.000 A 
ATOM     18  N   UNL     1       5.992   3.852  14.026  0.00  0.00    +0.000 NA
BRANCH  14  20
ATOM     19  C   UNL     1       4.354   3.091  11.174  0.00  0.00    +0.000 C 
ATOM     20  C   UNL     1       5.526   2.507  11.966  0.00  0.00    +0.000 C 
ATOM     21  C   UNL     1       6.474   1.749  11.036  0.00  0.00    +0.000 C 
ENDBRANCH  14  20
ENDBRANCH  13  17
ENDBRANCH  12  13
ENDBRANCH   1  12
TORSDOF 5
ENDMDL
MODEL 8
REMARK VINA RESULT:      -7.7      1.352      6.823
REMARK  Name = 
REMARK  7 active torsions:
REMARK  status: ('A' for Active; 'I' for Inactive)
REMARK    1  A    between atoms: C_1  and  C_2
REMARK    2  A    between atoms: C_2  and  C_3
REMARK    3  A    between atoms: C_2  and  C_4
REMARK    4  A    between atoms: C_7  and  C_8
REMARK    5  A    between atoms: C_8  and  C_9
REMARK    6  A    between atoms: C_9  and  C_10
REMARK    7  A    between atoms: C_12  and  C_13
REMARK                            x       y       z     vdW  Elec       q    Type
REMARK                         _______ _______ _______ _____ _____    ______ ____
ROOT
ATOM      1  C   UNL     1       7.133   4.728  16.270  0.00  0.00    +0.000 A 
ATOM      2  N   UNL     1       6.429   3.876  15.567  0.00  0.00    +0.000 NA
ATOM      3  C   UNL     1       6.582   4.352  14.281  0.00  0.00    +0.000 A 
ATOM      4  N   UNL     1       7.332   5.465  14.202  0.00  0.00    +0.000 NA
ATOM      5  O   UNL     1       7.697   5.716  15.522  0.00  0.00    +0.000 OA
ENDROOT
BRANCH   3   6
ATOM      6  C   UNL     1       6.002   3.670  13.131  0.00  0.00    +0.000 A 
ATOM      7  C   UNL     1       6.759   2.732  12.412  0.00  0.00    +0.000 A 
ATOM      8  C   UNL     1       6.221   2.093  11.292  0.00  0.00    +0.000 A 
ATOM      9  C   UNL     1       4.923   2.385  10.880  0.00  0.00    +0.000 A 
ATOM     10  C   UNL     1       4.158   3.311  11.589  0.00  0.00    +0.000 A 
ATOM     11  C   UNL     1       4.694   3.948  12.710  0.00  0.00    +0.000 A 
ENDBRANCH   3   6
BRANCH   1  12
ATOM     12  C   UNL     1       7.410   4.748  17.721  0.00  0.00    +0.000 C 
BRANCH  12  13
ATOM     13  C   UNL     1       6.424   5.656  18.450  0.00  0.00    +0.000 C 
BRANCH  13  17
ATOM     14  C   UNL     1       3.391   4.071  19.371  0.00  0.00    +0.000 A 
ATOM     15  N   UNL     1       4.241   3.116  19.770  0.00  0.00    +0.000 NA
ATOM     16  O   UNL     1       5.493   3.653  19.462  0.00  0.00    +0.000 OA
ATOM     17  C   UNL     1       5.258   4.875  18.907  0.00  0.00    +0.000 A 
ATOM     18  N   UNL     1       3.985   5.182  18.827  0.00  0.00    +0.000 NA
BRANCH  14  20
ATOM     19  C   UNL     1       1.267   3.797  18.107  0.00  0.00    +0.000 C 
ATOM     20  C   UNL     1       1.911   3.945  19.488  0.00  0.00    +0.000 C 
ATOM     21  C   UNL     1       1.533   2.764  20.382  0.00  0.00    +0.000 C 
ENDBRANCH  14  20
ENDBRANCH  13  17
ENDBRANCH  12  13
ENDBRANCH   1  12
TORSDOF 5
ENDMDL
MODEL 9
REMARK VINA RESULT:      -7.7      0.905      1.007
REMARK  Name = 
REMARK  7 active torsions:
REMARK  status: ('A' for Active; 'I' for Inactive)
REMARK    1  A    between atoms: C_1  and  C_2
REMARK    2  A    between atoms: C_2  and  C_3
REMARK    3  A    between atoms: C_2  and  C_4
REMARK    4  A    between atoms: C_7  and  C_8
REMARK    5  A    between atoms: C_8  and  C_9
REMARK    6  A    between atoms: C_9  and  C_10
REMARK    7  A    between atoms: C_12  and  C_13
REMARK                            x       y       z     vdW  Elec       q    Type
REMARK                         _______ _______ _______ _____ _____    ______ ____
ROOT
ATOM      1  C   UNL     1       5.944   4.861  17.394  0.00  0.00    +0.000 A 
ATOM      2  N   UNL     1       5.215   3.997  18.056  0.00  0.00    +0.000 NA
ATOM      3  C   UNL     1       4.154   4.767  18.485  0.00  0.00    +0.000 A 
ATOM      4  N   UNL     1       4.241   6.058  18.120  0.00  0.00    +0.000 NA
ATOM      5  O   UNL     1       5.429   6.121  17.397  0.00  0.00    +0.000 OA
ENDROOT
BRANCH   3   6
ATOM      6  C   UNL     1       3.039   4.198  19.232  0.00  0.00    +0.000 A 
ATOM      7  C   UNL     1       2.822   2.812  19.228  0.00  0.00    +0.000 A 
ATOM      8  C   UNL     1       1.740   2.260  19.918  0.00  0.00    +0.000 A 
ATOM      9  C   UNL     1       0.865   3.089  20.619  0.00  0.00    +0.000 A 
ATOM     10  C   UNL     1       1.073   4.468  20.635  0.00  0.00    +0.000 A 
ATOM     11  C   UNL     1       2.155   5.019  19.947  0.00  0.00    +0.000 A 
ENDBRANCH   3   6
BRANCH   1  12
ATOM     12  C   UNL     1       7.201   4.654  16.647  0.00  0.00    +0.000 C 
BRANCH  12  13
ATOM     13  C   UNL     1       7.274   5.582  15.438  0.00  0.00    +0.000 C 
BRANCH  13  17
ATOM     14  C   UNL     1       6.274   3.590  12.682  0.00  0.00    +0.000 A 
ATOM     15  N   UNL     1       7.177   4.356  12.054  0.00  0.00    +0.000 NA
ATOM     16  O   UNL     1       7.656   5.185  13.072  0.00  0.00    +0.000 OA
ATOM     17  C   UNL     1       6.984   4.828  14.202  0.00  0.00    +0.000 A 
ATOM     18  N   UNL     1       6.124   3.855  14.019  0.00  0.00    +0.000 NA
BRANCH  14  20
ATOM     19  C   UNL     1       4.308   3.161  11.222  0.00  0.00    +0.000 C 
ATOM     20  C   UNL     1       5.477   2.539  11.990  0.00  0.00    +0.000 C 
ATOM     21  C   UNL     1       6.358   1.717  11.048  0.00  0.00    +0.000 C 
ENDBRANCH  14  20
ENDBRANCH  13  17
ENDBRANCH  12  13
ENDBRANCH   1  12
TORSDOF 5
ENDMDL
