MODEL 1
REMARK VINA RESULT:      -7.7      0.000      0.000
REMARK  Name = 
REMARK  12 active torsions:
REMARK  status: ('A' for Active; 'I' for Inactive)
REMARK    1  A    between atoms: C_1  and  C_2
REMARK    2  A    between atoms: C_2  and  C_3
REMARK    3  A    between atoms: C_3  and  C_4
REMARK    4  A    between atoms: C_4  and  C_5
REMARK    5  A    between atoms: C_5  and  O_7
REMARK    6  A    between atoms: O_7  and  C_8
REMARK    7  A    between atoms: C_8  and  C_9
REMARK    8  A    between atoms: C_9  and  C_10
REMARK    9  A    between atoms: C_9  and  C_11
REMARK   10  A    between atoms: C_9  and  C_12
REMARK   11  A    between atoms: C_12  and  C_13
REMARK   12  A    between atoms: C_14  and  O_15
REMARK                            x       y       z     vdW  Elec       q    Type
REMARK                         _______ _______ _______ _____ _____    ______ ____
ROOT
ATOM      1  C   UNL     1       4.406   5.049  17.426  0.00  0.00    +0.000 C 
ATOM      2  C   UNL     1       4.416   3.738  17.120  0.00  0.00    +0.000 C 
ATOM      3  C   UNL     1       3.724   2.728  17.979  0.00  0.00    +0.000 C 
ATOM      4  O   UNL     1       3.880   1.524  17.812  0.00  0.00    +0.000 OA
ATOM      5  C   UNL     1       2.825   3.219  19.034  0.00  0.00    +0.000 A 
ATOM      6  C   UNL     1       2.105   2.299  19.810  0.00  0.00    +0.000 A 
ATOM      7  C   UNL     1       1.179   2.752  20.751  0.00  0.00    +0.000 A 
ATOM      8  C   UNL     1       0.968   4.121  20.913  0.00  0.00    +0.000 A 
ATOM      9  C   UNL     1       1.712   5.037  20.163  0.00  0.00    +0.000 A 
ATOM     10  C   UNL     1       2.657   4.583  19.232  0.00  0.00    +0.000 A 
ATOM     11  C   UNL     1       3.479   5.553  18.483  0.00  0.00    +0.000 C 
ATOM     12  O   UNL     1       3.375   6.752  18.721  0.00  0.00    +0.000 OA
ENDROOT
BRANCH   2  13
ATOM     13  O   UNL     1       5.124   3.230  16.044  0.00  0.00    +0.000 OA
ATOM     14  H   UNL     1       5.940   3.743  15.931  0.00  0.00    +0.000 HD
ENDBRANCH   2  13
BRANCH   1  15
ATOM     15  C   UNL     1       5.271   6.095  16.737  0.00  0.00    +0.000 C 
BRANCH  15  16
ATOM     16  C   UNL     1       6.812   5.995  17.005  0.00  0.00    +0.000 C 
ATOM     17  C   UNL     1       7.126   5.038  18.172  0.00  0.00    +0.000 C 
ATOM     18  C   UNL     1       7.408   7.377  17.337  0.00  0.00    +0.000 C 
BRANCH  16  19
ATOM     19  C   UNL     1       7.514   5.429  15.742  0.00  0.00    +0.000 C 
BRANCH  19  20
ATOM     20  O   UNL     1       6.583   5.312  14.655  0.00  0.00    +0.000 OA
BRANCH  20  21
ATOM     21  C   UNL     1       7.073   4.865  13.466  0.00  0.00    +0.000 C 
ATOM     22  O   UNL     1       7.940   5.408  12.800  0.00  0.00    +0.000 OA
BRANCH  21  23
ATOM     23  C   UNL     1       6.386   3.574  13.083  0.00  0.00    +0.000 C 
BRANCH  23  24
ATOM     24  C   UNL     1       5.775   3.649  11.690  0.00  0.00    +0.000 C 
BRANCH  24  26
ATOM     25  C   UNL     1       3.592   3.720  10.434  0.00  0.00    +0.000 C 
ATOM     26  C   UNL     1       4.315   3.194  11.665  0.00  0.00    +0.000 C 
ENDBRANCH  24  26
ENDBRANCH  23  24
ENDBRANCH  21  23
ENDBRANCH  20  21
ENDBRANCH  19  20
ENDBRANCH  16  19
ENDBRANCH  15  16
ENDBRANCH   1  15
TORSDOF 9
ENDMDL
MODEL 2
REMARK VINA RESULT:      -7.6      2.463      4.353
REMARK  Name = 
REMARK  12 active torsions:
REMARK  status: ('A' for Active; 'I' for Inactive)
REMARK    1  A    between atoms: C_1  and  C_2
REMARK    2  A    between atoms: C_2  and  C_3
REMARK    3  A    between atoms: C_3  and  C_4
REMARK    4  A    between atoms: C_4  and  C_5
REMARK    5  A    between atoms: C_5  and  O_7
REMARK    6  A    between atoms: O_7  and  C_8
REMARK    7  A    between atoms: C_8  and  C_9
REMARK    8  A    between atoms: C_9  and  C_10
REMARK    9  A    between atoms: C_9  and  C_11
REMARK   10  A    between atoms: C_9  and  C_12
REMARK   11  A    between atoms: C_12  and  C_13
REMARK   12  A    between atoms: C_14  and  O_15
REMARK                            x       y       z     vdW  Elec       q    Type
REMARK                         _______ _______ _______ _____ _____    ______ ____
ROOT
ATOM      1  C   UNL     1       3.302   6.082  19.009  0.00  0.00    +0.000 C 
ATOM      2  C   UNL     1       3.453   7.058  18.094  0.00  0.00    +0.000 C 
ATOM      3  C   UNL     1       2.552   8.251  18.066  0.00  0.00    +0.000 C 
ATOM      4  O   UNL     1       2.565   9.046  17.133  0.00  0.00    +0.000 OA
ATOM      5  C   UNL     1       1.649   8.462  19.206  0.00  0.00    +0.000 A 
ATOM      6  C   UNL     1       0.842   9.608  19.246  0.00  0.00    +0.000 A 
ATOM      7  C   UNL     1       0.050   9.867  20.365  0.00  0.00    +0.000 A 
ATOM      8  C   UNL     1       0.066   8.985  21.445  0.00  0.00    +0.000 A 
ATOM      9  C   UNL     1       0.844   7.825  21.390  0.00  0.00    +0.000 A 
ATOM     10  C   UNL     1       1.624   7.554  20.257  0.00  0.00    +0.000 A 
ATOM     11  C   UNL     1       2.400   6.301  20.180  0.00  0.00    +0.000 C 
ATOM     12  O   UNL     1       2.312   5.473  21.080  0.00  0.00    +0.000 OA
ENDROOT
BRANCH   2  13
ATOM     13  O   UNL     1       4.393   6.988  17.080  0.00  0.00    +0.000 OA
ATOM     14  H   UNL     1       5.280   7.094  17.462  0.00  0.00    +0.000 HD
ENDBRANCH   2  13
BRANCH   1  15
ATOM     15  C   UNL     1       4.022   4.742  18.959  0.00  0.00    +0.000 C 
BRANCH  15  16
ATOM     16  C   UNL     1       3.462   3.700  17.931  0.00  0.00    +0.000 C 
ATOM     17  C   UNL     1       2.034   4.061  17.476  0.00  0.00    +0.000 C 
ATOM     18  C   UNL     1       3.434   2.283  18.537  0.00  0.00    +0.000 C 
BRANCH  16  19
ATOM     19  C   UNL     1       4.362   3.693  16.667  0.00  0.00    +0.000 C 
BRANCH  19  20
ATOM     20  O   UNL     1       5.551   4.467  16.888  0.00  0.00    +0.000 OA
BRANCH  20  21
ATOM     21  C   UNL     1       6.547   4.348  15.968  0.00  0.00    +0.000 C 
ATOM     22  O   UNL     1       7.742   4.466  16.189  0.00  0.00    +0.000 OA
BRANCH  21  23
ATOM     23  C   UNL     1       5.956   4.037  14.613  0.00  0.00    +0.000 C 
BRANCH  23  24
ATOM     24  C   UNL     1       6.924   4.366  13.483  0.00  0.00    +0.000 C 
BRANCH  24  26
ATOM     25  C   UNL     1       5.096   3.270  12.138  0.00  0.00    +0.000 C 
ATOM     26  C   UNL     1       6.570   3.648  12.180  0.00  0.00    +0.000 C 
ENDBRANCH  24  26
ENDBRANCH  23  24
ENDBRANCH  21  23
ENDBRANCH  20  21
ENDBRANCH  19  20
ENDBRANCH  16  19
ENDBRANCH  15  16
ENDBRANCH   1  15
TORSDOF 9
ENDMDL
MODEL 3
REMARK VINA RESULT:      -7.6      2.198      3.171
REMARK  Name = 
REMARK  12 active torsions:
REMARK  status: ('A' for Active; 'I' for Inactive)
REMARK    1  A    between atoms: C_1  and  C_2
REMARK    2  A    between atoms: C_2  and  C_3
REMARK    3  A    between atoms: C_3  and  C_4
REMARK    4  A    between atoms: C_4  and  C_5
REMARK    5  A    between atoms: C_5  and  O_7
REMARK    6  A    between atoms: O_7  and  C_8
REMARK    7  A    between atoms: C_8  and  C_9
REMARK    8  A    between atoms: C_9  and  C_10
REMARK    9  A    between atoms: C_9  and  C_11
REMARK   10  A    between atoms: C_9  and  C_12
REMARK   11  A    between atoms: C_12  and  C_13
REMARK   12  A    between atoms: C_14  and  O_15
REMARK                            x       y       z     vdW  Elec       q    Type
REMARK                         _______ _______ _______ _____ _____    ______ ____
ROOT
ATOM      1  C   UNL     1       3.340   5.924  18.042  0.00  0.00    +0.000 C 
ATOM      2  C   UNL     1       2.893   5.184  19.075  0.00  0.00    +0.000 C 
ATOM      3  C   UNL     1       2.204   5.810  20.245  0.00  0.00    +0.000 C 
ATOM      4  O   UNL     1       1.959   5.174  21.264  0.00  0.00    +0.000 OA
ATOM      5  C   UNL     1       1.805   7.220  20.138  0.00  0.00    +0.000 A 
ATOM      6  C   UNL     1       1.093   7.818  21.189  0.00  0.00    +0.000 A 
ATOM      7  C   UNL     1       0.628   9.127  21.062  0.00  0.00    +0.000 A 
ATOM      8  C   UNL     1       0.868   9.838  19.886  0.00  0.00    +0.000 A 
ATOM      9  C   UNL     1       1.607   9.253  18.854  0.00  0.00    +0.000 A 
ATOM     10  C   UNL     1       2.093   7.945  18.989  0.00  0.00    +0.000 A 
ATOM     11  C   UNL     1       2.920   7.352  17.921  0.00  0.00    +0.000 C 
ATOM     12  O   UNL     1       3.231   8.026  16.945  0.00  0.00    +0.000 OA
ENDROOT
BRANCH   2  13
ATOM     13  O   UNL     1       3.105   3.818  19.159  0.00  0.00    +0.000 OA
ATOM     14  H   UNL     1       3.224   3.573  20.091  0.00  0.00    +0.000 HD
ENDBRANCH   2  13
BRANCH   1  15
ATOM     15  C   UNL     1       4.245   5.394  16.939  0.00  0.00    +0.000 C 
BRANCH  15  16
ATOM     16  C   UNL     1       5.786   5.484  17.212  0.00  0.00    +0.000 C 
ATOM     17  C   UNL     1       6.149   4.936  18.606  0.00  0.00    +0.000 C 
ATOM     18  C   UNL     1       6.281   6.941  17.120  0.00  0.00    +0.000 C 
BRANCH  16  19
ATOM     19  C   UNL     1       6.542   4.623  16.166  0.00  0.00    +0.000 C 
BRANCH  19  20
ATOM     20  O   UNL     1       7.411   5.443  15.370  0.00  0.00    +0.000 OA
BRANCH  20  21
ATOM     21  C   UNL     1       7.481   5.162  14.039  0.00  0.00    +0.000 C 
ATOM     22  O   UNL     1       8.268   5.651  13.245  0.00  0.00    +0.000 OA
BRANCH  21  23
ATOM     23  C   UNL     1       6.434   4.134  13.679  0.00  0.00    +0.000 C 
BRANCH  23  24
ATOM     24  C   UNL     1       6.590   3.643  12.246  0.00  0.00    +0.000 C 
BRANCH  24  26
ATOM     25  C   UNL     1       4.220   3.317  11.455  0.00  0.00    +0.000 C 
ATOM     26  C   UNL     1       5.516   2.626  11.854  0.00  0.00    +0.000 C 
ENDBRANCH  24  26
ENDBRANCH  23  24
ENDBRANCH  21  23
ENDBRANCH  20  21
ENDBRANCH  19  20
ENDBRANCH  16  19
ENDBRANCH  15  16
ENDBRANCH   1  15
TORSDOF 9
ENDMDL
MODEL 4
REMARK VINA RESULT:      -7.5      0.885      1.211
REMARK  Name = 
REMARK  12 active torsions:
REMARK  status: ('A' for Active; 'I' for Inactive)
REMARK    1  A    between atoms: C_1  and  C_2
REMARK    2  A    between atoms: C_2  and  C_3
REMARK    3  A    between atoms: C_3  and  C_4
REMARK    4  A    between atoms: C_4  and  C_5
REMARK    5  A    between atoms: C_5  and  O_7
REMARK    6  A    between atoms: O_7  and  C_8
REMARK    7  A    between atoms: C_8  and  C_9
REMARK    8  A    between atoms: C_9  and  C_10
REMARK    9  A    between atoms: C_9  and  C_11
REMARK   10  A    between atoms: C_9  and  C_12
REMARK   11  A    between atoms: C_12  and  C_13
REMARK   12  A    between atoms: C_14  and  O_15
REMARK                            x       y       z     vdW  Elec       q    Type
REMARK                         _______ _______ _______ _____ _____    ______ ____
ROOT
ATOM      1  C   UNL     1       5.200   4.225  18.107  0.00  0.00    +0.000 C 
ATOM      2  C   UNL     1       4.646   3.221  17.401  0.00  0.00    +0.000 C 
ATOM      3  C   UNL     1       3.360   2.585  17.821  0.00  0.00    +0.000 C 
ATOM      4  O   UNL     1       2.946   1.559  17.294  0.00  0.00    +0.000 OA
ATOM      5  C   UNL     1       2.582   3.237  18.884  0.00  0.00    +0.000 A 
ATOM      6  C   UNL     1       1.337   2.708  19.253  0.00  0.00    +0.000 A 
ATOM      7  C   UNL     1       0.547   3.369  20.194  0.00  0.00    +0.000 A 
ATOM      8  C   UNL     1       0.997   4.560  20.764  0.00  0.00    +0.000 A 
ATOM      9  C   UNL     1       2.254   5.068  20.422  0.00  0.00    +0.000 A 
ATOM     10  C   UNL     1       3.057   4.393  19.491  0.00  0.00    +0.000 A 
ATOM     11  C   UNL     1       4.405   4.902  19.174  0.00  0.00    +0.000 C 
ATOM     12  O   UNL     1       4.843   5.880  19.772  0.00  0.00    +0.000 OA
ENDROOT
BRANCH   2  13
ATOM     13  O   UNL     1       5.261   2.662  16.293  0.00  0.00    +0.000 OA
ATOM     14  H   UNL     1       4.583   2.417  15.644  0.00  0.00    +0.000 HD
ENDBRANCH   2  13
BRANCH   1  15
ATOM     15  C   UNL     1       6.606   4.759  17.876  0.00  0.00    +0.000 C 
BRANCH  15  16
ATOM     16  C   UNL     1       6.765   5.791  16.707  0.00  0.00    +0.000 C 
ATOM     17  C   UNL     1       7.507   7.062  17.168  0.00  0.00    +0.000 C 
ATOM     18  C   UNL     1       5.393   6.208  16.145  0.00  0.00    +0.000 C 
BRANCH  16  19
ATOM     19  C   UNL     1       7.607   5.152  15.571  0.00  0.00    +0.000 C 
BRANCH  19  20
ATOM     20  O   UNL     1       6.947   5.305  14.306  0.00  0.00    +0.000 OA
BRANCH  20  21
ATOM     21  C   UNL     1       7.727   5.260  13.191  0.00  0.00    +0.000 C 
ATOM     22  O   UNL     1       8.684   5.980  12.958  0.00  0.00    +0.000 OA
BRANCH  21  23
ATOM     23  C   UNL     1       7.237   4.168  12.268  0.00  0.00    +0.000 C 
BRANCH  23  24
ATOM     24  C   UNL     1       5.872   3.639  12.690  0.00  0.00    +0.000 C 
BRANCH  24  26
ATOM     25  C   UNL     1       3.954   3.159  11.128  0.00  0.00    +0.000 C 
ATOM     26  C   UNL     1       5.284   2.659  11.673  0.00  0.00    +0.000 C 
ENDBRANCH  24  26
ENDBRANCH  23  24
ENDBRANCH  21  23
ENDBRANCH  20  21
ENDBRANCH  19  20
ENDBRANCH  16  19
ENDBRANCH  15  16
ENDBRANCH   1  15
TORSDOF 9
ENDMDL
MODEL 5
REMARK VINA RESULT:      -7.5      0.856      2.338
REMARK  Name = 
REMARK  12 active torsions:
REMARK  status: ('A' for Active; 'I' for Inactive)
REMARK    1  A    between atoms: C_1  and  C_2
REMARK    2  A    between atoms: C_2  and  C_3
REMARK    3  A    between atoms: C_3  and  C_4
REMARK    4  A    between atoms: C_4  and  C_5
REMARK    5  A    between atoms: C_5  and  O_7
REMARK    6  A    between atoms: O_7  and  C_8
REMARK    7  A    between atoms: C_8  and  C_9
REMARK    8  A    between atoms: C_9  and  C_10
REMARK    9  A    between atoms: C_9  and  C_11
REMARK   10  A    between atoms: C_9  and  C_12
REMARK   11  A    between atoms: C_12  and  C_13
REMARK   12  A    between atoms: C_14  and  O_15
REMARK                            x       y       z     vdW  Elec       q    Type
REMARK                         _______ _______ _______ _____ _____    ______ ____
ROOT
ATOM      1  C   UNL     1       4.120   5.436  17.363  0.00  0.00    +0.000 C 
ATOM      2  C   UNL     1       3.641   6.436  18.127  0.00  0.00    +0.000 C 
ATOM      3  C   UNL     1       2.532   6.212  19.104  0.00  0.00    +0.000 C 
ATOM      4  O   UNL     1       1.970   7.146  19.666  0.00  0.00    +0.000 OA
ATOM      5  C   UNL     1       2.135   4.827  19.394  0.00  0.00    +0.000 A 
ATOM      6  C   UNL     1       1.148   4.579  20.358  0.00  0.00    +0.000 A 
ATOM      7  C   UNL     1       0.829   3.266  20.709  0.00  0.00    +0.000 A 
ATOM      8  C   UNL     1       1.497   2.204  20.102  0.00  0.00    +0.000 A 
ATOM      9  C   UNL     1       2.456   2.452  19.116  0.00  0.00    +0.000 A 
ATOM     10  C   UNL     1       2.763   3.770  18.748  0.00  0.00    +0.000 A 
ATOM     11  C   UNL     1       3.735   4.026  17.668  0.00  0.00    +0.000 C 
ATOM     12  O   UNL     1       4.226   3.085  17.054  0.00  0.00    +0.000 OA
ENDROOT
BRANCH   2  13
ATOM     13  O   UNL     1       4.084   7.743  18.007  0.00  0.00    +0.000 OA
ATOM     14  H   UNL     1       4.958   7.743  17.583  0.00  0.00    +0.000 HD
ENDBRANCH   2  13
BRANCH   1  15
ATOM     15  C   UNL     1       5.076   5.634  16.196  0.00  0.00    +0.000 C 
BRANCH  15  16
ATOM     16  C   UNL     1       6.604   5.554  16.538  0.00  0.00    +0.000 C 
ATOM     17  C   UNL     1       6.853   4.777  17.846  0.00  0.00    +0.000 C 
ATOM     18  C   UNL     1       7.213   6.962  16.688  0.00  0.00    +0.000 C 
BRANCH  16  19
ATOM     19  C   UNL     1       7.344   4.798  15.403  0.00  0.00    +0.000 C 
BRANCH  19  20
ATOM     20  O   UNL     1       7.273   5.536  14.174  0.00  0.00    +0.000 OA
BRANCH  20  21
ATOM     21  C   UNL     1       7.129   4.816  13.027  0.00  0.00    +0.000 C 
ATOM     22  O   UNL     1       7.708   5.027  11.974  0.00  0.00    +0.000 OA
BRANCH  21  23
ATOM     23  C   UNL     1       6.141   3.694  13.248  0.00  0.00    +0.000 C 
BRANCH  23  24
ATOM     24  C   UNL     1       5.583   3.164  11.934  0.00  0.00    +0.000 C 
BRANCH  24  26
ATOM     25  C   UNL     1       3.638   3.535  10.375  0.00  0.00    +0.000 C 
ATOM     26  C   UNL     1       4.068   3.350  11.823  0.00  0.00    +0.000 C 
ENDBRANCH  24  26
ENDBRANCH  23  24
ENDBRANCH  21  23
ENDBRANCH  20  21
ENDBRANCH  19  20
ENDBRANCH  16  19
ENDBRANCH  15  16
ENDBRANCH   1  15
TORSDOF 9
ENDMDL
MODEL 6
REMARK VINA RESULT:      -7.3      2.736      5.554
REMARK  Name = 
REMARK  12 active torsions:
REMARK  status: ('A' for Active; 'I' for Inactive)
REMARK    1  A    between atoms: C_1  and  C_2
REMARK    2  A    between atoms: C_2  and  C_3
REMARK    3  A    between atoms: C_3  and  C_4
REMARK    4  A    between atoms: C_4  and  C_5
REMARK    5  A    between atoms: C_5  and  O_7
REMARK    6  A    between atoms: O_7  and  C_8
REMARK    7  A    between atoms: C_8  and  C_9
REMARK    8  A    between atoms: C_9  and  C_10
REMARK    9  A    between atoms: C_9  and  C_11
REMARK   10  A    between atoms: C_9  and  C_12
REMARK   11  A    between atoms: C_12  and  C_13
REMARK   12  A    between atoms: C_14  and  O_15
REMARK                            x       y       z     vdW  Elec       q    Type
REMARK                         _______ _______ _______ _____ _____    ______ ____
ROOT
ATOM      1  C   UNL     1       2.857   6.460  19.169  0.00  0.00    +0.000 C 
ATOM      2  C   UNL     1       3.052   7.399  18.224  0.00  0.00    +0.000 C 
ATOM      3  C   UNL     1       2.219   8.639  18.169  0.00  0.00    +0.000 C 
ATOM      4  O   UNL     1       2.265   9.405  17.213  0.00  0.00    +0.000 OA
ATOM      5  C   UNL     1       1.343   8.934  19.312  0.00  0.00    +0.000 A 
ATOM      6  C   UNL     1       0.602  10.125  19.325  0.00  0.00    +0.000 A 
ATOM      7  C   UNL     1      -0.161  10.460  20.444  0.00  0.00    +0.000 A 
ATOM      8  C   UNL     1      -0.182   9.611  21.550  0.00  0.00    +0.000 A 
ATOM      9  C   UNL     1       0.529   8.408  21.521  0.00  0.00    +0.000 A 
ATOM     10  C   UNL     1       1.280   8.060  20.389  0.00  0.00    +0.000 A 
ATOM     11  C   UNL     1       1.984   6.764  20.342  0.00  0.00    +0.000 C 
ATOM     12  O   UNL     1       1.860   5.969  21.267  0.00  0.00    +0.000 OA
ENDROOT
BRANCH   2  13
ATOM     13  O   UNL     1       3.975   7.247  17.203  0.00  0.00    +0.000 OA
ATOM     14  H   UNL     1       4.869   7.235  17.582  0.00  0.00    +0.000 HD
ENDBRANCH   2  13
BRANCH   1  15
ATOM     15  C   UNL     1       3.501   5.081  19.151  0.00  0.00    +0.000 C 
BRANCH  15  16
ATOM     16  C   UNL     1       2.711   3.964  18.386  0.00  0.00    +0.000 C 
ATOM     17  C   UNL     1       1.445   4.526  17.709  0.00  0.00    +0.000 C 
ATOM     18  C   UNL     1       2.289   2.831  19.340  0.00  0.00    +0.000 C 
BRANCH  16  19
ATOM     19  C   UNL     1       3.611   3.377  17.267  0.00  0.00    +0.000 C 
BRANCH  19  20
ATOM     20  O   UNL     1       4.990   3.697  17.506  0.00  0.00    +0.000 OA
BRANCH  20  21
ATOM     21  C   UNL     1       5.699   4.204  16.460  0.00  0.00    +0.000 C 
ATOM     22  O   UNL     1       5.312   4.280  15.305  0.00  0.00    +0.000 OA
BRANCH  21  23
ATOM     23  C   UNL     1       7.052   4.675  16.940  0.00  0.00    +0.000 C 
BRANCH  23  24
ATOM     24  C   UNL     1       7.229   6.177  16.754  0.00  0.00    +0.000 C 
BRANCH  24  26
ATOM     25  C   UNL     1       7.905   8.363  17.809  0.00  0.00    +0.000 C 
ATOM     26  C   UNL     1       7.651   6.881  18.044  0.00  0.00    +0.000 C 
ENDBRANCH  24  26
ENDBRANCH  23  24
ENDBRANCH  21  23
ENDBRANCH  20  21
ENDBRANCH  19  20
ENDBRANCH  16  19
ENDBRANCH  15  16
ENDBRANCH   1  15
TORSDOF 9
ENDMDL
MODEL 7
REMARK VINA RESULT:      -7.1      1.344      2.649
REMARK  Name = 
REMARK  12 active torsions:
REMARK  status: ('A' for Active; 'I' for Inactive)
REMARK    1  A    between atoms: C_1  and  C_2
REMARK    2  A    between atoms: C_2  and  C_3
REMARK    3  A    between atoms: C_3  and  C_4
REMARK    4  A    between atoms: C_4  and  C_5
REMARK    5  A    between atoms: C_5  and  O_7
REMARK    6  A    between atoms: O_7  and  C_8
REMARK    7  A    between atoms: C_8  and  C_9
REMARK    8  A    between atoms: C_9  and  C_10
REMARK    9  A    between atoms: C_9  and  C_11
REMARK   10  A    between atoms: C_9  and  C_12
REMARK   11  A    between atoms: C_12  and  C_13
REMARK   12  A    between atoms: C_14  and  O_15
REMARK                            x       y       z     vdW  Elec       q    Type
REMARK                         _______ _______ _______ _____ _____    ______ ____
ROOT
ATOM      1  C   UNL     1       4.614   5.502  18.544  0.00  0.00    +0.000 C 
ATOM      2  C   UNL     1       3.582   6.346  18.734  0.00  0.00    +0.000 C 
ATOM      3  C   UNL     1       2.324   5.903  19.409  0.00  0.00    +0.000 C 
ATOM      4  O   UNL     1       1.319   6.605  19.422  0.00  0.00    +0.000 OA
ATOM      5  C   UNL     1       2.323   4.597  20.082  0.00  0.00    +0.000 A 
ATOM      6  C   UNL     1       1.183   4.184  20.787  0.00  0.00    +0.000 A 
ATOM      7  C   UNL     1       1.202   2.989  21.506  0.00  0.00    +0.000 A 
ATOM      8  C   UNL     1       2.358   2.210  21.529  0.00  0.00    +0.000 A 
ATOM      9  C   UNL     1       3.482   2.606  20.798  0.00  0.00    +0.000 A 
ATOM     10  C   UNL     1       3.457   3.796  20.057  0.00  0.00    +0.000 A 
ATOM     11  C   UNL     1       4.626   4.182  19.243  0.00  0.00    +0.000 C 
ATOM     12  O   UNL     1       5.592   3.430  19.169  0.00  0.00    +0.000 OA
ENDROOT
BRANCH   2  13
ATOM     13  O   UNL     1       3.585   7.644  18.253  0.00  0.00    +0.000 OA
ATOM     14  H   UNL     1       2.684   8.002  18.302  0.00  0.00    +0.000 HD
ENDBRANCH   2  13
BRANCH   1  15
ATOM     15  C   UNL     1       5.822   5.809  17.670  0.00  0.00    +0.000 C 
BRANCH  15  16
ATOM     16  C   UNL     1       5.672   5.468  16.147  0.00  0.00    +0.000 C 
ATOM     17  C   UNL     1       5.176   6.683  15.339  0.00  0.00    +0.000 C 
ATOM     18  C   UNL     1       4.681   4.307  15.934  0.00  0.00    +0.000 C 
BRANCH  16  19
ATOM     19  C   UNL     1       7.057   5.066  15.574  0.00  0.00    +0.000 C 
BRANCH  19  20
ATOM     20  O   UNL     1       6.917   4.016  14.605  0.00  0.00    +0.000 OA
BRANCH  20  21
ATOM     21  C   UNL     1       7.019   4.367  13.293  0.00  0.00    +0.000 C 
ATOM     22  O   UNL     1       7.644   5.319  12.855  0.00  0.00    +0.000 OA
BRANCH  21  23
ATOM     23  C   UNL     1       6.242   3.391  12.441  0.00  0.00    +0.000 C 
BRANCH  23  24
ATOM     24  C   UNL     1       4.859   3.922  12.089  0.00  0.00    +0.000 C 
BRANCH  24  26
ATOM     25  C   UNL     1       3.239   3.797  10.162  0.00  0.00    +0.000 C 
ATOM     26  C   UNL     1       4.104   3.001  11.128  0.00  0.00    +0.000 C 
ENDBRANCH  24  26
ENDBRANCH  23  24
ENDBRANCH  21  23
ENDBRANCH  20  21
ENDBRANCH  19  20
ENDBRANCH  16  19
ENDBRANCH  15  16
ENDBRANCH   1  15
TORSDOF 9
ENDMDL
MODEL 8
REMARK VINA RESULT:      -7.1      2.900      5.684
REMARK  Name = 
REMARK  12 active torsions:
REMARK  status: ('A' for Active; 'I' for Inactive)
REMARK    1  A    between atoms: C_1  and  C_2
REMARK    2  A    between atoms: C_2  and  C_3
REMARK    3  A    between atoms: C_3  and  C_4
REMARK    4  A    between atoms: C_4  and  C_5
REMARK    5  A    between atoms: C_5  and  O_7
REMARK    6  A    between atoms: O_7  and  C_8
REMARK    7  A    between atoms: C_8  and  C_9
REMARK    8  A    between atoms: C_9  and  C_10
REMARK    9  A    between atoms: C_9  and  C_11
REMARK   10  A    between atoms: C_9  and  C_12
REMARK   11  A    between atoms: C_12  and  C_13
REMARK   12  A    between atoms: C_14  and  O_15
REMARK                            x       y       z     vdW  Elec       q    Type
REMARK                         _______ _______ _______ _____ _____    ______ ____
ROOT
ATOM      1  C   UNL     1       2.845   6.393  19.338  0.00  0.00    +0.000 C 
ATOM      2  C   UNL     1       2.059   6.423  20.430  0.00  0.00    +0.000 C 
ATOM      3  C   UNL     1       1.353   7.672  20.853  0.00  0.00    +0.000 C 
ATOM      4  O   UNL     1       0.788   7.757  21.937  0.00  0.00    +0.000 OA
ATOM      5  C   UNL     1       1.337   8.806  19.918  0.00  0.00    +0.000 A 
ATOM      6  C   UNL     1       0.624   9.967  20.253  0.00  0.00    +0.000 A 
ATOM      7  C   UNL     1       0.524  11.014  19.336  0.00  0.00    +0.000 A 
ATOM      8  C   UNL     1       1.131  10.902  18.085  0.00  0.00    +0.000 A 
ATOM      9  C   UNL     1       1.870   9.759  17.767  0.00  0.00    +0.000 A 
ATOM     10  C   UNL     1       1.989   8.715  18.695  0.00  0.00    +0.000 A 
ATOM     11  C   UNL     1       2.816   7.535  18.376  0.00  0.00    +0.000 C 
ATOM     12  O   UNL     1       3.447   7.500  17.325  0.00  0.00    +0.000 OA
ENDROOT
BRANCH   2  13
ATOM     13  O   UNL     1       1.911   5.333  21.271  0.00  0.00    +0.000 OA
ATOM     14  H   UNL     1       1.024   4.958  21.152  0.00  0.00    +0.000 HD
ENDBRANCH   2  13
BRANCH   1  15
ATOM     15  C   UNL     1       3.769   5.238  18.979  0.00  0.00    +0.000 C 
BRANCH  15  16
ATOM     16  C   UNL     1       3.110   4.050  18.196  0.00  0.00    +0.000 C 
ATOM     17  C   UNL     1       1.694   4.409  17.705  0.00  0.00    +0.000 C 
ATOM     18  C   UNL     1       3.013   2.790  19.078  0.00  0.00    +0.000 C 
BRANCH  16  19
ATOM     19  C   UNL     1       3.965   3.728  16.942  0.00  0.00    +0.000 C 
BRANCH  19  20
ATOM     20  O   UNL     1       5.069   4.640  16.835  0.00  0.00    +0.000 OA
BRANCH  20  21
ATOM     21  C   UNL     1       6.139   4.234  16.097  0.00  0.00    +0.000 C 
ATOM     22  O   UNL     1       6.089   3.656  15.024  0.00  0.00    +0.000 OA
BRANCH  21  23
ATOM     23  C   UNL     1       7.420   4.611  16.804  0.00  0.00    +0.000 C 
BRANCH  23  24
ATOM     24  C   UNL     1       7.173   4.999  18.257  0.00  0.00    +0.000 C 
BRANCH  24  26
ATOM     25  C   UNL     1       7.519   7.395  17.556  0.00  0.00    +0.000 C 
ATOM     26  C   UNL     1       7.804   6.345  18.620  0.00  0.00    +0.000 C 
ENDBRANCH  24  26
ENDBRANCH  23  24
ENDBRANCH  21  23
ENDBRANCH  20  21
ENDBRANCH  19  20
ENDBRANCH  16  19
ENDBRANCH  15  16
ENDBRANCH   1  15
TORSDOF 9
ENDMDL
MODEL 9
REMARK VINA RESULT:      -7.1      2.317      5.383
REMARK  Name = 
REMARK  12 active torsions:
REMARK  status: ('A' for Active; 'I' for Inactive)
REMARK    1  A    between atoms: C_1  and  C_2
REMARK    2  A    between atoms: C_2  and  C_3
REMARK    3  A    between atoms: C_3  and  C_4
REMARK    4  A    between atoms: C_4  and  C_5
REMARK    5  A    between atoms: C_5  and  O_7
REMARK    6  A    between atoms: O_7  and  C_8
REMARK    7  A    between atoms: C_8  and  C_9
REMARK    8  A    between atoms: C_9  and  C_10
REMARK    9  A    between atoms: C_9  and  C_11
REMARK   10  A    between atoms: C_9  and  C_12
REMARK   11  A    between atoms: C_12  and  C_13
REMARK   12  A    between atoms: C_14  and  O_15
REMARK                            x       y       z     vdW  Elec       q    Type
REMARK                         _______ _______ _______ _____ _____    ______ ____
ROOT
ATOM      1  C   UNL     1       4.081   5.399  17.280  0.00  0.00    +0.000 C 
ATOM      2  C   UNL     1       3.676   6.424  18.054  0.00  0.00    +0.000 C 
ATOM      3  C   UNL     1       2.624   6.245  19.101  0.00  0.00    +0.000 C 
ATOM      4  O   UNL     1       2.122   7.202  19.680  0.00  0.00    +0.000 OA
ATOM      5  C   UNL     1       2.211   4.875  19.438  0.00  0.00    +0.000 A 
ATOM      6  C   UNL     1       1.279   4.668  20.466  0.00  0.00    +0.000 A 
ATOM      7  C   UNL     1       0.948   3.371  20.858  0.00  0.00    +0.000 A 
ATOM      8  C   UNL     1       1.550   2.281  20.230  0.00  0.00    +0.000 A 
ATOM      9  C   UNL     1       2.452   2.488  19.183  0.00  0.00    +0.000 A 
ATOM     10  C   UNL     1       2.770   3.792  18.774  0.00  0.00    +0.000 A 
ATOM     11  C   UNL     1       3.680   4.005  17.632  0.00  0.00    +0.000 C 
ATOM     12  O   UNL     1       4.108   3.041  17.005  0.00  0.00    +0.000 OA
ENDROOT
BRANCH   2  13
ATOM     13  O   UNL     1       4.145   7.716  17.885  0.00  0.00    +0.000 OA
ATOM     14  H   UNL     1       3.590   8.324  18.399  0.00  0.00    +0.000 HD
ENDBRANCH   2  13
BRANCH   1  15
ATOM     15  C   UNL     1       4.969   5.553  16.053  0.00  0.00    +0.000 C 
BRANCH  15  16
ATOM     16  C   UNL     1       6.496   5.273  16.270  0.00  0.00    +0.000 C 
ATOM     17  C   UNL     1       7.053   4.307  15.206  0.00  0.00    +0.000 C 
ATOM     18  C   UNL     1       6.755   4.663  17.662  0.00  0.00    +0.000 C 
BRANCH  16  19
ATOM     19  C   UNL     1       7.283   6.604  16.144  0.00  0.00    +0.000 C 
BRANCH  19  20
ATOM     20  O   UNL     1       6.887   7.525  17.171  0.00  0.00    +0.000 OA
BRANCH  20  21
ATOM     21  C   UNL     1       7.865   7.984  18.001  0.00  0.00    +0.000 C 
ATOM     22  O   UNL     1       8.507   7.311  18.790  0.00  0.00    +0.000 OA
BRANCH  21  23
ATOM     23  C   UNL     1       8.051   9.470  17.797  0.00  0.00    +0.000 C 
BRANCH  23  24
ATOM     24  C   UNL     1       9.037  10.060  18.797  0.00  0.00    +0.000 C 
BRANCH  24  26
ATOM     25  C   UNL     1      11.076  11.505  19.125  0.00  0.00    +0.000 C 
ATOM     26  C   UNL     1       9.982  11.080  18.157  0.00  0.00    +0.000 C 
ENDBRANCH  24  26
ENDBRANCH  23  24
ENDBRANCH  21  23
ENDBRANCH  20  21
ENDBRANCH  19  20
ENDBRANCH  16  19
ENDBRANCH  15  16
ENDBRANCH   1  15
TORSDOF 9
ENDMDL
