MODEL 1
REMARK VINA RESULT:      -9.0      0.000      0.000
REMARK  Name = 
REMARK  9 active torsions:
REMARK  status: ('A' for Active; 'I' for Inactive)
REMARK    1  A    between atoms: C_1  and  C_2
REMARK    2  A    between atoms: C_2  and  C_3
REMARK    3  A    between atoms: C_2  and  C_4
REMARK    4  A    between atoms: C_4  and  C_5
REMARK    5  A    between atoms: C_8  and  C_9
REMARK    6  A    between atoms: C_9  and  C_10
REMARK    7  A    between atoms: C_9  and  C_11
REMARK    8  A    between atoms: N_20  and  C_21
REMARK    9  A    between atoms: C_21  and  C_22
REMARK                            x       y       z     vdW  Elec       q    Type
REMARK                         _______ _______ _______ _____ _____    ______ ____
ROOT
ATOM      1  C   UNL     1       3.927   6.705  18.051  0.00  0.00    +0.000 A 
ATOM      2  N   UNL     1       3.582   7.806  17.406  0.00  0.00    +0.000 NA
ATOM      3  C   UNL     1       2.601   8.393  18.138  0.00  0.00    +0.000 A 
ATOM      4  C   UNL     1       2.009   9.648  17.951  0.00  0.00    +0.000 A 
ATOM      5  C   UNL     1       1.101  10.095  18.909  0.00  0.00    +0.000 A 
ATOM      6 CL   UNL     1       0.365  11.640  18.713  0.00  0.00    +0.000 Cl
ATOM      7  C   UNL     1       0.794   9.320  20.028  0.00  0.00    +0.000 A 
ATOM      8  C   UNL     1       1.356   8.047  20.206  0.00  0.00    +0.000 A 
ATOM      9  C   UNL     1       2.252   7.597  19.224  0.00  0.00    +0.000 A 
ATOM     10  N   UNL     1       3.002   6.436  19.051  0.00  0.00    +0.000 N 
ENDROOT
BRANCH   1  11
ATOM     11  C   UNL     1       5.237   5.985  17.810  0.00  0.00    +0.000 C 
ATOM     12  C   UNL     1       6.379   7.020  17.855  0.00  0.00    +0.000 C 
BRANCH  11  16
ATOM     13  C   UNL     1       5.946   4.140  13.950  0.00  0.00    +0.000 A 
ATOM     14  C   UNL     1       5.798   3.336  15.087  0.00  0.00    +0.000 A 
ATOM     15  C   UNL     1       5.497   3.911  16.332  0.00  0.00    +0.000 A 
ATOM     16  C   UNL     1       5.323   5.297  16.447  0.00  0.00    +0.000 A 
ATOM     17  C   UNL     1       5.391   6.077  15.280  0.00  0.00    +0.000 A 
ATOM     18  C   UNL     1       5.720   5.513  14.057  0.00  0.00    +0.000 A 
BRANCH  13  19
ATOM     19  C   UNL     1       6.301   3.581  12.597  0.00  0.00    +0.000 C 
BRANCH  19  21
ATOM     20  C   UNL     1       4.190   3.224  11.182  0.00  0.00    +0.000 C 
ATOM     21  C   UNL     1       5.272   2.575  12.052  0.00  0.00    +0.000 C 
ATOM     22  C   UNL     1       5.996   1.501  11.236  0.00  0.00    +0.000 C 
ENDBRANCH  19  21
ENDBRANCH  13  19
ENDBRANCH  11  16
ENDBRANCH   1  11
BRANCH  10  23
ATOM     23  C   UNL     1       2.975   5.300  19.978  0.00  0.00    +0.000 C 
BRANCH  23  24
ATOM     24  C   UNL     1       3.245   3.904  19.446  0.00  0.00    +0.000 A 
ATOM     25  C   UNL     1       4.235   3.041  19.945  0.00  0.00    +0.000 A 
ATOM     26  C   UNL     1       4.395   1.748  19.419  0.00  0.00    +0.000 A 
ATOM     27  C   UNL     1       3.582   1.288  18.388  0.00  0.00    +0.000 A 
ATOM     28  C   UNL     1       2.611   2.128  17.861  0.00  0.00    +0.000 A 
ATOM     29  C   UNL     1       2.457   3.425  18.374  0.00  0.00    +0.000 A 
ATOM     30 CL   UNL     1       1.253   4.415  17.617  0.00  0.00    +0.000 Cl
ENDBRANCH  23  24
ENDBRANCH  10  23
TORSDOF 6
ENDMDL
MODEL 2
REMARK VINA RESULT:      -8.9      1.314      1.717
REMARK  Name = 
REMARK  9 active torsions:
REMARK  status: ('A' for Active; 'I' for Inactive)
REMARK    1  A    between atoms: C_1  and  C_2
REMARK    2  A    between atoms: C_2  and  C_3
REMARK    3  A    between atoms: C_2  and  C_4
REMARK    4  A    between atoms: C_4  and  C_5
REMARK    5  A    between atoms: C_8  and  C_9
REMARK    6  A    between atoms: C_9  and  C_10
REMARK    7  A    between atoms: C_9  and  C_11
REMARK    8  A    between atoms: N_20  and  C_21
REMARK    9  A    between atoms: C_21  and  C_22
REMARK                            x       y       z     vdW  Elec       q    Type
REMARK                         _______ _______ _______ _____ _____    ______ ____
ROOT
ATOM      1  C   UNL     1       5.000   6.276  17.674  0.00  0.00    +0.000 A 
ATOM      2  N   UNL     1       4.496   7.346  17.084  0.00  0.00    +0.000 NA
ATOM      3  C   UNL     1       3.412   7.717  17.813  0.00  0.00    +0.000 A 
ATOM      4  C   UNL     1       2.628   8.869  17.680  0.00  0.00    +0.000 A 
ATOM      5  C   UNL     1       1.634   9.099  18.628  0.00  0.00    +0.000 A 
ATOM      6 CL   UNL     1       0.659  10.514  18.498  0.00  0.00    +0.000 Cl
ATOM      7  C   UNL     1       1.427   8.214  19.686  0.00  0.00    +0.000 A 
ATOM      8  C   UNL     1       2.186   7.040  19.809  0.00  0.00    +0.000 A 
ATOM      9  C   UNL     1       3.171   6.806  18.835  0.00  0.00    +0.000 A 
ATOM     10  N   UNL     1       4.105   5.796  18.621  0.00  0.00    +0.000 N 
ENDROOT
BRANCH   1  11
ATOM     11  C   UNL     1       6.417   5.795  17.440  0.00  0.00    +0.000 C 
ATOM     12  C   UNL     1       7.357   7.017  17.466  0.00  0.00    +0.000 C 
BRANCH  11  16
ATOM     13  C   UNL     1       6.600   4.077  13.463  0.00  0.00    +0.000 A 
ATOM     14  C   UNL     1       7.430   5.155  13.792  0.00  0.00    +0.000 A 
ATOM     15  C   UNL     1       7.436   5.678  15.094  0.00  0.00    +0.000 A 
ATOM     16  C   UNL     1       6.622   5.113  16.087  0.00  0.00    +0.000 A 
ATOM     17  C   UNL     1       5.862   3.978  15.760  0.00  0.00    +0.000 A 
ATOM     18  C   UNL     1       5.831   3.483  14.466  0.00  0.00    +0.000 A 
BRANCH  13  19
ATOM     19  C   UNL     1       6.527   3.497  12.074  0.00  0.00    +0.000 C 
BRANCH  19  21
ATOM     20  C   UNL     1       4.171   3.169  11.109  0.00  0.00    +0.000 C 
ATOM     21  C   UNL     1       5.345   2.535  11.866  0.00  0.00    +0.000 C 
ATOM     22  C   UNL     1       5.826   1.299  11.101  0.00  0.00    +0.000 C 
ENDBRANCH  19  21
ENDBRANCH  13  19
ENDBRANCH  11  16
ENDBRANCH   1  11
BRANCH  10  23
ATOM     23  C   UNL     1       4.240   4.613  19.477  0.00  0.00    +0.000 C 
BRANCH  23  24
ATOM     24  C   UNL     1       2.999   3.814  19.836  0.00  0.00    +0.000 A 
ATOM     25  C   UNL     1       2.553   3.587  21.148  0.00  0.00    +0.000 A 
ATOM     26  C   UNL     1       1.371   2.867  21.392  0.00  0.00    +0.000 A 
ATOM     27  C   UNL     1       0.614   2.354  20.343  0.00  0.00    +0.000 A 
ATOM     28  C   UNL     1       1.044   2.545  19.037  0.00  0.00    +0.000 A 
ATOM     29  C   UNL     1       2.231   3.252  18.790  0.00  0.00    +0.000 A 
ATOM     30 CL   UNL     1       2.712   3.394  17.131  0.00  0.00    +0.000 Cl
ENDBRANCH  23  24
ENDBRANCH  10  23
TORSDOF 6
ENDMDL
MODEL 3
REMARK VINA RESULT:      -8.6      1.038      1.340
REMARK  Name = 
REMARK  9 active torsions:
REMARK  status: ('A' for Active; 'I' for Inactive)
REMARK    1  A    between atoms: C_1  and  C_2
REMARK    2  A    between atoms: C_2  and  C_3
REMARK    3  A    between atoms: C_2  and  C_4
REMARK    4  A    between atoms: C_4  and  C_5
REMARK    5  A    between atoms: C_8  and  C_9
REMARK    6  A    between atoms: C_9  and  C_10
REMARK    7  A    between atoms: C_9  and  C_11
REMARK    8  A    between atoms: N_20  and  C_21
REMARK    9  A    between atoms: C_21  and  C_22
REMARK                            x       y       z     vdW  Elec       q    Type
REMARK                         _______ _______ _______ _____ _____    ______ ____
ROOT
ATOM      1  C   UNL     1       3.930   6.780  18.057  0.00  0.00    +0.000 A 
ATOM      2  N   UNL     1       3.557   7.861  17.394  0.00  0.00    +0.000 NA
ATOM      3  C   UNL     1       2.574   8.445  18.126  0.00  0.00    +0.000 A 
ATOM      4  C   UNL     1       1.957   9.685  17.920  0.00  0.00    +0.000 A 
ATOM      5  C   UNL     1       1.053  10.135  18.880  0.00  0.00    +0.000 A 
ATOM      6 CL   UNL     1       0.286  11.663  18.660  0.00  0.00    +0.000 Cl
ATOM      7  C   UNL     1       0.773   9.380  20.018  0.00  0.00    +0.000 A 
ATOM      8  C   UNL     1       1.361   8.121  20.216  0.00  0.00    +0.000 A 
ATOM      9  C   UNL     1       2.254   7.666  19.232  0.00  0.00    +0.000 A 
ATOM     10  N   UNL     1       3.022   6.515  19.074  0.00  0.00    +0.000 N 
ENDROOT
BRANCH   1  11
ATOM     11  C   UNL     1       5.250   6.079  17.816  0.00  0.00    +0.000 C 
ATOM     12  C   UNL     1       6.373   7.136  17.823  0.00  0.00    +0.000 C 
BRANCH  11  16
ATOM     13  C   UNL     1       5.943   4.171  13.983  0.00  0.00    +0.000 A 
ATOM     14  C   UNL     1       5.849   3.389  15.141  0.00  0.00    +0.000 A 
ATOM     15  C   UNL     1       5.555   3.982  16.379  0.00  0.00    +0.000 A 
ATOM     16  C   UNL     1       5.332   5.363  16.467  0.00  0.00    +0.000 A 
ATOM     17  C   UNL     1       5.345   6.117  15.281  0.00  0.00    +0.000 A 
ATOM     18  C   UNL     1       5.668   5.538  14.064  0.00  0.00    +0.000 A 
BRANCH  13  19
ATOM     19  C   UNL     1       6.289   3.594  12.635  0.00  0.00    +0.000 C 
BRANCH  19  21
ATOM     20  C   UNL     1       4.156   3.315  11.236  0.00  0.00    +0.000 C 
ATOM     21  C   UNL     1       5.229   2.624  12.086  0.00  0.00    +0.000 C 
ATOM     22  C   UNL     1       5.916   1.544  11.246  0.00  0.00    +0.000 C 
ENDBRANCH  19  21
ENDBRANCH  13  19
ENDBRANCH  11  16
ENDBRANCH   1  11
BRANCH  10  23
ATOM     23  C   UNL     1       3.027   5.400  20.025  0.00  0.00    +0.000 C 
BRANCH  23  24
ATOM     24  C   UNL     1       2.468   4.056  19.592  0.00  0.00    +0.000 A 
ATOM     25  C   UNL     1       1.102   3.788  19.401  0.00  0.00    +0.000 A 
ATOM     26  C   UNL     1       0.671   2.525  18.961  0.00  0.00    +0.000 A 
ATOM     27  C   UNL     1       1.582   1.504  18.709  0.00  0.00    +0.000 A 
ATOM     28  C   UNL     1       2.935   1.735  18.912  0.00  0.00    +0.000 A 
ATOM     29  C   UNL     1       3.369   2.990  19.363  0.00  0.00    +0.000 A 
ATOM     30 CL   UNL     1       5.071   3.166  19.636  0.00  0.00    +0.000 Cl
ENDBRANCH  23  24
ENDBRANCH  10  23
TORSDOF 6
ENDMDL
MODEL 4
REMARK VINA RESULT:      -8.6      1.095      1.265
REMARK  Name = 
REMARK  9 active torsions:
REMARK  status: ('A' for Active; 'I' for Inactive)
REMARK    1  A    between atoms: C_1  and  C_2
REMARK    2  A    between atoms: C_2  and  C_3
REMARK    3  A    between atoms: C_2  and  C_4
REMARK    4  A    between atoms: C_4  and  C_5
REMARK    5  A    between atoms: C_8  and  C_9
REMARK    6  A    between atoms: C_9  and  C_10
REMARK    7  A    between atoms: C_9  and  C_11
REMARK    8  A    between atoms: N_20  and  C_21
REMARK    9  A    between atoms: C_21  and  C_22
REMARK                            x       y       z     vdW  Elec       q    Type
REMARK                         _______ _______ _______ _____ _____    ______ ____
ROOT
ATOM      1  C   UNL     1       4.655   6.526  17.841  0.00  0.00    +0.000 A 
ATOM      2  N   UNL     1       4.177   7.565  17.177  0.00  0.00    +0.000 NA
ATOM      3  C   UNL     1       3.116   8.026  17.888  0.00  0.00    +0.000 A 
ATOM      4  C   UNL     1       2.367   9.189  17.676  0.00  0.00    +0.000 A 
ATOM      5  C   UNL     1       1.394   9.523  18.615  0.00  0.00    +0.000 A 
ATOM      6 CL   UNL     1       0.464  10.955  18.388  0.00  0.00    +0.000 Cl
ATOM      7  C   UNL     1       1.175   8.728  19.740  0.00  0.00    +0.000 A 
ATOM      8  C   UNL     1       1.898   7.543  19.944  0.00  0.00    +0.000 A 
ATOM      9  C   UNL     1       2.860   7.204  18.979  0.00  0.00    +0.000 A 
ATOM     10  N   UNL     1       3.759   6.150  18.833  0.00  0.00    +0.000 N 
ENDROOT
BRANCH   1  11
ATOM     11  C   UNL     1       6.053   5.983  17.628  0.00  0.00    +0.000 C 
ATOM     12  C   UNL     1       7.041   7.166  17.626  0.00  0.00    +0.000 C 
BRANCH  11  16
ATOM     13  C   UNL     1       6.310   4.267  13.653  0.00  0.00    +0.000 A 
ATOM     14  C   UNL     1       7.399   4.975  14.176  0.00  0.00    +0.000 A 
ATOM     15  C   UNL     1       7.361   5.476  15.487  0.00  0.00    +0.000 A 
ATOM     16  C   UNL     1       6.237   5.257  16.295  0.00  0.00    +0.000 A 
ATOM     17  C   UNL     1       5.190   4.472  15.783  0.00  0.00    +0.000 A 
ATOM     18  C   UNL     1       5.213   4.006  14.478  0.00  0.00    +0.000 A 
BRANCH  13  19
ATOM     19  C   UNL     1       6.282   3.738  12.243  0.00  0.00    +0.000 C 
BRANCH  19  21
ATOM     20  C   UNL     1       4.019   3.198  11.160  0.00  0.00    +0.000 C 
ATOM     21  C   UNL     1       5.191   2.680  12.001  0.00  0.00    +0.000 C 
ATOM     22  C   UNL     1       5.809   1.464  11.305  0.00  0.00    +0.000 C 
ENDBRANCH  19  21
ENDBRANCH  13  19
ENDBRANCH  11  16
ENDBRANCH   1  11
BRANCH  10  23
ATOM     23  C   UNL     1       3.868   5.032  19.775  0.00  0.00    +0.000 C 
BRANCH  23  24
ATOM     24  C   UNL     1       3.331   3.670  19.373  0.00  0.00    +0.000 A 
ATOM     25  C   UNL     1       4.058   2.711  18.648  0.00  0.00    +0.000 A 
ATOM     26  C   UNL     1       3.498   1.458  18.349  0.00  0.00    +0.000 A 
ATOM     27  C   UNL     1       2.207   1.133  18.757  0.00  0.00    +0.000 A 
ATOM     28  C   UNL     1       1.459   2.070  19.455  0.00  0.00    +0.000 A 
ATOM     29  C   UNL     1       2.010   3.328  19.744  0.00  0.00    +0.000 A 
ATOM     30 CL   UNL     1       0.980   4.447  20.575  0.00  0.00    +0.000 Cl
ENDBRANCH  23  24
ENDBRANCH  10  23
TORSDOF 6
ENDMDL
MODEL 5
REMARK VINA RESULT:      -7.6      4.728      8.535
REMARK  Name = 
REMARK  9 active torsions:
REMARK  status: ('A' for Active; 'I' for Inactive)
REMARK    1  A    between atoms: C_1  and  C_2
REMARK    2  A    between atoms: C_2  and  C_3
REMARK    3  A    between atoms: C_2  and  C_4
REMARK    4  A    between atoms: C_4  and  C_5
REMARK    5  A    between atoms: C_8  and  C_9
REMARK    6  A    between atoms: C_9  and  C_10
REMARK    7  A    between atoms: C_9  and  C_11
REMARK    8  A    between atoms: N_20  and  C_21
REMARK    9  A    between atoms: C_21  and  C_22
REMARK                            x       y       z     vdW  Elec       q    Type
REMARK                         _______ _______ _______ _____ _____    ______ ____
ROOT
ATOM      1  C   UNL     1      -0.410  10.137  18.567  0.00  0.00    +0.000 A 
ATOM      2  N   UNL     1      -0.678   9.450  17.469  0.00  0.00    +0.000 NA
ATOM      3  C   UNL     1      -1.845   9.941  16.979  0.00  0.00    +0.000 A 
ATOM      4  C   UNL     1      -2.471   9.643  15.762  0.00  0.00    +0.000 A 
ATOM      5  C   UNL     1      -3.609  10.368  15.415  0.00  0.00    +0.000 A 
ATOM      6 CL   UNL     1      -4.394  10.032  13.919  0.00  0.00    +0.000 Cl
ATOM      7  C   UNL     1      -4.109  11.367  16.249  0.00  0.00    +0.000 A 
ATOM      8  C   UNL     1      -3.509  11.650  17.485  0.00  0.00    +0.000 A 
ATOM      9  C   UNL     1      -2.376  10.898  17.836  0.00  0.00    +0.000 A 
ATOM     10  N   UNL     1      -1.521  10.886  18.935  0.00  0.00    +0.000 N 
ENDROOT
BRANCH   1  11
ATOM     11  C   UNL     1       0.971  10.199  19.184  0.00  0.00    +0.000 C 
ATOM     12  C   UNL     1       1.917  10.909  18.195  0.00  0.00    +0.000 C 
BRANCH  11  16
ATOM     13  C   UNL     1       2.288   6.124  19.863  0.00  0.00    +0.000 A 
ATOM     14  C   UNL     1       2.682   6.796  18.700  0.00  0.00    +0.000 A 
ATOM     15  C   UNL     1       2.324   8.138  18.496  0.00  0.00    +0.000 A 
ATOM     16  C   UNL     1       1.583   8.827  19.467  0.00  0.00    +0.000 A 
ATOM     17  C   UNL     1       1.272   8.162  20.665  0.00  0.00    +0.000 A 
ATOM     18  C   UNL     1       1.596   6.827  20.851  0.00  0.00    +0.000 A 
BRANCH  13  19
ATOM     19  C   UNL     1       2.613   4.675  20.118  0.00  0.00    +0.000 C 
BRANCH  19  21
ATOM     20  C   UNL     1       0.867   2.972  19.318  0.00  0.00    +0.000 C 
ATOM     21  C   UNL     1       1.387   3.820  20.485  0.00  0.00    +0.000 C 
ATOM     22  C   UNL     1       1.743   2.900  21.655  0.00  0.00    +0.000 C 
ENDBRANCH  19  21
ENDBRANCH  13  19
ENDBRANCH  11  16
ENDBRANCH   1  11
BRANCH  10  23
ATOM     23  C   UNL     1      -1.677  11.759  20.102  0.00  0.00    +0.000 C 
BRANCH  23  24
ATOM     24  C   UNL     1      -0.951  13.093  20.131  0.00  0.00    +0.000 A 
ATOM     25  C   UNL     1      -0.526  13.791  18.988  0.00  0.00    +0.000 A 
ATOM     26  C   UNL     1       0.107  15.040  19.101  0.00  0.00    +0.000 A 
ATOM     27  C   UNL     1       0.336  15.617  20.346  0.00  0.00    +0.000 A 
ATOM     28  C   UNL     1      -0.053  14.939  21.492  0.00  0.00    +0.000 A 
ATOM     29  C   UNL     1      -0.674  13.685  21.384  0.00  0.00    +0.000 A 
ATOM     30 CL   UNL     1      -1.076  12.893  22.872  0.00  0.00    +0.000 Cl
ENDBRANCH  23  24
ENDBRANCH  10  23
TORSDOF 6
ENDMDL
MODEL 6
REMARK VINA RESULT:      -7.6      3.510      7.165
REMARK  Name = 
REMARK  9 active torsions:
REMARK  status: ('A' for Active; 'I' for Inactive)
REMARK    1  A    between atoms: C_1  and  C_2
REMARK    2  A    between atoms: C_2  and  C_3
REMARK    3  A    between atoms: C_2  and  C_4
REMARK    4  A    between atoms: C_4  and  C_5
REMARK    5  A    between atoms: C_8  and  C_9
REMARK    6  A    between atoms: C_9  and  C_10
REMARK    7  A    between atoms: C_9  and  C_11
REMARK    8  A    between atoms: N_20  and  C_21
REMARK    9  A    between atoms: C_21  and  C_22
REMARK                            x       y       z     vdW  Elec       q    Type
REMARK                         _______ _______ _______ _____ _____    ______ ____
ROOT
ATOM      1  C   UNL     1       0.723  10.494  19.898  0.00  0.00    +0.000 A 
ATOM      2  N   UNL     1       1.743  11.334  19.840  0.00  0.00    +0.000 NA
ATOM      3  C   UNL     1       1.221  12.562  19.590  0.00  0.00    +0.000 A 
ATOM      4  C   UNL     1       1.877  13.799  19.581  0.00  0.00    +0.000 A 
ATOM      5  C   UNL     1       1.106  14.948  19.418  0.00  0.00    +0.000 A 
ATOM      6 CL   UNL     1       1.882  16.486  19.414  0.00  0.00    +0.000 Cl
ATOM      7  C   UNL     1      -0.279  14.873  19.276  0.00  0.00    +0.000 A 
ATOM      8  C   UNL     1      -0.941  13.636  19.251  0.00  0.00    +0.000 A 
ATOM      9  C   UNL     1      -0.152  12.483  19.392  0.00  0.00    +0.000 A 
ATOM     10  N   UNL     1      -0.426  11.118  19.428  0.00  0.00    +0.000 N 
ENDROOT
BRANCH   1  11
ATOM     11  C   UNL     1       0.812   9.132  20.552  0.00  0.00    +0.000 C 
ATOM     12  C   UNL     1       1.563   9.280  21.890  0.00  0.00    +0.000 C 
BRANCH  11  16
ATOM     13  C   UNL     1       3.397   6.448  18.333  0.00  0.00    +0.000 A 
ATOM     14  C   UNL     1       2.896   6.056  19.581  0.00  0.00    +0.000 A 
ATOM     15  C   UNL     1       2.001   6.881  20.281  0.00  0.00    +0.000 A 
ATOM     16  C   UNL     1       1.585   8.101  19.729  0.00  0.00    +0.000 A 
ATOM     17  C   UNL     1       2.031   8.436  18.439  0.00  0.00    +0.000 A 
ATOM     18  C   UNL     1       2.940   7.637  17.763  0.00  0.00    +0.000 A 
BRANCH  13  19
ATOM     19  C   UNL     1       4.385   5.619  17.554  0.00  0.00    +0.000 C 
BRANCH  19  21
ATOM     20  C   UNL     1       6.566   6.917  17.169  0.00  0.00    +0.000 C 
ATOM     21  C   UNL     1       5.239   6.437  16.570  0.00  0.00    +0.000 C 
ATOM     22  C   UNL     1       5.527   5.593  15.326  0.00  0.00    +0.000 C 
ENDBRANCH  19  21
ENDBRANCH  13  19
ENDBRANCH  11  16
ENDBRANCH   1  11
BRANCH  10  23
ATOM     23  C   UNL     1      -1.769  10.549  19.281  0.00  0.00    +0.000 C 
BRANCH  23  24
ATOM     24  C   UNL     1      -2.441  10.580  17.919  0.00  0.00    +0.000 A 
ATOM     25  C   UNL     1      -1.942   9.939  16.773  0.00  0.00    +0.000 A 
ATOM     26  C   UNL     1      -2.647   9.985  15.558  0.00  0.00    +0.000 A 
ATOM     27  C   UNL     1      -3.853  10.671  15.455  0.00  0.00    +0.000 A 
ATOM     28  C   UNL     1      -4.357  11.332  16.566  0.00  0.00    +0.000 A 
ATOM     29  C   UNL     1      -3.649  11.299  17.778  0.00  0.00    +0.000 A 
ATOM     30 CL   UNL     1      -4.332  12.197  19.093  0.00  0.00    +0.000 Cl
ENDBRANCH  23  24
ENDBRANCH  10  23
TORSDOF 6
ENDMDL
MODEL 7
REMARK VINA RESULT:      -7.5      3.954      7.725
REMARK  Name = 
REMARK  9 active torsions:
REMARK  status: ('A' for Active; 'I' for Inactive)
REMARK    1  A    between atoms: C_1  and  C_2
REMARK    2  A    between atoms: C_2  and  C_3
REMARK    3  A    between atoms: C_2  and  C_4
REMARK    4  A    between atoms: C_4  and  C_5
REMARK    5  A    between atoms: C_8  and  C_9
REMARK    6  A    between atoms: C_9  and  C_10
REMARK    7  A    between atoms: C_9  and  C_11
REMARK    8  A    between atoms: N_20  and  C_21
REMARK    9  A    between atoms: C_21  and  C_22
REMARK                            x       y       z     vdW  Elec       q    Type
REMARK                         _______ _______ _______ _____ _____    ______ ____
ROOT
ATOM      1  C   UNL     1       0.624  11.318  19.319  0.00  0.00    +0.000 A 
ATOM      2  N   UNL     1       1.783  11.908  19.083  0.00  0.00    +0.000 NA
ATOM      3  C   UNL     1       1.518  13.228  18.909  0.00  0.00    +0.000 A 
ATOM      4  C   UNL     1       2.426  14.287  18.777  0.00  0.00    +0.000 A 
ATOM      5  C   UNL     1       1.919  15.583  18.733  0.00  0.00    +0.000 A 
ATOM      6 CL   UNL     1       3.011  16.907  18.582  0.00  0.00    +0.000 Cl
ATOM      7  C   UNL     1       0.549  15.826  18.825  0.00  0.00    +0.000 A 
ATOM      8  C   UNL     1      -0.371  14.770  18.925  0.00  0.00    +0.000 A 
ATOM      9  C   UNL     1       0.149  13.466  18.945  0.00  0.00    +0.000 A 
ATOM     10  N   UNL     1      -0.416  12.196  19.041  0.00  0.00    +0.000 N 
ENDROOT
BRANCH   1  11
ATOM     11  C   UNL     1       0.509   9.953  19.964  0.00  0.00    +0.000 C 
ATOM     12  C   UNL     1       0.841  10.092  21.463  0.00  0.00    +0.000 C 
BRANCH  11  16
ATOM     13  C   UNL     1       2.884   6.736  18.285  0.00  0.00    +0.000 A 
ATOM     14  C   UNL     1       2.578   7.855  17.501  0.00  0.00    +0.000 A 
ATOM     15  C   UNL     1       1.872   8.938  18.049  0.00  0.00    +0.000 A 
ATOM     16  C   UNL     1       1.480   8.918  19.395  0.00  0.00    +0.000 A 
ATOM     17  C   UNL     1       1.871   7.825  20.187  0.00  0.00    +0.000 A 
ATOM     18  C   UNL     1       2.539   6.742  19.638  0.00  0.00    +0.000 A 
BRANCH  13  19
ATOM     19  C   UNL     1       3.609   5.533  17.741  0.00  0.00    +0.000 C 
BRANCH  19  21
ATOM     20  C   UNL     1       2.323   3.347  17.345  0.00  0.00    +0.000 C 
ATOM     21  C   UNL     1       3.127   4.198  18.335  0.00  0.00    +0.000 C 
ATOM     22  C   UNL     1       4.334   3.394  18.823  0.00  0.00    +0.000 C 
ENDBRANCH  19  21
ENDBRANCH  13  19
ENDBRANCH  11  16
ENDBRANCH   1  11
BRANCH  10  23
ATOM     23  C   UNL     1      -1.858  11.948  19.127  0.00  0.00    +0.000 C 
BRANCH  23  24
ATOM     24  C   UNL     1      -2.610  11.511  17.882  0.00  0.00    +0.000 A 
ATOM     25  C   UNL     1      -2.003  10.970  16.737  0.00  0.00    +0.000 A 
ATOM     26  C   UNL     1      -2.776  10.555  15.639  0.00  0.00    +0.000 A 
ATOM     27  C   UNL     1      -4.163  10.674  15.654  0.00  0.00    +0.000 A 
ATOM     28  C   UNL     1      -4.786  11.226  16.764  0.00  0.00    +0.000 A 
ATOM     29  C   UNL     1      -4.016  11.653  17.856  0.00  0.00    +0.000 A 
ATOM     30 CL   UNL     1      -4.881  12.375  19.173  0.00  0.00    +0.000 Cl
ENDBRANCH  23  24
ENDBRANCH  10  23
TORSDOF 6
ENDMDL
MODEL 8
REMARK VINA RESULT:      -7.5      3.762      7.593
REMARK  Name = 
REMARK  9 active torsions:
REMARK  status: ('A' for Active; 'I' for Inactive)
REMARK    1  A    between atoms: C_1  and  C_2
REMARK    2  A    between atoms: C_2  and  C_3
REMARK    3  A    between atoms: C_2  and  C_4
REMARK    4  A    between atoms: C_4  and  C_5
REMARK    5  A    between atoms: C_8  and  C_9
REMARK    6  A    between atoms: C_9  and  C_10
REMARK    7  A    between atoms: C_9  and  C_11
REMARK    8  A    between atoms: N_20  and  C_21
REMARK    9  A    between atoms: C_21  and  C_22
REMARK                            x       y       z     vdW  Elec       q    Type
REMARK                         _______ _______ _______ _____ _____    ______ ____
ROOT
ATOM      1  C   UNL     1       0.736  11.226  19.237  0.00  0.00    +0.000 A 
ATOM      2  N   UNL     1       1.947  11.658  18.931  0.00  0.00    +0.000 NA
ATOM      3  C   UNL     1       1.849  13.003  18.769  0.00  0.00    +0.000 A 
ATOM      4  C   UNL     1       2.879  13.933  18.580  0.00  0.00    +0.000 A 
ATOM      5  C   UNL     1       2.546  15.286  18.562  0.00  0.00    +0.000 A 
ATOM      6 CL   UNL     1       3.793  16.455  18.343  0.00  0.00    +0.000 Cl
ATOM      7  C   UNL     1       1.228  15.706  18.735  0.00  0.00    +0.000 A 
ATOM      8  C   UNL     1       0.185  14.780  18.892  0.00  0.00    +0.000 A 
ATOM      9  C   UNL     1       0.528  13.419  18.886  0.00  0.00    +0.000 A 
ATOM     10  N   UNL     1      -0.193  12.235  19.019  0.00  0.00    +0.000 N 
ENDROOT
BRANCH   1  11
ATOM     11  C   UNL     1       0.481   9.885  19.892  0.00  0.00    +0.000 C 
ATOM     12  C   UNL     1       0.861   9.988  21.383  0.00  0.00    +0.000 C 
BRANCH  11  16
ATOM     13  C   UNL     1       3.220   6.926  18.295  0.00  0.00    +0.000 A 
ATOM     14  C   UNL     1       2.724   6.782  19.597  0.00  0.00    +0.000 A 
ATOM     15  C   UNL     1       1.782   7.690  20.105  0.00  0.00    +0.000 A 
ATOM     16  C   UNL     1       1.312   8.743  19.307  0.00  0.00    +0.000 A 
ATOM     17  C   UNL     1       1.758   8.820  17.976  0.00  0.00    +0.000 A 
ATOM     18  C   UNL     1       2.712   7.944  17.485  0.00  0.00    +0.000 A 
BRANCH  13  19
ATOM     19  C   UNL     1       4.257   6.002  17.711  0.00  0.00    +0.000 C 
BRANCH  19  21
ATOM     20  C   UNL     1       6.598   6.964  17.287  0.00  0.00    +0.000 C 
ATOM     21  C   UNL     1       5.204   6.688  16.711  0.00  0.00    +0.000 C 
ATOM     22  C   UNL     1       5.342   5.815  15.462  0.00  0.00    +0.000 C 
ENDBRANCH  19  21
ENDBRANCH  13  19
ENDBRANCH  11  16
ENDBRANCH   1  11
BRANCH  10  23
ATOM     23  C   UNL     1      -1.648  12.179  19.191  0.00  0.00    +0.000 C 
BRANCH  23  24
ATOM     24  C   UNL     1      -2.509  11.668  18.050  0.00  0.00    +0.000 A 
ATOM     25  C   UNL     1      -2.006  11.159  16.841  0.00  0.00    +0.000 A 
ATOM     26  C   UNL     1      -2.873  10.670  15.849  0.00  0.00    +0.000 A 
ATOM     27  C   UNL     1      -4.252  10.681  16.034  0.00  0.00    +0.000 A 
ATOM     28  C   UNL     1      -4.777  11.199  17.209  0.00  0.00    +0.000 A 
ATOM     29  C   UNL     1      -3.915  11.700  18.197  0.00  0.00    +0.000 A 
ATOM     30 CL   UNL     1      -4.667  12.372  19.606  0.00  0.00    +0.000 Cl
ENDBRANCH  23  24
ENDBRANCH  10  23
TORSDOF 6
ENDMDL
MODEL 9
REMARK VINA RESULT:      -7.5      3.545      7.178
REMARK  Name = 
REMARK  9 active torsions:
REMARK  status: ('A' for Active; 'I' for Inactive)
REMARK    1  A    between atoms: C_1  and  C_2
REMARK    2  A    between atoms: C_2  and  C_3
REMARK    3  A    between atoms: C_2  and  C_4
REMARK    4  A    between atoms: C_4  and  C_5
REMARK    5  A    between atoms: C_8  and  C_9
REMARK    6  A    between atoms: C_9  and  C_10
REMARK    7  A    between atoms: C_9  and  C_11
REMARK    8  A    between atoms: N_20  and  C_21
REMARK    9  A    between atoms: C_21  and  C_22
REMARK                            x       y       z     vdW  Elec       q    Type
REMARK                         _______ _______ _______ _____ _____    ______ ____
ROOT
ATOM      1  C   UNL     1       0.792  10.563  19.467  0.00  0.00    +0.000 A 
ATOM      2  N   UNL     1       1.875  11.304  19.306  0.00  0.00    +0.000 NA
ATOM      3  C   UNL     1       1.449  12.584  19.151  0.00  0.00    +0.000 A 
ATOM      4  C   UNL     1       2.216  13.754  19.093  0.00  0.00    +0.000 A 
ATOM      5  C   UNL     1       1.547  14.976  19.054  0.00  0.00    +0.000 A 
ATOM      6 CL   UNL     1       2.463  16.433  18.993  0.00  0.00    +0.000 Cl
ATOM      7  C   UNL     1       0.154  15.036  19.080  0.00  0.00    +0.000 A 
ATOM      8  C   UNL     1      -0.624  13.868  19.106  0.00  0.00    +0.000 A 
ATOM      9  C   UNL     1       0.060  12.642  19.122  0.00  0.00    +0.000 A 
ATOM     10  N   UNL     1      -0.338  11.307  19.156  0.00  0.00    +0.000 N 
ENDROOT
BRANCH   1  11
ATOM     11  C   UNL     1       0.825   9.175  20.071  0.00  0.00    +0.000 C 
ATOM     12  C   UNL     1       1.225   9.298  21.555  0.00  0.00    +0.000 C 
BRANCH  11  16
ATOM     13  C   UNL     1       3.350   6.259  18.089  0.00  0.00    +0.000 A 
ATOM     14  C   UNL     1       3.082   7.483  17.465  0.00  0.00    +0.000 A 
ATOM     15  C   UNL     1       2.326   8.467  18.121  0.00  0.00    +0.000 A 
ATOM     16  C   UNL     1       1.846   8.241  19.419  0.00  0.00    +0.000 A 
ATOM     17  C   UNL     1       2.198   7.042  20.061  0.00  0.00    +0.000 A 
ATOM     18  C   UNL     1       2.916   6.057  19.401  0.00  0.00    +0.000 A 
BRANCH  13  19
ATOM     19  C   UNL     1       4.126   5.154  17.419  0.00  0.00    +0.000 C 
BRANCH  19  21
ATOM     20  C   UNL     1       6.674   4.877  17.546  0.00  0.00    +0.000 C 
ATOM     21  C   UNL     1       5.497   5.600  16.881  0.00  0.00    +0.000 C 
ATOM     22  C   UNL     1       5.550   5.361  15.370  0.00  0.00    +0.000 C 
ENDBRANCH  19  21
ENDBRANCH  13  19
ENDBRANCH  11  16
ENDBRANCH   1  11
BRANCH  10  23
ATOM     23  C   UNL     1      -1.739  10.873  19.161  0.00  0.00    +0.000 C 
BRANCH  23  24
ATOM     24  C   UNL     1      -2.480  10.752  17.841  0.00  0.00    +0.000 A 
ATOM     25  C   UNL     1      -1.984  10.086  16.709  0.00  0.00    +0.000 A 
ATOM     26  C   UNL     1      -2.752   9.987  15.537  0.00  0.00    +0.000 A 
ATOM     27  C   UNL     1      -4.022  10.553  15.462  0.00  0.00    +0.000 A 
ATOM     28  C   UNL     1      -4.527  11.236  16.559  0.00  0.00    +0.000 A 
ATOM     29  C   UNL     1      -3.758  11.348  17.727  0.00  0.00    +0.000 A 
ATOM     30 CL   UNL     1      -4.453  12.264  19.023  0.00  0.00    +0.000 Cl
ENDBRANCH  23  24
ENDBRANCH  10  23
TORSDOF 6
ENDMDL
