MODEL 1
REMARK VINA RESULT:      -7.7      0.000      0.000
REMARK  Name = 
REMARK  4 active torsions:
REMARK  status: ('A' for Active; 'I' for Inactive)
REMARK    1  A    between atoms: C_2  and  C_3
REMARK    2  A    between atoms: C_2  and  C_10
REMARK    3  A    between atoms: C_6  and  O_7
REMARK    4  A    between atoms: C_16  and  O_17
REMARK                            x       y       z     vdW  Elec       q    Type
REMARK                         _______ _______ _______ _____ _____    ______ ____
ROOT
ATOM      1  C   UNL     1       4.061   3.471  17.789  0.00  0.00    +0.000 A 
ATOM      2  C   UNL     1       3.627   2.168  17.492  0.00  0.00    +0.000 A 
ATOM      3  N   UNL     1       2.869   1.764  18.544  0.00  0.00    +0.000 N 
ATOM      4  C   UNL     1       2.309   2.888  19.097  0.00  0.00    +0.000 A 
ATOM      5  C   UNL     1       1.092   3.071  19.753  0.00  0.00    +0.000 A 
ATOM      6  C   UNL     1       0.901   4.291  20.394  0.00  0.00    +0.000 A 
ATOM      7  C   UNL     1       1.942   5.210  20.475  0.00  0.00    +0.000 A 
ATOM      8  C   UNL     1       3.130   5.027  19.749  0.00  0.00    +0.000 A 
ATOM      9  C   UNL     1       3.266   3.893  18.916  0.00  0.00    +0.000 A 
ATOM     10  H   UNL     1       3.036   0.913  19.061  0.00  0.00    +0.000 HD
ENDROOT
BRANCH   1  12
ATOM     11  O   UNL     1       5.039   3.884  15.678  0.00  0.00    +0.000 OA
ATOM     12  C   UNL     1       5.035   4.086  16.882  0.00  0.00    +0.000 C 
BRANCH  12  13
ATOM     13  C   UNL     1       6.007   5.065  17.403  0.00  0.00    +0.000 A 
ATOM     14  C   UNL     1       6.039   6.335  16.814  0.00  0.00    +0.000 A 
ATOM     15  C   UNL     1       6.945   7.289  17.277  0.00  0.00    +0.000 A 
ATOM     16  C   UNL     1       7.794   6.949  18.319  0.00  0.00    +0.000 A 
ATOM     17  C   UNL     1       7.806   5.678  18.878  0.00  0.00    +0.000 A 
ATOM     18  C   UNL     1       6.922   4.708  18.399  0.00  0.00    +0.000 A 
BRANCH  16  19
ATOM     19  O   UNL     1       8.660   7.869  18.852  0.00  0.00    +0.000 OA
ATOM     20  H   UNL     1       8.593   8.694  18.340  0.00  0.00    +0.000 HD
ENDBRANCH  16  19
ENDBRANCH  12  13
ENDBRANCH   1  12
BRANCH   7  21
ATOM     21  O   UNL     1       1.824   6.317  21.255  0.00  0.00    +0.000 OA
ATOM     22  H   UNL     1       2.133   6.096  22.145  0.00  0.00    +0.000 HD
ENDBRANCH   7  21
TORSDOF 4
ENDMDL
MODEL 2
REMARK VINA RESULT:      -7.6      0.068      1.118
REMARK  Name = 
REMARK  4 active torsions:
REMARK  status: ('A' for Active; 'I' for Inactive)
REMARK    1  A    between atoms: C_2  and  C_3
REMARK    2  A    between atoms: C_2  and  C_10
REMARK    3  A    between atoms: C_6  and  O_7
REMARK    4  A    between atoms: C_16  and  O_17
REMARK                            x       y       z     vdW  Elec       q    Type
REMARK                         _______ _______ _______ _____ _____    ______ ____
ROOT
ATOM      1  C   UNL     1       4.067   3.436  17.787  0.00  0.00    +0.000 A 
ATOM      2  C   UNL     1       3.609   2.140  17.496  0.00  0.00    +0.000 A 
ATOM      3  N   UNL     1       2.843   1.756  18.550  0.00  0.00    +0.000 N 
ATOM      4  C   UNL     1       2.305   2.893  19.098  0.00  0.00    +0.000 A 
ATOM      5  C   UNL     1       1.092   3.103  19.754  0.00  0.00    +0.000 A 
ATOM      6  C   UNL     1       0.924   4.329  20.388  0.00  0.00    +0.000 A 
ATOM      7  C   UNL     1       1.982   5.229  20.465  0.00  0.00    +0.000 A 
ATOM      8  C   UNL     1       3.167   5.019  19.739  0.00  0.00    +0.000 A 
ATOM      9  C   UNL     1       3.281   3.878  18.912  0.00  0.00    +0.000 A 
ATOM     10  H   UNL     1       2.994   0.905  19.072  0.00  0.00    +0.000 HD
ENDROOT
BRANCH   1  12
ATOM     11  O   UNL     1       5.098   3.763  15.686  0.00  0.00    +0.000 OA
ATOM     12  C   UNL     1       5.053   4.028  16.877  0.00  0.00    +0.000 C 
BRANCH  12  13
ATOM     13  C   UNL     1       5.985   5.057  17.373  0.00  0.00    +0.000 A 
ATOM     14  C   UNL     1       6.857   4.706  18.411  0.00  0.00    +0.000 A 
ATOM     15  C   UNL     1       7.753   5.653  18.910  0.00  0.00    +0.000 A 
ATOM     16  C   UNL     1       7.754   6.923  18.356  0.00  0.00    +0.000 A 
ATOM     17  C   UNL     1       6.861   7.298  17.362  0.00  0.00    +0.000 A 
ATOM     18  C   UNL     1       5.941   6.364  16.878  0.00  0.00    +0.000 A 
BRANCH  16  19
ATOM     19  O   UNL     1       8.657   7.871  18.768  0.00  0.00    +0.000 OA
ATOM     20  H   UNL     1       8.498   8.691  18.268  0.00  0.00    +0.000 HD
ENDBRANCH  16  19
ENDBRANCH  12  13
ENDBRANCH   1  12
BRANCH   7  21
ATOM     21  O   UNL     1       1.886   6.342  21.239  0.00  0.00    +0.000 OA
ATOM     22  H   UNL     1       2.450   6.221  22.016  0.00  0.00    +0.000 HD
ENDBRANCH   7  21
TORSDOF 4
ENDMDL
MODEL 3
REMARK VINA RESULT:      -7.5      2.183      5.740
REMARK  Name = 
REMARK  4 active torsions:
REMARK  status: ('A' for Active; 'I' for Inactive)
REMARK    1  A    between atoms: C_2  and  C_3
REMARK    2  A    between atoms: C_2  and  C_10
REMARK    3  A    between atoms: C_6  and  O_7
REMARK    4  A    between atoms: C_16  and  O_17
REMARK                            x       y       z     vdW  Elec       q    Type
REMARK                         _______ _______ _______ _____ _____    ______ ____
ROOT
ATOM      1  C   UNL     1       4.362   5.172  17.555  0.00  0.00    +0.000 A 
ATOM      2  C   UNL     1       4.252   6.025  16.445  0.00  0.00    +0.000 A 
ATOM      3  N   UNL     1       5.078   7.076  16.683  0.00  0.00    +0.000 N 
ATOM      4  C   UNL     1       6.099   6.620  17.479  0.00  0.00    +0.000 A 
ATOM      5  C   UNL     1       7.433   7.015  17.566  0.00  0.00    +0.000 A 
ATOM      6  C   UNL     1       8.172   6.504  18.627  0.00  0.00    +0.000 A 
ATOM      7  C   UNL     1       7.549   5.749  19.615  0.00  0.00    +0.000 A 
ATOM      8  C   UNL     1       6.222   5.312  19.465  0.00  0.00    +0.000 A 
ATOM      9  C   UNL     1       5.512   5.641  18.288  0.00  0.00    +0.000 A 
ATOM     10  H   UNL     1       4.780   8.041  16.659  0.00  0.00    +0.000 HD
ENDROOT
BRANCH   1  12
ATOM     11  O   UNL     1       3.186   3.326  16.664  0.00  0.00    +0.000 OA
ATOM     12  C   UNL     1       3.445   4.030  17.628  0.00  0.00    +0.000 C 
BRANCH  12  13
ATOM     13  C   UNL     1       2.867   3.634  18.925  0.00  0.00    +0.000 A 
ATOM     14  C   UNL     1       1.598   4.127  19.255  0.00  0.00    +0.000 A 
ATOM     15  C   UNL     1       1.017   3.777  20.475  0.00  0.00    +0.000 A 
ATOM     16  C   UNL     1       1.719   2.942  21.330  0.00  0.00    +0.000 A 
ATOM     17  C   UNL     1       2.997   2.487  21.036  0.00  0.00    +0.000 A 
ATOM     18  C   UNL     1       3.597   2.857  19.830  0.00  0.00    +0.000 A 
BRANCH  16  19
ATOM     19  O   UNL     1       1.166   2.518  22.512  0.00  0.00    +0.000 OA
ATOM     20  H   UNL     1       0.932   1.578  22.427  0.00  0.00    +0.000 HD
ENDBRANCH  16  19
ENDBRANCH  12  13
ENDBRANCH   1  12
BRANCH   7  21
ATOM     21  O   UNL     1       8.220   5.405  20.746  0.00  0.00    +0.000 OA
ATOM     22  H   UNL     1       7.643   4.843  21.283  0.00  0.00    +0.000 HD
ENDBRANCH   7  21
TORSDOF 4
ENDMDL
MODEL 4
REMARK VINA RESULT:      -7.5      2.461      3.547
REMARK  Name = 
REMARK  4 active torsions:
REMARK  status: ('A' for Active; 'I' for Inactive)
REMARK    1  A    between atoms: C_2  and  C_3
REMARK    2  A    between atoms: C_2  and  C_10
REMARK    3  A    between atoms: C_6  and  O_7
REMARK    4  A    between atoms: C_16  and  O_17
REMARK                            x       y       z     vdW  Elec       q    Type
REMARK                         _______ _______ _______ _____ _____    ______ ____
ROOT
ATOM      1  C   UNL     1       2.575   6.343  19.005  0.00  0.00    +0.000 A 
ATOM      2  C   UNL     1       2.339   7.035  20.204  0.00  0.00    +0.000 A 
ATOM      3  N   UNL     1       1.459   6.285  20.916  0.00  0.00    +0.000 N 
ATOM      4  C   UNL     1       1.655   4.976  20.555  0.00  0.00    +0.000 A 
ATOM      5  C   UNL     1       1.501   3.796  21.283  0.00  0.00    +0.000 A 
ATOM      6  C   UNL     1       1.572   2.604  20.572  0.00  0.00    +0.000 A 
ATOM      7  C   UNL     1       1.655   2.621  19.183  0.00  0.00    +0.000 A 
ATOM      8  C   UNL     1       1.875   3.819  18.485  0.00  0.00    +0.000 A 
ATOM      9  C   UNL     1       2.022   5.026  19.205  0.00  0.00    +0.000 A 
ATOM     10  H   UNL     1       0.583   6.638  21.276  0.00  0.00    +0.000 HD
ENDROOT
BRANCH   1  12
ATOM     11  O   UNL     1       3.138   8.155  17.597  0.00  0.00    +0.000 OA
ATOM     12  C   UNL     1       3.372   7.018  17.976  0.00  0.00    +0.000 C 
BRANCH  12  13
ATOM     13  C   UNL     1       4.568   6.357  17.423  0.00  0.00    +0.000 A 
ATOM     14  C   UNL     1       5.428   5.704  18.315  0.00  0.00    +0.000 A 
ATOM     15  C   UNL     1       6.572   5.067  17.831  0.00  0.00    +0.000 A 
ATOM     16  C   UNL     1       6.824   5.099  16.468  0.00  0.00    +0.000 A 
ATOM     17  C   UNL     1       6.006   5.785  15.581  0.00  0.00    +0.000 A 
ATOM     18  C   UNL     1       4.875   6.449  16.062  0.00  0.00    +0.000 A 
BRANCH  16  19
ATOM     19  O   UNL     1       7.900   4.436  15.935  0.00  0.00    +0.000 OA
ATOM     20  H   UNL     1       7.888   3.516  16.253  0.00  0.00    +0.000 HD
ENDBRANCH  16  19
ENDBRANCH  12  13
ENDBRANCH   1  12
BRANCH   7  21
ATOM     21  O   UNL     1       1.536   1.469  18.472  0.00  0.00    +0.000 OA
ATOM     22  H   UNL     1       2.020   0.772  18.938  0.00  0.00    +0.000 HD
ENDBRANCH   7  21
TORSDOF 4
ENDMDL
MODEL 5
REMARK VINA RESULT:      -7.5      2.169      5.808
REMARK  Name = 
REMARK  4 active torsions:
REMARK  status: ('A' for Active; 'I' for Inactive)
REMARK    1  A    between atoms: C_2  and  C_3
REMARK    2  A    between atoms: C_2  and  C_10
REMARK    3  A    between atoms: C_6  and  O_7
REMARK    4  A    between atoms: C_16  and  O_17
REMARK                            x       y       z     vdW  Elec       q    Type
REMARK                         _______ _______ _______ _____ _____    ______ ____
ROOT
ATOM      1  C   UNL     1       4.424   5.165  17.504  0.00  0.00    +0.000 A 
ATOM      2  C   UNL     1       4.341   6.013  16.387  0.00  0.00    +0.000 A 
ATOM      3  N   UNL     1       5.161   7.066  16.641  0.00  0.00    +0.000 N 
ATOM      4  C   UNL     1       6.161   6.613  17.464  0.00  0.00    +0.000 A 
ATOM      5  C   UNL     1       7.493   7.008  17.582  0.00  0.00    +0.000 A 
ATOM      6  C   UNL     1       8.206   6.503  18.664  0.00  0.00    +0.000 A 
ATOM      7  C   UNL     1       7.558   5.751  19.639  0.00  0.00    +0.000 A 
ATOM      8  C   UNL     1       6.236   5.314  19.459  0.00  0.00    +0.000 A 
ATOM      9  C   UNL     1       5.555   5.638  18.263  0.00  0.00    +0.000 A 
ATOM     10  H   UNL     1       4.863   8.030  16.606  0.00  0.00    +0.000 HD
ENDROOT
BRANCH   1  12
ATOM     11  O   UNL     1       3.271   3.315  16.592  0.00  0.00    +0.000 OA
ATOM     12  C   UNL     1       3.505   4.023  17.559  0.00  0.00    +0.000 C 
BRANCH  12  13
ATOM     13  C   UNL     1       2.894   3.634  18.843  0.00  0.00    +0.000 A 
ATOM     14  C   UNL     1       3.647   2.835  19.712  0.00  0.00    +0.000 A 
ATOM     15  C   UNL     1       3.103   2.444  20.936  0.00  0.00    +0.000 A 
ATOM     16  C   UNL     1       1.822   2.863  21.259  0.00  0.00    +0.000 A 
ATOM     17  C   UNL     1       1.047   3.612  20.384  0.00  0.00    +0.000 A 
ATOM     18  C   UNL     1       1.574   3.984  19.145  0.00  0.00    +0.000 A 
BRANCH  16  19
ATOM     19  O   UNL     1       1.266   2.558  22.475  0.00  0.00    +0.000 OA
ATOM     20  H   UNL     1       0.440   2.064  22.325  0.00  0.00    +0.000 HD
ENDBRANCH  16  19
ENDBRANCH  12  13
ENDBRANCH   1  12
BRANCH   7  21
ATOM     21  O   UNL     1       8.201   5.414  20.789  0.00  0.00    +0.000 OA
ATOM     22  H   UNL     1       8.452   4.480  20.733  0.00  0.00    +0.000 HD
ENDBRANCH   7  21
TORSDOF 4
ENDMDL
MODEL 6
REMARK VINA RESULT:      -7.5      3.260      6.716
REMARK  Name = 
REMARK  4 active torsions:
REMARK  status: ('A' for Active; 'I' for Inactive)
REMARK    1  A    between atoms: C_2  and  C_3
REMARK    2  A    between atoms: C_2  and  C_10
REMARK    3  A    between atoms: C_6  and  O_7
REMARK    4  A    between atoms: C_16  and  O_17
REMARK                            x       y       z     vdW  Elec       q    Type
REMARK                         _______ _______ _______ _____ _____    ______ ____
ROOT
ATOM      1  C   UNL     1       5.570   5.283  16.061  0.00  0.00    +0.000 A 
ATOM      2  C   UNL     1       6.772   5.916  16.417  0.00  0.00    +0.000 A 
ATOM      3  N   UNL     1       7.739   5.378  15.630  0.00  0.00    +0.000 N 
ATOM      4  C   UNL     1       7.140   4.985  14.460  0.00  0.00    +0.000 A 
ATOM      5  C   UNL     1       7.637   4.921  13.158  0.00  0.00    +0.000 A 
ATOM      6  C   UNL     1       6.846   4.274  12.215  0.00  0.00    +0.000 A 
ATOM      7  C   UNL     1       5.687   3.613  12.607  0.00  0.00    +0.000 A 
ATOM      8  C   UNL     1       5.179   3.751  13.909  0.00  0.00    +0.000 A 
ATOM      9  C   UNL     1       5.853   4.582  14.833  0.00  0.00    +0.000 A 
ATOM     10  H   UNL     1       8.587   4.961  15.989  0.00  0.00    +0.000 HD
ENDROOT
BRANCH   1  12
ATOM     11  O   UNL     1       4.004   6.702  17.118  0.00  0.00    +0.000 OA
ATOM     12  C   UNL     1       4.385   5.567  16.877  0.00  0.00    +0.000 C 
BRANCH  12  13
ATOM     13  C   UNL     1       3.546   4.457  17.365  0.00  0.00    +0.000 A 
ATOM     14  C   UNL     1       2.237   4.751  17.765  0.00  0.00    +0.000 A 
ATOM     15  C   UNL     1       1.412   3.729  18.235  0.00  0.00    +0.000 A 
ATOM     16  C   UNL     1       1.917   2.439  18.290  0.00  0.00    +0.000 A 
ATOM     17  C   UNL     1       3.228   2.144  17.944  0.00  0.00    +0.000 A 
ATOM     18  C   UNL     1       4.069   3.167  17.500  0.00  0.00    +0.000 A 
BRANCH  16  19
ATOM     19  O   UNL     1       1.128   1.389  18.685  0.00  0.00    +0.000 OA
ATOM     20  H   UNL     1       1.686   0.733  19.137  0.00  0.00    +0.000 HD
ENDBRANCH  16  19
ENDBRANCH  12  13
ENDBRANCH   1  12
BRANCH   7  21
ATOM     21  O   UNL     1       5.012   2.825  11.729  0.00  0.00    +0.000 OA
ATOM     22  H   UNL     1       5.493   2.826  10.889  0.00  0.00    +0.000 HD
ENDBRANCH   7  21
TORSDOF 4
ENDMDL
MODEL 7
REMARK VINA RESULT:      -7.5      3.265      4.252
REMARK  Name = 
REMARK  4 active torsions:
REMARK  status: ('A' for Active; 'I' for Inactive)
REMARK    1  A    between atoms: C_2  and  C_3
REMARK    2  A    between atoms: C_2  and  C_10
REMARK    3  A    between atoms: C_6  and  O_7
REMARK    4  A    between atoms: C_16  and  O_17
REMARK                            x       y       z     vdW  Elec       q    Type
REMARK                         _______ _______ _______ _____ _____    ______ ____
ROOT
ATOM      1  C   UNL     1       2.405   6.080  19.152  0.00  0.00    +0.000 A 
ATOM      2  C   UNL     1       1.925   5.733  20.426  0.00  0.00    +0.000 A 
ATOM      3  N   UNL     1       1.821   6.891  21.127  0.00  0.00    +0.000 N 
ATOM      4  C   UNL     1       1.581   7.895  20.223  0.00  0.00    +0.000 A 
ATOM      5  C   UNL     1       0.861   9.082  20.348  0.00  0.00    +0.000 A 
ATOM      6  C   UNL     1       0.979  10.002  19.313  0.00  0.00    +0.000 A 
ATOM      7  C   UNL     1       1.885   9.782  18.280  0.00  0.00    +0.000 A 
ATOM      8  C   UNL     1       2.545   8.549  18.145  0.00  0.00    +0.000 A 
ATOM      9  C   UNL     1       2.279   7.515  19.071  0.00  0.00    +0.000 A 
ATOM     10  H   UNL     1       2.257   7.044  22.025  0.00  0.00    +0.000 HD
ENDROOT
BRANCH   1  12
ATOM     11  O   UNL     1       1.929   4.275  17.702  0.00  0.00    +0.000 OA
ATOM     12  C   UNL     1       2.762   4.988  18.240  0.00  0.00    +0.000 C 
BRANCH  12  13
ATOM     13  C   UNL     1       4.172   4.777  17.866  0.00  0.00    +0.000 A 
ATOM     14  C   UNL     1       5.159   5.196  18.766  0.00  0.00    +0.000 A 
ATOM     15  C   UNL     1       6.506   5.015  18.449  0.00  0.00    +0.000 A 
ATOM     16  C   UNL     1       6.830   4.418  17.240  0.00  0.00    +0.000 A 
ATOM     17  C   UNL     1       5.862   4.044  16.318  0.00  0.00    +0.000 A 
ATOM     18  C   UNL     1       4.513   4.248  16.617  0.00  0.00    +0.000 A 
BRANCH  16  19
ATOM     19  O   UNL     1       8.136   4.161  16.908  0.00  0.00    +0.000 OA
ATOM     20  H   UNL     1       8.710   4.512  17.611  0.00  0.00    +0.000 HD
ENDBRANCH  16  19
ENDBRANCH  12  13
ENDBRANCH   1  12
BRANCH   7  21
ATOM     21  O   UNL     1       2.141  10.757  17.368  0.00  0.00    +0.000 OA
ATOM     22  H   UNL     1       1.552  11.503  17.549  0.00  0.00    +0.000 HD
ENDBRANCH   7  21
TORSDOF 4
ENDMDL
MODEL 8
REMARK VINA RESULT:      -7.4      2.499      3.412
REMARK  Name = 
REMARK  4 active torsions:
REMARK  status: ('A' for Active; 'I' for Inactive)
REMARK    1  A    between atoms: C_2  and  C_3
REMARK    2  A    between atoms: C_2  and  C_10
REMARK    3  A    between atoms: C_6  and  O_7
REMARK    4  A    between atoms: C_16  and  O_17
REMARK                            x       y       z     vdW  Elec       q    Type
REMARK                         _______ _______ _______ _____ _____    ______ ____
ROOT
ATOM      1  C   UNL     1       2.561   6.324  18.996  0.00  0.00    +0.000 A 
ATOM      2  C   UNL     1       2.361   7.028  20.195  0.00  0.00    +0.000 A 
ATOM      3  N   UNL     1       1.495   6.289  20.936  0.00  0.00    +0.000 N 
ATOM      4  C   UNL     1       1.674   4.976  20.581  0.00  0.00    +0.000 A 
ATOM      5  C   UNL     1       1.532   3.804  21.324  0.00  0.00    +0.000 A 
ATOM      6  C   UNL     1       1.577   2.605  20.621  0.00  0.00    +0.000 A 
ATOM      7  C   UNL     1       1.624   2.609  19.230  0.00  0.00    +0.000 A 
ATOM      8  C   UNL     1       1.833   3.800  18.516  0.00  0.00    +0.000 A 
ATOM      9  C   UNL     1       2.006   5.012  19.222  0.00  0.00    +0.000 A 
ATOM     10  H   UNL     1       0.631   6.651  21.315  0.00  0.00    +0.000 HD
ENDROOT
BRANCH   1  12
ATOM     11  O   UNL     1       3.092   8.116  17.550  0.00  0.00    +0.000 OA
ATOM     12  C   UNL     1       3.336   6.985  17.941  0.00  0.00    +0.000 C 
BRANCH  12  13
ATOM     13  C   UNL     1       4.522   6.318  17.373  0.00  0.00    +0.000 A 
ATOM     14  C   UNL     1       4.791   6.508  16.012  0.00  0.00    +0.000 A 
ATOM     15  C   UNL     1       5.903   5.891  15.435  0.00  0.00    +0.000 A 
ATOM     16  C   UNL     1       6.716   5.104  16.235  0.00  0.00    +0.000 A 
ATOM     17  C   UNL     1       6.431   4.868  17.573  0.00  0.00    +0.000 A 
ATOM     18  C   UNL     1       5.304   5.458  18.150  0.00  0.00    +0.000 A 
BRANCH  16  19
ATOM     19  O   UNL     1       7.854   4.527  15.732  0.00  0.00    +0.000 OA
ATOM     20  H   UNL     1       8.317   5.182  15.181  0.00  0.00    +0.000 HD
ENDBRANCH  16  19
ENDBRANCH  12  13
ENDBRANCH   1  12
BRANCH   7  21
ATOM     21  O   UNL     1       1.479   1.452  18.532  0.00  0.00    +0.000 OA
ATOM     22  H   UNL     1       1.790   0.722  19.087  0.00  0.00    +0.000 HD
ENDBRANCH   7  21
TORSDOF 4
ENDMDL
MODEL 9
REMARK VINA RESULT:      -7.4      3.238      6.745
REMARK  Name = 
REMARK  4 active torsions:
REMARK  status: ('A' for Active; 'I' for Inactive)
REMARK    1  A    between atoms: C_2  and  C_3
REMARK    2  A    between atoms: C_2  and  C_10
REMARK    3  A    between atoms: C_6  and  O_7
REMARK    4  A    between atoms: C_16  and  O_17
REMARK                            x       y       z     vdW  Elec       q    Type
REMARK                         _______ _______ _______ _____ _____    ______ ____
ROOT
ATOM      1  C   UNL     1       5.544   5.294  16.107  0.00  0.00    +0.000 A 
ATOM      2  C   UNL     1       6.751   5.908  16.480  0.00  0.00    +0.000 A 
ATOM      3  N   UNL     1       7.718   5.363  15.697  0.00  0.00    +0.000 N 
ATOM      4  C   UNL     1       7.125   4.988  14.519  0.00  0.00    +0.000 A 
ATOM      5  C   UNL     1       7.633   4.928  13.221  0.00  0.00    +0.000 A 
ATOM      6  C   UNL     1       6.843   4.299  12.265  0.00  0.00    +0.000 A 
ATOM      7  C   UNL     1       5.671   3.650  12.642  0.00  0.00    +0.000 A 
ATOM      8  C   UNL     1       5.152   3.785  13.940  0.00  0.00    +0.000 A 
ATOM      9  C   UNL     1       5.829   4.599  14.877  0.00  0.00    +0.000 A 
ATOM     10  H   UNL     1       8.556   4.932  16.061  0.00  0.00    +0.000 HD
ENDROOT
BRANCH   1  12
ATOM     11  O   UNL     1       3.973   6.726  17.140  0.00  0.00    +0.000 OA
ATOM     12  C   UNL     1       4.355   5.588  16.915  0.00  0.00    +0.000 C 
BRANCH  12  13
ATOM     13  C   UNL     1       3.514   4.484  17.412  0.00  0.00    +0.000 A 
ATOM     14  C   UNL     1       4.081   3.205  17.474  0.00  0.00    +0.000 A 
ATOM     15  C   UNL     1       3.317   2.133  17.937  0.00  0.00    +0.000 A 
ATOM     16  C   UNL     1       2.008   2.368  18.328  0.00  0.00    +0.000 A 
ATOM     17  C   UNL     1       1.420   3.621  18.223  0.00  0.00    +0.000 A 
ATOM     18  C   UNL     1       2.169   4.694  17.733  0.00  0.00    +0.000 A 
BRANCH  16  19
ATOM     19  O   UNL     1       1.236   1.362  18.848  0.00  0.00    +0.000 OA
ATOM     20  H   UNL     1       0.317   1.676  18.914  0.00  0.00    +0.000 HD
ENDBRANCH  16  19
ENDBRANCH  12  13
ENDBRANCH   1  12
BRANCH   7  21
ATOM     21  O   UNL     1       4.994   2.878  11.751  0.00  0.00    +0.000 OA
ATOM     22  H   UNL     1       5.441   2.940  10.894  0.00  0.00    +0.000 HD
ENDBRANCH   7  21
TORSDOF 4
ENDMDL
