MODEL 1
REMARK VINA RESULT:      -7.5      0.000      0.000
REMARK  Name = 
REMARK  4 active torsions:
REMARK  status: ('A' for Active; 'I' for Inactive)
REMARK    1  A    between atoms: C_1  and  S_2
REMARK    2  A    between atoms: S_2  and  N_5
REMARK    3  A    between atoms: N_5  and  C_6
REMARK    4  A    between atoms: C_9  and  N_10
REMARK                            x       y       z     vdW  Elec       q    Type
REMARK                         _______ _______ _______ _____ _____    ______ ____
ROOT
ATOM      1  C   UNL     1       4.977   5.170  16.241  0.00  0.00    +0.000 A 
ATOM      2  C   UNL     1       5.014   3.787  16.389  0.00  0.00    +0.000 A 
ATOM      3  C   UNL     1       4.285   3.186  17.412  0.00  0.00    +0.000 A 
ATOM      4  C   UNL     1       3.466   3.933  18.282  0.00  0.00    +0.000 A 
ATOM      5  C   UNL     1       3.397   5.358  18.064  0.00  0.00    +0.000 A 
ATOM      6  C   UNL     1       2.543   6.247  18.757  0.00  0.00    +0.000 A 
ATOM      7  C   UNL     1       2.542   7.620  18.522  0.00  0.00    +0.000 A 
ATOM      8  C   UNL     1       3.382   8.097  17.553  0.00  0.00    +0.000 A 
ATOM      9  N   UNL     1       4.191   7.308  16.820  0.00  0.00    +0.000 NA
ATOM     10  C   UNL     1       4.183   5.969  17.060  0.00  0.00    +0.000 A 
ENDROOT
BRANCH   4  11
ATOM     11  N   UNL     1       2.723   3.290  19.274  0.00  0.00    +0.000 N 
ATOM     12  C   UNL     1       1.356   2.805  19.041  0.00  0.00    +0.000 C 
ATOM     13  C   UNL     1       0.514   3.115  20.285  0.00  0.00    +0.000 C 
ATOM     14  C   UNL     1       1.163   2.630  21.586  0.00  0.00    +0.000 C 
ATOM     15  C   UNL     1       2.637   3.024  21.673  0.00  0.00    +0.000 C 
ATOM     16  C   UNL     1       3.383   2.615  20.398  0.00  0.00    +0.000 C 
ENDBRANCH   4  11
BRANCH   1  17
ATOM     17  N   UNL     1       5.717   5.800  15.179  0.00  0.00    +0.000 N 
ATOM     18  H   UNL     1       5.089   6.054  14.409  0.00  0.00    +0.000 HD
BRANCH  17  20
ATOM     19  C   UNL     1       6.314   3.635  13.605  0.00  0.00    +0.000 C 
ATOM     20  S   UNL     1       7.042   4.962  14.552  0.00  0.00    +0.000 S 
ATOM     21  O   UNL     1       7.799   4.384  15.642  0.00  0.00    +0.000 OA
ATOM     22  O   UNL     1       7.670   5.861  13.605  0.00  0.00    +0.000 OA
ENDBRANCH  17  20
ENDBRANCH   1  17
TORSDOF 3
ENDMDL
MODEL 2
REMARK VINA RESULT:      -7.4      2.330      4.708
REMARK  Name = 
REMARK  4 active torsions:
REMARK  status: ('A' for Active; 'I' for Inactive)
REMARK    1  A    between atoms: C_1  and  S_2
REMARK    2  A    between atoms: S_2  and  N_5
REMARK    3  A    between atoms: N_5  and  C_6
REMARK    4  A    between atoms: C_9  and  N_10
REMARK                            x       y       z     vdW  Elec       q    Type
REMARK                         _______ _______ _______ _____ _____    ______ ____
ROOT
ATOM      1  C   UNL     1       4.453   5.795  17.593  0.00  0.00    +0.000 A 
ATOM      2  C   UNL     1       4.366   7.091  17.096  0.00  0.00    +0.000 A 
ATOM      3  C   UNL     1       3.428   7.970  17.630  0.00  0.00    +0.000 A 
ATOM      4  C   UNL     1       2.588   7.603  18.700  0.00  0.00    +0.000 A 
ATOM      5  C   UNL     1       2.745   6.273  19.237  0.00  0.00    +0.000 A 
ATOM      6  C   UNL     1       2.076   5.773  20.379  0.00  0.00    +0.000 A 
ATOM      7  C   UNL     1       2.247   4.468  20.835  0.00  0.00    +0.000 A 
ATOM      8  C   UNL     1       3.130   3.672  20.158  0.00  0.00    +0.000 A 
ATOM      9  N   UNL     1       3.837   4.090  19.090  0.00  0.00    +0.000 NA
ATOM     10  C   UNL     1       3.659   5.366  18.655  0.00  0.00    +0.000 A 
ENDROOT
BRANCH   4  11
ATOM     11  N   UNL     1       1.683   8.524  19.232  0.00  0.00    +0.000 N 
ATOM     12  C   UNL     1       1.442   8.645  20.676  0.00  0.00    +0.000 C 
ATOM     13  C   UNL     1      -0.062   8.841  20.902  0.00  0.00    +0.000 C 
ATOM     14  C   UNL     1      -0.657   9.965  20.047  0.00  0.00    +0.000 C 
ATOM     15  C   UNL     1      -0.217   9.869  18.587  0.00  0.00    +0.000 C 
ATOM     16  C   UNL     1       1.306   9.733  18.489  0.00  0.00    +0.000 C 
ENDBRANCH   4  11
BRANCH   1  17
ATOM     17  N   UNL     1       5.429   4.881  17.056  0.00  0.00    +0.000 N 
ATOM     18  H   UNL     1       5.296   3.944  17.452  0.00  0.00    +0.000 HD
BRANCH  17  20
ATOM     19  C   UNL     1       7.228   5.819  18.902  0.00  0.00    +0.000 C 
ATOM     20  S   UNL     1       7.056   5.311  17.199  0.00  0.00    +0.000 S 
ATOM     21  O   UNL     1       7.323   6.454  16.352  0.00  0.00    +0.000 OA
ATOM     22  O   UNL     1       7.807   4.081  17.047  0.00  0.00    +0.000 OA
ENDBRANCH  17  20
ENDBRANCH   1  17
TORSDOF 3
ENDMDL
MODEL 3
REMARK VINA RESULT:      -7.2      2.559      4.636
REMARK  Name = 
REMARK  4 active torsions:
REMARK  status: ('A' for Active; 'I' for Inactive)
REMARK    1  A    between atoms: C_1  and  S_2
REMARK    2  A    between atoms: S_2  and  N_5
REMARK    3  A    between atoms: N_5  and  C_6
REMARK    4  A    between atoms: C_9  and  N_10
REMARK                            x       y       z     vdW  Elec       q    Type
REMARK                         _______ _______ _______ _____ _____    ______ ____
ROOT
ATOM      1  C   UNL     1       3.834   5.915  17.587  0.00  0.00    +0.000 A 
ATOM      2  C   UNL     1       3.758   7.260  17.242  0.00  0.00    +0.000 A 
ATOM      3  C   UNL     1       2.947   8.115  17.984  0.00  0.00    +0.000 A 
ATOM      4  C   UNL     1       2.231   7.668  19.113  0.00  0.00    +0.000 A 
ATOM      5  C   UNL     1       2.379   6.282  19.484  0.00  0.00    +0.000 A 
ATOM      6  C   UNL     1       1.834   5.688  20.646  0.00  0.00    +0.000 A 
ATOM      7  C   UNL     1       1.987   4.335  20.937  0.00  0.00    +0.000 A 
ATOM      8  C   UNL     1       2.729   3.580  20.069  0.00  0.00    +0.000 A 
ATOM      9  N   UNL     1       3.317   4.084  18.966  0.00  0.00    +0.000 NA
ATOM     10  C   UNL     1       3.159   5.407  18.693  0.00  0.00    +0.000 A 
ENDROOT
BRANCH   4  11
ATOM     11  N   UNL     1       1.455   8.563  19.853  0.00  0.00    +0.000 N 
ATOM     12  C   UNL     1       1.399   8.527  21.320  0.00  0.00    +0.000 C 
ATOM     13  C   UNL     1      -0.053   8.766  21.755  0.00  0.00    +0.000 C 
ATOM     14  C   UNL     1      -0.676  10.009  21.111  0.00  0.00    +0.000 C 
ATOM     15  C   UNL     1      -0.421  10.064  19.606  0.00  0.00    +0.000 C 
ATOM     16  C   UNL     1       1.068   9.867  19.301  0.00  0.00    +0.000 C 
ENDBRANCH   4  11
BRANCH   1  17
ATOM     17  N   UNL     1       4.679   5.025  16.833  0.00  0.00    +0.000 N 
ATOM     18  H   UNL     1       4.415   4.050  17.006  0.00  0.00    +0.000 HD
BRANCH  17  20
ATOM     19  C   UNL     1       7.045   4.265  15.670  0.00  0.00    +0.000 C 
ATOM     20  S   UNL     1       6.349   5.185  17.033  0.00  0.00    +0.000 S 
ATOM     21  O   UNL     1       6.745   4.542  18.268  0.00  0.00    +0.000 OA
ATOM     22  O   UNL     1       6.647   6.583  16.794  0.00  0.00    +0.000 OA
ENDBRANCH  17  20
ENDBRANCH   1  17
TORSDOF 3
ENDMDL
MODEL 4
REMARK VINA RESULT:      -7.1      2.342      4.559
REMARK  Name = 
REMARK  4 active torsions:
REMARK  status: ('A' for Active; 'I' for Inactive)
REMARK    1  A    between atoms: C_1  and  S_2
REMARK    2  A    between atoms: S_2  and  N_5
REMARK    3  A    between atoms: N_5  and  C_6
REMARK    4  A    between atoms: C_9  and  N_10
REMARK                            x       y       z     vdW  Elec       q    Type
REMARK                         _______ _______ _______ _____ _____    ______ ____
ROOT
ATOM      1  C   UNL     1       4.558   5.716  17.646  0.00  0.00    +0.000 A 
ATOM      2  C   UNL     1       4.411   7.048  17.272  0.00  0.00    +0.000 A 
ATOM      3  C   UNL     1       3.456   7.839  17.905  0.00  0.00    +0.000 A 
ATOM      4  C   UNL     1       2.658   7.343  18.955  0.00  0.00    +0.000 A 
ATOM      5  C   UNL     1       2.876   5.977  19.365  0.00  0.00    +0.000 A 
ATOM      6  C   UNL     1       2.256   5.350  20.471  0.00  0.00    +0.000 A 
ATOM      7  C   UNL     1       2.486   4.017  20.801  0.00  0.00    +0.000 A 
ATOM      8  C   UNL     1       3.379   3.320  20.033  0.00  0.00    +0.000 A 
ATOM      9  N   UNL     1       4.042   3.860  18.993  0.00  0.00    +0.000 NA
ATOM     10  C   UNL     1       3.808   5.163  18.681  0.00  0.00    +0.000 A 
ENDROOT
BRANCH   4  11
ATOM     11  N   UNL     1       1.734   8.177  19.589  0.00  0.00    +0.000 N 
ATOM     12  C   UNL     1       0.941   9.172  18.855  0.00  0.00    +0.000 C 
ATOM     13  C   UNL     1       0.876  10.454  19.694  0.00  0.00    +0.000 C 
ATOM     14  C   UNL     1       0.429  10.205  21.139  0.00  0.00    +0.000 C 
ATOM     15  C   UNL     1       1.179   9.036  21.777  0.00  0.00    +0.000 C 
ATOM     16  C   UNL     1       1.128   7.801  20.872  0.00  0.00    +0.000 C 
ENDBRANCH   4  11
BRANCH   1  17
ATOM     17  N   UNL     1       5.552   4.894  17.006  0.00  0.00    +0.000 N 
ATOM     18  H   UNL     1       5.440   3.914  17.289  0.00  0.00    +0.000 HD
BRANCH  17  20
ATOM     19  C   UNL     1       7.314   5.730  18.935  0.00  0.00    +0.000 C 
ATOM     20  S   UNL     1       7.170   5.339  17.198  0.00  0.00    +0.000 S 
ATOM     21  O   UNL     1       7.427   6.542  16.436  0.00  0.00    +0.000 OA
ATOM     22  O   UNL     1       7.944   4.135  16.971  0.00  0.00    +0.000 OA
ENDBRANCH  17  20
ENDBRANCH   1  17
TORSDOF 3
ENDMDL
MODEL 5
REMARK VINA RESULT:      -6.9      2.034      4.241
REMARK  Name = 
REMARK  4 active torsions:
REMARK  status: ('A' for Active; 'I' for Inactive)
REMARK    1  A    between atoms: C_1  and  S_2
REMARK    2  A    between atoms: S_2  and  N_5
REMARK    3  A    between atoms: N_5  and  C_6
REMARK    4  A    between atoms: C_9  and  N_10
REMARK                            x       y       z     vdW  Elec       q    Type
REMARK                         _______ _______ _______ _____ _____    ______ ____
ROOT
ATOM      1  C   UNL     1       4.093   5.341  17.189  0.00  0.00    +0.000 A 
ATOM      2  C   UNL     1       4.319   6.705  17.046  0.00  0.00    +0.000 A 
ATOM      3  C   UNL     1       3.542   7.610  17.766  0.00  0.00    +0.000 A 
ATOM      4  C   UNL     1       2.558   7.182  18.680  0.00  0.00    +0.000 A 
ATOM      5  C   UNL     1       2.391   5.760  18.855  0.00  0.00    +0.000 A 
ATOM      6  C   UNL     1       1.541   5.152  19.808  0.00  0.00    +0.000 A 
ATOM      7  C   UNL     1       1.399   3.770  19.910  0.00  0.00    +0.000 A 
ATOM      8  C   UNL     1       2.150   2.993  19.071  0.00  0.00    +0.000 A 
ATOM      9  N   UNL     1       3.014   3.497  18.169  0.00  0.00    +0.000 NA
ATOM     10  C   UNL     1       3.143   4.848  18.079  0.00  0.00    +0.000 A 
ENDROOT
BRANCH   4  11
ATOM     11  N   UNL     1       1.824   8.119  19.410  0.00  0.00    +0.000 N 
ATOM     12  C   UNL     1       1.807   8.132  20.879  0.00  0.00    +0.000 C 
ATOM     13  C   UNL     1       0.374   8.418  21.345  0.00  0.00    +0.000 C 
ATOM     14  C   UNL     1      -0.239   9.653  20.677  0.00  0.00    +0.000 C 
ATOM     15  C   UNL     1      -0.026   9.653  19.164  0.00  0.00    +0.000 C 
ATOM     16  C   UNL     1       1.449   9.412  18.826  0.00  0.00    +0.000 C 
ENDBRANCH   4  11
BRANCH   1  17
ATOM     17  N   UNL     1       4.899   4.397  16.457  0.00  0.00    +0.000 N 
ATOM     18  H   UNL     1       5.248   3.664  17.084  0.00  0.00    +0.000 HD
BRANCH  17  20
ATOM     19  C   UNL     1       6.391   3.845  14.223  0.00  0.00    +0.000 C 
ATOM     20  S   UNL     1       6.192   5.012  15.559  0.00  0.00    +0.000 S 
ATOM     21  O   UNL     1       7.390   4.987  16.370  0.00  0.00    +0.000 OA
ATOM     22  O   UNL     1       5.716   6.248  14.972  0.00  0.00    +0.000 OA
ENDBRANCH  17  20
ENDBRANCH   1  17
TORSDOF 3
ENDMDL
MODEL 6
REMARK VINA RESULT:      -6.9      2.019      2.556
REMARK  Name = 
REMARK  4 active torsions:
REMARK  status: ('A' for Active; 'I' for Inactive)
REMARK    1  A    between atoms: C_1  and  S_2
REMARK    2  A    between atoms: S_2  and  N_5
REMARK    3  A    between atoms: N_5  and  C_6
REMARK    4  A    between atoms: C_9  and  N_10
REMARK                            x       y       z     vdW  Elec       q    Type
REMARK                         _______ _______ _______ _____ _____    ______ ____
ROOT
ATOM      1  C   UNL     1       6.349   4.047  16.106  0.00  0.00    +0.000 A 
ATOM      2  C   UNL     1       5.121   3.499  15.755  0.00  0.00    +0.000 A 
ATOM      3  C   UNL     1       4.111   3.405  16.709  0.00  0.00    +0.000 A 
ATOM      4  C   UNL     1       4.279   3.895  18.020  0.00  0.00    +0.000 A 
ATOM      5  C   UNL     1       5.542   4.516  18.337  0.00  0.00    +0.000 A 
ATOM      6  C   UNL     1       5.846   5.165  19.557  0.00  0.00    +0.000 A 
ATOM      7  C   UNL     1       7.095   5.722  19.817  0.00  0.00    +0.000 A 
ATOM      8  C   UNL     1       8.035   5.660  18.825  0.00  0.00    +0.000 A 
ATOM      9  N   UNL     1       7.806   5.098  17.622  0.00  0.00    +0.000 NA
ATOM     10  C   UNL     1       6.582   4.557  17.381  0.00  0.00    +0.000 A 
ENDROOT
BRANCH   4  11
ATOM     11  N   UNL     1       3.231   3.815  18.940  0.00  0.00    +0.000 N 
ATOM     12  C   UNL     1       2.153   4.811  18.992  0.00  0.00    +0.000 C 
ATOM     13  C   UNL     1       1.837   5.106  20.463  0.00  0.00    +0.000 C 
ATOM     14  C   UNL     1       1.591   3.840  21.290  0.00  0.00    +0.000 C 
ATOM     15  C   UNL     1       2.664   2.779  21.047  0.00  0.00    +0.000 C 
ATOM     16  C   UNL     1       2.850   2.533  19.546  0.00  0.00    +0.000 C 
ENDBRANCH   4  11
BRANCH   1  17
ATOM     17  N   UNL     1       7.396   4.160  15.123  0.00  0.00    +0.000 N 
ATOM     18  H   UNL     1       8.274   4.449  15.568  0.00  0.00    +0.000 HD
BRANCH  17  20
ATOM     19  C   UNL     1       6.569   4.025  12.511  0.00  0.00    +0.000 C 
ATOM     20  S   UNL     1       7.103   5.153  13.788  0.00  0.00    +0.000 S 
ATOM     21  O   UNL     1       8.346   5.765  13.368  0.00  0.00    +0.000 OA
ATOM     22  O   UNL     1       5.956   5.965  14.141  0.00  0.00    +0.000 OA
ENDBRANCH  17  20
ENDBRANCH   1  17
TORSDOF 3
ENDMDL
MODEL 7
REMARK VINA RESULT:      -6.9      4.187      6.752
REMARK  Name = 
REMARK  4 active torsions:
REMARK  status: ('A' for Active; 'I' for Inactive)
REMARK    1  A    between atoms: C_1  and  S_2
REMARK    2  A    between atoms: S_2  and  N_5
REMARK    3  A    between atoms: N_5  and  C_6
REMARK    4  A    between atoms: C_9  and  N_10
REMARK                            x       y       z     vdW  Elec       q    Type
REMARK                         _______ _______ _______ _____ _____    ______ ____
ROOT
ATOM      1  C   UNL     1       1.988   6.535  20.015  0.00  0.00    +0.000 A 
ATOM      2  C   UNL     1       2.482   7.300  18.964  0.00  0.00    +0.000 A 
ATOM      3  C   UNL     1       3.498   6.790  18.160  0.00  0.00    +0.000 A 
ATOM      4  C   UNL     1       4.015   5.492  18.347  0.00  0.00    +0.000 A 
ATOM      5  C   UNL     1       3.439   4.698  19.405  0.00  0.00    +0.000 A 
ATOM      6  C   UNL     1       3.747   3.342  19.664  0.00  0.00    +0.000 A 
ATOM      7  C   UNL     1       3.179   2.633  20.719  0.00  0.00    +0.000 A 
ATOM      8  C   UNL     1       2.262   3.286  21.499  0.00  0.00    +0.000 A 
ATOM      9  N   UNL     1       1.885   4.561  21.288  0.00  0.00    +0.000 NA
ATOM     10  C   UNL     1       2.448   5.242  20.254  0.00  0.00    +0.000 A 
ENDROOT
BRANCH   4  11
ATOM     11  N   UNL     1       5.010   5.003  17.498  0.00  0.00    +0.000 N 
ATOM     12  C   UNL     1       6.420   4.929  17.902  0.00  0.00    +0.000 C 
ATOM     13  C   UNL     1       7.287   5.360  16.713  0.00  0.00    +0.000 C 
ATOM     14  C   UNL     1       6.943   4.618  15.417  0.00  0.00    +0.000 C 
ATOM     15  C   UNL     1       5.437   4.587  15.158  0.00  0.00    +0.000 C 
ATOM     16  C   UNL     1       4.685   4.089  16.396  0.00  0.00    +0.000 C 
ENDBRANCH   4  11
BRANCH   1  17
ATOM     17  N   UNL     1       0.929   7.048  20.845  0.00  0.00    +0.000 N 
ATOM     18  H   UNL     1       0.015   6.821  20.438  0.00  0.00    +0.000 HD
BRANCH  17  20
ATOM     19  C   UNL     1      -0.518   8.960  22.178  0.00  0.00    +0.000 C 
ATOM     20  S   UNL     1       0.968   8.694  21.223  0.00  0.00    +0.000 S 
ATOM     21  O   UNL     1       0.871   9.466  20.002  0.00  0.00    +0.000 OA
ATOM     22  O   UNL     1       2.087   8.869  22.127  0.00  0.00    +0.000 OA
ENDBRANCH  17  20
ENDBRANCH   1  17
TORSDOF 3
ENDMDL
MODEL 8
REMARK VINA RESULT:      -6.8      4.200      6.749
REMARK  Name = 
REMARK  4 active torsions:
REMARK  status: ('A' for Active; 'I' for Inactive)
REMARK    1  A    between atoms: C_1  and  S_2
REMARK    2  A    between atoms: S_2  and  N_5
REMARK    3  A    between atoms: N_5  and  C_6
REMARK    4  A    between atoms: C_9  and  N_10
REMARK                            x       y       z     vdW  Elec       q    Type
REMARK                         _______ _______ _______ _____ _____    ______ ____
ROOT
ATOM      1  C   UNL     1       2.092   6.860  19.772  0.00  0.00    +0.000 A 
ATOM      2  C   UNL     1       2.494   7.779  18.809  0.00  0.00    +0.000 A 
ATOM      3  C   UNL     1       3.538   7.457  17.945  0.00  0.00    +0.000 A 
ATOM      4  C   UNL     1       4.175   6.200  17.983  0.00  0.00    +0.000 A 
ATOM      5  C   UNL     1       3.693   5.244  18.950  0.00  0.00    +0.000 A 
ATOM      6  C   UNL     1       4.128   3.902  19.054  0.00  0.00    +0.000 A 
ATOM      7  C   UNL     1       3.646   3.032  20.029  0.00  0.00    +0.000 A 
ATOM      8  C   UNL     1       2.687   3.507  20.883  0.00  0.00    +0.000 A 
ATOM      9  N   UNL     1       2.191   4.758  20.818  0.00  0.00    +0.000 NA
ATOM     10  C   UNL     1       2.671   5.597  19.862  0.00  0.00    +0.000 A 
ENDROOT
BRANCH   4  11
ATOM     11  N   UNL     1       5.195   5.901  17.078  0.00  0.00    +0.000 N 
ATOM     12  C   UNL     1       5.049   6.117  15.632  0.00  0.00    +0.000 C 
ATOM     13  C   UNL     1       5.678   4.925  14.899  0.00  0.00    +0.000 C 
ATOM     14  C   UNL     1       7.102   4.614  15.369  0.00  0.00    +0.000 C 
ATOM     15  C   UNL     1       7.208   4.581  16.893  0.00  0.00    +0.000 C 
ATOM     16  C   UNL     1       6.598   5.845  17.506  0.00  0.00    +0.000 C 
ENDBRANCH   4  11
BRANCH   1  17
ATOM     17  N   UNL     1       1.005   7.179  20.662  0.00  0.00    +0.000 N 
ATOM     18  H   UNL     1       0.110   6.902  20.245  0.00  0.00    +0.000 HD
BRANCH  17  20
ATOM     19  C   UNL     1      -0.579   8.786  22.222  0.00  0.00    +0.000 C 
ATOM     20  S   UNL     1       0.888   8.775  21.204  0.00  0.00    +0.000 S 
ATOM     21  O   UNL     1       0.665   9.648  20.071  0.00  0.00    +0.000 OA
ATOM     22  O   UNL     1       2.017   8.978  22.089  0.00  0.00    +0.000 OA
ENDBRANCH  17  20
ENDBRANCH   1  17
TORSDOF 3
ENDMDL
MODEL 9
REMARK VINA RESULT:      -6.8      2.560      4.606
REMARK  Name = 
REMARK  4 active torsions:
REMARK  status: ('A' for Active; 'I' for Inactive)
REMARK    1  A    between atoms: C_1  and  S_2
REMARK    2  A    between atoms: S_2  and  N_5
REMARK    3  A    between atoms: N_5  and  C_6
REMARK    4  A    between atoms: C_9  and  N_10
REMARK                            x       y       z     vdW  Elec       q    Type
REMARK                         _______ _______ _______ _____ _____    ______ ____
ROOT
ATOM      1  C   UNL     1       3.863   5.926  17.590  0.00  0.00    +0.000 A 
ATOM      2  C   UNL     1       3.745   7.271  17.256  0.00  0.00    +0.000 A 
ATOM      3  C   UNL     1       2.923   8.098  18.016  0.00  0.00    +0.000 A 
ATOM      4  C   UNL     1       2.236   7.625  19.152  0.00  0.00    +0.000 A 
ATOM      5  C   UNL     1       2.428   6.240  19.511  0.00  0.00    +0.000 A 
ATOM      6  C   UNL     1       1.916   5.624  20.677  0.00  0.00    +0.000 A 
ATOM      7  C   UNL     1       2.110   4.274  20.956  0.00  0.00    +0.000 A 
ATOM      8  C   UNL     1       2.860   3.546  20.072  0.00  0.00    +0.000 A 
ATOM      9  N   UNL     1       3.417   4.072  18.964  0.00  0.00    +0.000 NA
ATOM     10  C   UNL     1       3.219   5.392  18.703  0.00  0.00    +0.000 A 
ENDROOT
BRANCH   4  11
ATOM     11  N   UNL     1       1.448   8.493  19.909  0.00  0.00    +0.000 N 
ATOM     12  C   UNL     1       0.688   9.595  19.303  0.00  0.00    +0.000 C 
ATOM     13  C   UNL     1       0.809  10.824  20.212  0.00  0.00    +0.000 C 
ATOM     14  C   UNL     1       0.465  10.526  21.675  0.00  0.00    +0.000 C 
ATOM     15  C   UNL     1       1.159   9.262  22.181  0.00  0.00    +0.000 C 
ATOM     16  C   UNL     1       0.921   8.093  21.220  0.00  0.00    +0.000 C 
ENDBRANCH   4  11
BRANCH   1  17
ATOM     17  N   UNL     1       4.721   5.064  16.817  0.00  0.00    +0.000 N 
ATOM     18  H   UNL     1       4.455   4.083  16.952  0.00  0.00    +0.000 HD
BRANCH  17  20
ATOM     19  C   UNL     1       7.104   4.293  15.699  0.00  0.00    +0.000 C 
ATOM     20  S   UNL     1       6.387   5.219  17.047  0.00  0.00    +0.000 S 
ATOM     21  O   UNL     1       6.758   4.578  18.291  0.00  0.00    +0.000 OA
ATOM     22  O   UNL     1       6.694   6.615  16.809  0.00  0.00    +0.000 OA
ENDBRANCH  17  20
ENDBRANCH   1  17
TORSDOF 3
ENDMDL
