MODEL 1
REMARK VINA RESULT:      -8.9      0.000      0.000
REMARK  Name = 
REMARK  6 active torsions:
REMARK  status: ('A' for Active; 'I' for Inactive)
REMARK    1  A    between atoms: C_1  and  N_2
REMARK    2  A    between atoms: N_2  and  C_3
REMARK    3  A    between atoms: C_9  and  N_10
REMARK    4  A    between atoms: C_11  and  C_13
REMARK    5  A    between atoms: C_14  and  C_15
REMARK    6  A    between atoms: N_24  and  C_25
REMARK                            x       y       z     vdW  Elec       q    Type
REMARK                         _______ _______ _______ _____ _____    ______ ____
ROOT
ATOM      1  N   UNL     1       2.607   6.430  19.751  0.00  0.00    +0.000 N 
ATOM      2  C   UNL     1       2.426   5.260  19.030  0.00  0.00    +0.000 C 
ATOM      3  O   UNL     1       1.747   5.160  18.015  0.00  0.00    +0.000 OA
ATOM      4  H   UNL     1       3.138   6.343  20.606  0.00  0.00    +0.000 HD
ENDROOT
BRANCH   1  13
ATOM      5  C   UNL     1      -1.043  12.843  21.991  0.00  0.00    +0.000 C 
ATOM      6  N   UNL     1      -0.612  12.664  20.623  0.00  0.00    +0.000 N 
ATOM      7  C   UNL     1      -0.904  13.688  19.640  0.00  0.00    +0.000 C 
ATOM      8  C   UNL     1       0.041  11.539  20.260  0.00  0.00    +0.000 A 
ATOM      9  N   UNL     1       0.505  11.436  18.982  0.00  0.00    +0.000 NA
ATOM     10  C   UNL     1       1.092  10.266  18.964  0.00  0.00    +0.000 A 
ATOM     11  C   UNL     1       1.811   9.580  17.957  0.00  0.00    +0.000 A 
ATOM     12  C   UNL     1       2.307   8.356  18.211  0.00  0.00    +0.000 A 
ATOM     13  C   UNL     1       2.117   7.693  19.495  0.00  0.00    +0.000 A 
ATOM     14  C   UNL     1       1.454   8.368  20.458  0.00  0.00    +0.000 A 
ATOM     15  N   UNL     1       0.954   9.646  20.201  0.00  0.00    +0.000 N 
ATOM     16  N   UNL     1       0.295  10.482  21.039  0.00  0.00    +0.000 NA
ENDBRANCH   1  13
BRANCH   2  17
ATOM     17  C   UNL     1       3.204   4.137  19.513  0.00  0.00    +0.000 A 
ATOM     18  C   UNL     1       4.540   3.784  19.338  0.00  0.00    +0.000 A 
ATOM     19  C   UNL     1       4.664   2.538  19.993  0.00  0.00    +0.000 A 
ATOM     20  N   UNL     1       3.528   2.132  20.555  0.00  0.00    +0.000 NA
ATOM     21  N   UNL     1       2.665   3.131  20.290  0.00  0.00    +0.000 N 
ATOM     22  C   UNL     1       1.289   2.984  20.711  0.00  0.00    +0.000 C 
BRANCH  18  23
ATOM     23  C   UNL     1       5.582   4.538  18.664  0.00  0.00    +0.000 C 
ATOM     24  O   UNL     1       6.192   5.454  19.204  0.00  0.00    +0.000 OA
ATOM     25  N   UNL     1       5.799   4.157  17.353  0.00  0.00    +0.000 N 
ATOM     26  C   UNL     1       6.785   4.756  16.458  0.00  0.00    +0.000 C 
ATOM     27  C   UNL     1       5.676   4.931  15.417  0.00  0.00    +0.000 C 
ATOM     28  F   UNL     1       5.287   6.208  15.180  0.00  0.00    +0.000 F 
ATOM     29  C   UNL     1       4.751   4.117  16.326  0.00  0.00    +0.000 C 
ENDBRANCH  18  23
ENDBRANCH   2  17
TORSDOF 3
ENDMDL
MODEL 2
REMARK VINA RESULT:      -8.1      1.374      1.581
REMARK  Name = 
REMARK  6 active torsions:
REMARK  status: ('A' for Active; 'I' for Inactive)
REMARK    1  A    between atoms: C_1  and  N_2
REMARK    2  A    between atoms: N_2  and  C_3
REMARK    3  A    between atoms: C_9  and  N_10
REMARK    4  A    between atoms: C_11  and  C_13
REMARK    5  A    between atoms: C_14  and  C_15
REMARK    6  A    between atoms: N_24  and  C_25
REMARK                            x       y       z     vdW  Elec       q    Type
REMARK                         _______ _______ _______ _____ _____    ______ ____
ROOT
ATOM      1  N   UNL     1       2.611   6.150  20.006  0.00  0.00    +0.000 N 
ATOM      2  C   UNL     1       2.129   4.918  19.592  0.00  0.00    +0.000 C 
ATOM      3  O   UNL     1       1.070   4.742  19.001  0.00  0.00    +0.000 OA
ATOM      4  H   UNL     1       3.466   6.131  20.543  0.00  0.00    +0.000 HD
ENDROOT
BRANCH   1  13
ATOM      5  C   UNL     1      -1.120  12.318  22.748  0.00  0.00    +0.000 C 
ATOM      6  N   UNL     1      -0.775  12.210  21.348  0.00  0.00    +0.000 N 
ATOM      7  C   UNL     1      -1.169  13.260  20.430  0.00  0.00    +0.000 C 
ATOM      8  C   UNL     1      -0.105  11.128  20.896  0.00  0.00    +0.000 A 
ATOM      9  N   UNL     1       0.276  11.095  19.587  0.00  0.00    +0.000 NA
ATOM     10  C   UNL     1       0.904   9.951  19.482  0.00  0.00    +0.000 A 
ATOM     11  C   UNL     1       1.579   9.334  18.403  0.00  0.00    +0.000 A 
ATOM     12  C   UNL     1       2.137   8.122  18.572  0.00  0.00    +0.000 A 
ATOM     13  C   UNL     1       2.058   7.401  19.836  0.00  0.00    +0.000 A 
ATOM     14  C   UNL     1       1.436   8.011  20.868  0.00  0.00    +0.000 A 
ATOM     15  N   UNL     1       0.872   9.277  20.698  0.00  0.00    +0.000 N 
ATOM     16  N   UNL     1       0.240  10.052  21.611  0.00  0.00    +0.000 NA
ENDBRANCH   1  13
BRANCH   2  17
ATOM     17  C   UNL     1       3.041   3.815  19.819  0.00  0.00    +0.000 A 
ATOM     18  C   UNL     1       4.154   3.365  19.115  0.00  0.00    +0.000 A 
ATOM     19  C   UNL     1       4.559   2.200  19.803  0.00  0.00    +0.000 A 
ATOM     20  N   UNL     1       3.799   1.931  20.860  0.00  0.00    +0.000 NA
ATOM     21  N   UNL     1       2.910   2.942  20.880  0.00  0.00    +0.000 N 
ATOM     22  C   UNL     1       1.870   2.927  21.886  0.00  0.00    +0.000 C 
BRANCH  18  23
ATOM     23  C   UNL     1       4.781   3.973  17.953  0.00  0.00    +0.000 C 
ATOM     24  O   UNL     1       4.872   3.399  16.874  0.00  0.00    +0.000 OA
ATOM     25  N   UNL     1       5.295   5.235  18.183  0.00  0.00    +0.000 N 
ATOM     26  C   UNL     1       5.974   6.058  17.186  0.00  0.00    +0.000 C 
ATOM     27  C   UNL     1       7.123   6.246  18.180  0.00  0.00    +0.000 C 
ATOM     28  F   UNL     1       8.285   5.625  17.865  0.00  0.00    +0.000 F 
ATOM     29  C   UNL     1       6.266   5.547  19.239  0.00  0.00    +0.000 C 
ENDBRANCH  18  23
ENDBRANCH   2  17
TORSDOF 3
ENDMDL
MODEL 3
REMARK VINA RESULT:      -8.1      1.137      1.152
REMARK  Name = 
REMARK  6 active torsions:
REMARK  status: ('A' for Active; 'I' for Inactive)
REMARK    1  A    between atoms: C_1  and  N_2
REMARK    2  A    between atoms: N_2  and  C_3
REMARK    3  A    between atoms: C_9  and  N_10
REMARK    4  A    between atoms: C_11  and  C_13
REMARK    5  A    between atoms: C_14  and  C_15
REMARK    6  A    between atoms: N_24  and  C_25
REMARK                            x       y       z     vdW  Elec       q    Type
REMARK                         _______ _______ _______ _____ _____    ______ ____
ROOT
ATOM      1  N   UNL     1       2.588   6.280  18.867  0.00  0.00    +0.000 N 
ATOM      2  C   UNL     1       2.581   5.309  19.855  0.00  0.00    +0.000 C 
ATOM      3  O   UNL     1       2.176   5.477  21.000  0.00  0.00    +0.000 OA
ATOM      4  H   UNL     1       3.016   6.015  17.991  0.00  0.00    +0.000 HD
ENDROOT
BRANCH   1  13
ATOM      5  C   UNL     1      -0.828  12.090  22.616  0.00  0.00    +0.000 C 
ATOM      6  N   UNL     1      -0.407  12.229  21.240  0.00  0.00    +0.000 N 
ATOM      7  C   UNL     1      -0.664  13.468  20.534  0.00  0.00    +0.000 C 
ATOM      8  C   UNL     1       0.205  11.203  20.612  0.00  0.00    +0.000 A 
ATOM      9  N   UNL     1       0.663  11.394  19.341  0.00  0.00    +0.000 NA
ATOM     10  C   UNL     1       1.208  10.243  19.037  0.00  0.00    +0.000 A 
ATOM     11  C   UNL     1       1.899   9.794  17.888  0.00  0.00    +0.000 A 
ATOM     12  C   UNL     1       2.353   8.528  17.836  0.00  0.00    +0.000 A 
ATOM     13  C   UNL     1       2.142   7.584  18.926  0.00  0.00    +0.000 A 
ATOM     14  C   UNL     1       1.506   8.031  20.030  0.00  0.00    +0.000 A 
ATOM     15  N   UNL     1       1.050   9.349  20.091  0.00  0.00    +0.000 N 
ATOM     16  N   UNL     1       0.424   9.982  21.112  0.00  0.00    +0.000 NA
ENDBRANCH   1  13
BRANCH   2  17
ATOM     17  C   UNL     1       3.002   3.998  19.404  0.00  0.00    +0.000 A 
ATOM     18  C   UNL     1       4.230   3.514  18.963  0.00  0.00    +0.000 A 
ATOM     19  C   UNL     1       3.969   2.176  18.591  0.00  0.00    +0.000 A 
ATOM     20  N   UNL     1       2.703   1.820  18.790  0.00  0.00    +0.000 NA
ATOM     21  N   UNL     1       2.141   2.922  19.321  0.00  0.00    +0.000 N 
ATOM     22  C   UNL     1       0.722   2.905  19.606  0.00  0.00    +0.000 C 
BRANCH  18  23
ATOM     23  C   UNL     1       5.503   4.212  18.923  0.00  0.00    +0.000 C 
ATOM     24  O   UNL     1       6.103   4.553  19.936  0.00  0.00    +0.000 OA
ATOM     25  N   UNL     1       5.958   4.489  17.647  0.00  0.00    +0.000 N 
ATOM     26  C   UNL     1       7.204   5.181  17.333  0.00  0.00    +0.000 C 
ATOM     27  C   UNL     1       6.408   6.121  16.424  0.00  0.00    +0.000 C 
ATOM     28  F   UNL     1       6.285   7.398  16.860  0.00  0.00    +0.000 F 
ATOM     29  C   UNL     1       5.184   5.227  16.642  0.00  0.00    +0.000 C 
ENDBRANCH  18  23
ENDBRANCH   2  17
TORSDOF 3
ENDMDL
MODEL 4
REMARK VINA RESULT:      -8.0      2.530      4.160
REMARK  Name = 
REMARK  6 active torsions:
REMARK  status: ('A' for Active; 'I' for Inactive)
REMARK    1  A    between atoms: C_1  and  N_2
REMARK    2  A    between atoms: N_2  and  C_3
REMARK    3  A    between atoms: C_9  and  N_10
REMARK    4  A    between atoms: C_11  and  C_13
REMARK    5  A    between atoms: C_14  and  C_15
REMARK    6  A    between atoms: N_24  and  C_25
REMARK                            x       y       z     vdW  Elec       q    Type
REMARK                         _______ _______ _______ _____ _____    ______ ____
ROOT
ATOM      1  N   UNL     1       2.705   8.052  17.554  0.00  0.00    +0.000 N 
ATOM      2  C   UNL     1       3.101   6.997  18.361  0.00  0.00    +0.000 C 
ATOM      3  O   UNL     1       2.852   6.898  19.557  0.00  0.00    +0.000 OA
ATOM      4  H   UNL     1       3.044   8.030  16.602  0.00  0.00    +0.000 HD
ENDROOT
BRANCH   1  13
ATOM      5  C   UNL     1       2.073  15.619  18.902  0.00  0.00    +0.000 C 
ATOM      6  N   UNL     1       0.946  14.730  19.069  0.00  0.00    +0.000 N 
ATOM      7  C   UNL     1      -0.321  15.259  19.536  0.00  0.00    +0.000 C 
ATOM      8  C   UNL     1       1.077  13.412  18.809  0.00  0.00    +0.000 A 
ATOM      9  N   UNL     1      -0.026  12.614  18.898  0.00  0.00    +0.000 NA
ATOM     10  C   UNL     1       0.428  11.430  18.573  0.00  0.00    +0.000 A 
ATOM     11  C   UNL     1      -0.211  10.177  18.426  0.00  0.00    +0.000 A 
ATOM     12  C   UNL     1       0.515   9.095  18.088  0.00  0.00    +0.000 A 
ATOM     13  C   UNL     1       1.956   9.162  17.880  0.00  0.00    +0.000 A 
ATOM     14  C   UNL     1       2.551  10.369  17.995  0.00  0.00    +0.000 A 
ATOM     15  N   UNL     1       1.796  11.495  18.329  0.00  0.00    +0.000 N 
ATOM     16  N   UNL     1       2.203  12.780  18.460  0.00  0.00    +0.000 NA
ENDBRANCH   1  13
BRANCH   2  17
ATOM     17  C   UNL     1       3.768   5.924  17.653  0.00  0.00    +0.000 A 
ATOM     18  C   UNL     1       3.403   4.603  17.404  0.00  0.00    +0.000 A 
ATOM     19  C   UNL     1       4.517   4.050  16.733  0.00  0.00    +0.000 A 
ATOM     20  N   UNL     1       5.498   4.929  16.546  0.00  0.00    +0.000 NA
ATOM     21  N   UNL     1       5.012   6.068  17.072  0.00  0.00    +0.000 N 
ATOM     22  C   UNL     1       5.865   7.237  17.096  0.00  0.00    +0.000 C 
BRANCH  18  23
ATOM     23  C   UNL     1       2.149   3.947  17.729  0.00  0.00    +0.000 C 
ATOM     24  O   UNL     1       1.077   4.288  17.242  0.00  0.00    +0.000 OA
ATOM     25  N   UNL     1       2.266   2.931  18.660  0.00  0.00    +0.000 N 
ATOM     26  C   UNL     1       1.160   2.119  19.159  0.00  0.00    +0.000 C 
ATOM     27  C   UNL     1       1.618   2.438  20.584  0.00  0.00    +0.000 C 
ATOM     28  F   UNL     1       0.804   3.253  21.297  0.00  0.00    +0.000 F 
ATOM     29  C   UNL     1       2.863   3.102  19.990  0.00  0.00    +0.000 C 
ENDBRANCH  18  23
ENDBRANCH   2  17
TORSDOF 3
ENDMDL
MODEL 5
REMARK VINA RESULT:      -7.9      2.156      3.628
REMARK  Name = 
REMARK  6 active torsions:
REMARK  status: ('A' for Active; 'I' for Inactive)
REMARK    1  A    between atoms: C_1  and  N_2
REMARK    2  A    between atoms: N_2  and  C_3
REMARK    3  A    between atoms: C_9  and  N_10
REMARK    4  A    between atoms: C_11  and  C_13
REMARK    5  A    between atoms: C_14  and  C_15
REMARK    6  A    between atoms: N_24  and  C_25
REMARK                            x       y       z     vdW  Elec       q    Type
REMARK                         _______ _______ _______ _____ _____    ______ ____
ROOT
ATOM      1  N   UNL     1       3.027   6.924  18.656  0.00  0.00    +0.000 N 
ATOM      2  C   UNL     1       3.913   6.688  17.617  0.00  0.00    +0.000 C 
ATOM      3  O   UNL     1       4.061   7.417  16.642  0.00  0.00    +0.000 OA
ATOM      4  H   UNL     1       2.966   6.198  19.357  0.00  0.00    +0.000 HD
ENDROOT
BRANCH   1  13
ATOM      5  C   UNL     1      -1.414  11.306  23.189  0.00  0.00    +0.000 C 
ATOM      6  N   UNL     1      -1.349  11.527  21.762  0.00  0.00    +0.000 N 
ATOM      7  C   UNL     1      -2.162  12.565  21.160  0.00  0.00    +0.000 C 
ATOM      8  C   UNL     1      -0.550  10.757  20.993  0.00  0.00    +0.000 A 
ATOM      9  N   UNL     1      -0.449  11.044  19.663  0.00  0.00    +0.000 NA
ATOM     10  C   UNL     1       0.397  10.148  19.221  0.00  0.00    +0.000 A 
ATOM     11  C   UNL     1       0.961   9.924  17.944  0.00  0.00    +0.000 A 
ATOM     12  C   UNL     1       1.814   8.899  17.763  0.00  0.00    +0.000 A 
ATOM     13  C   UNL     1       2.170   7.987  18.843  0.00  0.00    +0.000 A 
ATOM     14  C   UNL     1       1.647   8.227  20.065  0.00  0.00    +0.000 A 
ATOM     15  N   UNL     1       0.776   9.301  20.257  0.00  0.00    +0.000 N 
ATOM     16  N   UNL     1       0.180   9.714  21.401  0.00  0.00    +0.000 NA
ENDBRANCH   1  13
BRANCH   2  17
ATOM     17  C   UNL     1       4.765   5.532  17.811  0.00  0.00    +0.000 A 
ATOM     18  C   UNL     1       4.477   4.183  18.001  0.00  0.00    +0.000 A 
ATOM     19  C   UNL     1       5.737   3.580  18.210  0.00  0.00    +0.000 A 
ATOM     20  N   UNL     1       6.744   4.446  18.143  0.00  0.00    +0.000 NA
ATOM     21  N   UNL     1       6.141   5.616  17.859  0.00  0.00    +0.000 N 
ATOM     22  C   UNL     1       6.955   6.809  17.778  0.00  0.00    +0.000 C 
BRANCH  18  23
ATOM     23  C   UNL     1       3.179   3.533  17.961  0.00  0.00    +0.000 C 
ATOM     24  O   UNL     1       2.496   3.480  16.944  0.00  0.00    +0.000 OA
ATOM     25  N   UNL     1       2.768   3.012  19.174  0.00  0.00    +0.000 N 
ATOM     26  C   UNL     1       1.506   2.314  19.403  0.00  0.00    +0.000 C 
ATOM     27  C   UNL     1       1.249   3.248  20.588  0.00  0.00    +0.000 C 
ATOM     28  F   UNL     1       0.250   4.149  20.422  0.00  0.00    +0.000 F 
ATOM     29  C   UNL     1       2.668   3.795  20.411  0.00  0.00    +0.000 C 
ENDBRANCH  18  23
ENDBRANCH   2  17
TORSDOF 3
ENDMDL
MODEL 6
REMARK VINA RESULT:      -7.8      1.513      2.029
REMARK  Name = 
REMARK  6 active torsions:
REMARK  status: ('A' for Active; 'I' for Inactive)
REMARK    1  A    between atoms: C_1  and  N_2
REMARK    2  A    between atoms: N_2  and  C_3
REMARK    3  A    between atoms: C_9  and  N_10
REMARK    4  A    between atoms: C_11  and  C_13
REMARK    5  A    between atoms: C_14  and  C_15
REMARK    6  A    between atoms: N_24  and  C_25
REMARK                            x       y       z     vdW  Elec       q    Type
REMARK                         _______ _______ _______ _____ _____    ______ ____
ROOT
ATOM      1  N   UNL     1       2.371   6.277  19.340  0.00  0.00    +0.000 N 
ATOM      2  C   UNL     1       2.542   5.061  19.984  0.00  0.00    +0.000 C 
ATOM      3  O   UNL     1       2.280   4.850  21.163  0.00  0.00    +0.000 OA
ATOM      4  H   UNL     1       2.695   6.318  18.384  0.00  0.00    +0.000 HD
ENDROOT
BRANCH   1  13
ATOM      5  C   UNL     1      -0.021  13.542  18.357  0.00  0.00    +0.000 C 
ATOM      6  N   UNL     1       0.056  12.949  19.672  0.00  0.00    +0.000 N 
ATOM      7  C   UNL     1      -0.283  13.742  20.837  0.00  0.00    +0.000 C 
ATOM      8  C   UNL     1       0.461  11.669  19.816  0.00  0.00    +0.000 A 
ATOM      9  N   UNL     1       0.446  11.114  21.062  0.00  0.00    +0.000 NA
ATOM     10  C   UNL     1       0.865   9.892  20.857  0.00  0.00    +0.000 A 
ATOM     11  C   UNL     1       1.035   8.788  21.724  0.00  0.00    +0.000 A 
ATOM     12  C   UNL     1       1.505   7.625  21.238  0.00  0.00    +0.000 A 
ATOM     13  C   UNL     1       1.869   7.461  19.836  0.00  0.00    +0.000 A 
ATOM     14  C   UNL     1       1.676   8.512  19.011  0.00  0.00    +0.000 A 
ATOM     15  N   UNL     1       1.172   9.714  19.512  0.00  0.00    +0.000 N 
ATOM     16  N   UNL     1       0.887  10.856  18.843  0.00  0.00    +0.000 NA
ENDBRANCH   1  13
BRANCH   2  17
ATOM     17  C   UNL     1       2.969   3.983  19.116  0.00  0.00    +0.000 A 
ATOM     18  C   UNL     1       4.205   3.671  18.555  0.00  0.00    +0.000 A 
ATOM     19  C   UNL     1       3.948   2.545  17.741  0.00  0.00    +0.000 A 
ATOM     20  N   UNL     1       2.679   2.152  17.785  0.00  0.00    +0.000 NA
ATOM     21  N   UNL     1       2.108   3.008  18.654  0.00  0.00    +0.000 N 
ATOM     22  C   UNL     1       0.685   2.904  18.892  0.00  0.00    +0.000 C 
BRANCH  18  23
ATOM     23  C   UNL     1       5.479   4.331  18.779  0.00  0.00    +0.000 C 
ATOM     24  O   UNL     1       5.952   4.496  19.898  0.00  0.00    +0.000 OA
ATOM     25  N   UNL     1       6.091   4.787  17.627  0.00  0.00    +0.000 N 
ATOM     26  C   UNL     1       7.373   5.484  17.578  0.00  0.00    +0.000 C 
ATOM     27  C   UNL     1       6.704   6.575  16.737  0.00  0.00    +0.000 C 
ATOM     28  F   UNL     1       6.539   7.773  17.349  0.00  0.00    +0.000 F 
ATOM     29  C   UNL     1       5.455   5.693  16.663  0.00  0.00    +0.000 C 
ENDBRANCH  18  23
ENDBRANCH   2  17
TORSDOF 3
ENDMDL
MODEL 7
REMARK VINA RESULT:      -7.8      2.154      3.847
REMARK  Name = 
REMARK  6 active torsions:
REMARK  status: ('A' for Active; 'I' for Inactive)
REMARK    1  A    between atoms: C_1  and  N_2
REMARK    2  A    between atoms: N_2  and  C_3
REMARK    3  A    between atoms: C_9  and  N_10
REMARK    4  A    between atoms: C_11  and  C_13
REMARK    5  A    between atoms: C_14  and  C_15
REMARK    6  A    between atoms: N_24  and  C_25
REMARK                            x       y       z     vdW  Elec       q    Type
REMARK                         _______ _______ _______ _____ _____    ______ ____
ROOT
ATOM      1  N   UNL     1       2.904   7.555  17.810  0.00  0.00    +0.000 N 
ATOM      2  C   UNL     1       3.566   6.531  18.467  0.00  0.00    +0.000 C 
ATOM      3  O   UNL     1       3.702   6.450  19.683  0.00  0.00    +0.000 OA
ATOM      4  H   UNL     1       2.933   7.523  16.800  0.00  0.00    +0.000 HD
ENDROOT
BRANCH   1  13
ATOM      5  C   UNL     1      -1.432  10.854  23.268  0.00  0.00    +0.000 C 
ATOM      6  N   UNL     1      -1.027  11.584  22.088  0.00  0.00    +0.000 N 
ATOM      7  C   UNL     1      -1.474  12.951  21.902  0.00  0.00    +0.000 C 
ATOM      8  C   UNL     1      -0.253  10.989  21.155  0.00  0.00    +0.000 A 
ATOM      9  N   UNL     1       0.179  11.730  20.094  0.00  0.00    +0.000 NA
ATOM     10  C   UNL     1       0.905  10.885  19.407  0.00  0.00    +0.000 A 
ATOM     11  C   UNL     1       1.669  11.030  18.226  0.00  0.00    +0.000 A 
ATOM     12  C   UNL     1       2.320   9.968  17.719  0.00  0.00    +0.000 A 
ATOM     13  C   UNL     1       2.255   8.651  18.338  0.00  0.00    +0.000 A 
ATOM     14  C   UNL     1       1.545   8.529  19.481  0.00  0.00    +0.000 A 
ATOM     15  N   UNL     1       0.884   9.635  20.017  0.00  0.00    +0.000 N 
ATOM     16  N   UNL     1       0.155   9.715  21.156  0.00  0.00    +0.000 NA
ENDBRANCH   1  13
BRANCH   2  17
ATOM     17  C   UNL     1       4.018   5.461  17.600  0.00  0.00    +0.000 A 
ATOM     18  C   UNL     1       3.465   4.225  17.278  0.00  0.00    +0.000 A 
ATOM     19  C   UNL     1       4.429   3.614  16.445  0.00  0.00    +0.000 A 
ATOM     20  N   UNL     1       5.491   4.384  16.230  0.00  0.00    +0.000 NA
ATOM     21  N   UNL     1       5.208   5.515  16.903  0.00  0.00    +0.000 N 
ATOM     22  C   UNL     1       6.202   6.566  16.934  0.00  0.00    +0.000 C 
BRANCH  18  23
ATOM     23  C   UNL     1       2.175   3.692  17.680  0.00  0.00    +0.000 C 
ATOM     24  O   UNL     1       1.118   4.084  17.198  0.00  0.00    +0.000 OA
ATOM     25  N   UNL     1       2.242   2.734  18.674  0.00  0.00    +0.000 N 
ATOM     26  C   UNL     1       1.092   2.046  19.254  0.00  0.00    +0.000 C 
ATOM     27  C   UNL     1       1.618   2.420  20.642  0.00  0.00    +0.000 C 
ATOM     28  F   UNL     1       0.892   3.342  21.320  0.00  0.00    +0.000 F 
ATOM     29  C   UNL     1       2.892   2.943  19.973  0.00  0.00    +0.000 C 
ENDBRANCH  18  23
ENDBRANCH   2  17
TORSDOF 3
ENDMDL
MODEL 8
REMARK VINA RESULT:      -7.8      0.969      1.649
REMARK  Name = 
REMARK  6 active torsions:
REMARK  status: ('A' for Active; 'I' for Inactive)
REMARK    1  A    between atoms: C_1  and  N_2
REMARK    2  A    between atoms: N_2  and  C_3
REMARK    3  A    between atoms: C_9  and  N_10
REMARK    4  A    between atoms: C_11  and  C_13
REMARK    5  A    between atoms: C_14  and  C_15
REMARK    6  A    between atoms: N_24  and  C_25
REMARK                            x       y       z     vdW  Elec       q    Type
REMARK                         _______ _______ _______ _____ _____    ______ ____
ROOT
ATOM      1  N   UNL     1       2.020   6.277  20.582  0.00  0.00    +0.000 N 
ATOM      2  C   UNL     1       2.361   5.566  19.443  0.00  0.00    +0.000 C 
ATOM      3  O   UNL     1       2.130   5.929  18.295  0.00  0.00    +0.000 OA
ATOM      4  H   UNL     1       2.213   5.819  21.462  0.00  0.00    +0.000 HD
ENDROOT
BRANCH   1  13
ATOM      5  C   UNL     1       1.034  13.569  18.274  0.00  0.00    +0.000 C 
ATOM      6  N   UNL     1       0.331  13.044  19.421  0.00  0.00    +0.000 N 
ATOM      7  C   UNL     1      -0.549  13.910  20.181  0.00  0.00    +0.000 C 
ATOM      8  C   UNL     1       0.507  11.758  19.795  0.00  0.00    +0.000 A 
ATOM      9  N   UNL     1      -0.233  11.271  20.832  0.00  0.00    +0.000 NA
ATOM     10  C   UNL     1       0.153  10.023  20.922  0.00  0.00    +0.000 A 
ATOM     11  C   UNL     1      -0.257   8.961  21.761  0.00  0.00    +0.000 A 
ATOM     12  C   UNL     1       0.332   7.756  21.645  0.00  0.00    +0.000 A 
ATOM     13  C   UNL     1       1.401   7.505  20.689  0.00  0.00    +0.000 A 
ATOM     14  C   UNL     1       1.766   8.518  19.874  0.00  0.00    +0.000 A 
ATOM     15  N   UNL     1       1.144   9.763  19.981  0.00  0.00    +0.000 N 
ATOM     16  N   UNL     1       1.350  10.879  19.242  0.00  0.00    +0.000 NA
ENDBRANCH   1  13
BRANCH   2  17
ATOM     17  C   UNL     1       3.131   4.365  19.698  0.00  0.00    +0.000 A 
ATOM     18  C   UNL     1       4.429   3.999  19.354  0.00  0.00    +0.000 A 
ATOM     19  C   UNL     1       4.558   2.673  19.825  0.00  0.00    +0.000 A 
ATOM     20  N   UNL     1       3.461   2.229  20.431  0.00  0.00    +0.000 NA
ATOM     21  N   UNL     1       2.621   3.280  20.382  0.00  0.00    +0.000 N 
ATOM     22  C   UNL     1       1.282   3.119  20.907  0.00  0.00    +0.000 C 
BRANCH  18  23
ATOM     23  C   UNL     1       5.438   4.806  18.691  0.00  0.00    +0.000 C 
ATOM     24  O   UNL     1       5.980   5.764  19.231  0.00  0.00    +0.000 OA
ATOM     25  N   UNL     1       5.706   4.422  17.390  0.00  0.00    +0.000 N 
ATOM     26  C   UNL     1       6.673   5.067  16.508  0.00  0.00    +0.000 C 
ATOM     27  C   UNL     1       5.579   5.162  15.442  0.00  0.00    +0.000 C 
ATOM     28  F   UNL     1       5.120   6.409  15.178  0.00  0.00    +0.000 F 
ATOM     29  C   UNL     1       4.685   4.306  16.342  0.00  0.00    +0.000 C 
ENDBRANCH  18  23
ENDBRANCH   2  17
TORSDOF 3
ENDMDL
MODEL 9
REMARK VINA RESULT:      -7.8      1.999      3.931
REMARK  Name = 
REMARK  6 active torsions:
REMARK  status: ('A' for Active; 'I' for Inactive)
REMARK    1  A    between atoms: C_1  and  N_2
REMARK    2  A    between atoms: N_2  and  C_3
REMARK    3  A    between atoms: C_9  and  N_10
REMARK    4  A    between atoms: C_11  and  C_13
REMARK    5  A    between atoms: C_14  and  C_15
REMARK    6  A    between atoms: N_24  and  C_25
REMARK                            x       y       z     vdW  Elec       q    Type
REMARK                         _______ _______ _______ _____ _____    ______ ____
ROOT
ATOM      1  N   UNL     1       2.907   6.864  18.153  0.00  0.00    +0.000 N 
ATOM      2  C   UNL     1       4.019   6.122  18.518  0.00  0.00    +0.000 C 
ATOM      3  O   UNL     1       4.619   6.233  19.581  0.00  0.00    +0.000 OA
ATOM      4  H   UNL     1       2.561   6.709  17.216  0.00  0.00    +0.000 HD
ENDROOT
BRANCH   1  13
ATOM      5  C   UNL     1      -0.320  13.847  18.706  0.00  0.00    +0.000 C 
ATOM      6  N   UNL     1      -0.241  12.964  19.848  0.00  0.00    +0.000 N 
ATOM      7  C   UNL     1      -0.741  13.409  21.134  0.00  0.00    +0.000 C 
ATOM      8  C   UNL     1       0.313  11.739  19.721  0.00  0.00    +0.000 A 
ATOM      9  N   UNL     1       0.299  10.900  20.796  0.00  0.00    +0.000 NA
ATOM     10  C   UNL     1       0.879   9.817  20.345  0.00  0.00    +0.000 A 
ATOM     11  C   UNL     1       1.138   8.560  20.940  0.00  0.00    +0.000 A 
ATOM     12  C   UNL     1       1.776   7.609  20.236  0.00  0.00    +0.000 A 
ATOM     13  C   UNL     1       2.234   7.830  18.870  0.00  0.00    +0.000 A 
ATOM     14  C   UNL     1       1.957   9.024  18.302  0.00  0.00    +0.000 A 
ATOM     15  N   UNL     1       1.278  10.005  19.026  0.00  0.00    +0.000 N 
ATOM     16  N   UNL     1       0.890  11.238  18.623  0.00  0.00    +0.000 NA
ENDBRANCH   1  13
BRANCH   2  17
ATOM     17  C   UNL     1       4.382   5.089  17.569  0.00  0.00    +0.000 A 
ATOM     18  C   UNL     1       3.752   3.908  17.188  0.00  0.00    +0.000 A 
ATOM     19  C   UNL     1       4.653   3.302  16.284  0.00  0.00    +0.000 A 
ATOM     20  N   UNL     1       5.749   4.027  16.081  0.00  0.00    +0.000 NA
ATOM     21  N   UNL     1       5.551   5.125  16.834  0.00  0.00    +0.000 N 
ATOM     22  C   UNL     1       6.602   6.117  16.898  0.00  0.00    +0.000 C 
BRANCH  18  23
ATOM     23  C   UNL     1       2.447   3.420  17.601  0.00  0.00    +0.000 C 
ATOM     24  O   UNL     1       1.407   3.767  17.054  0.00  0.00    +0.000 OA
ATOM     25  N   UNL     1       2.480   2.559  18.682  0.00  0.00    +0.000 N 
ATOM     26  C   UNL     1       1.311   1.933  19.291  0.00  0.00    +0.000 C 
ATOM     27  C   UNL     1       1.799   2.434  20.653  0.00  0.00    +0.000 C 
ATOM     28  F   UNL     1       1.059   3.419  21.219  0.00  0.00    +0.000 F 
ATOM     29  C   UNL     1       3.094   2.888  19.974  0.00  0.00    +0.000 C 
ENDBRANCH  18  23
ENDBRANCH   2  17
TORSDOF 3
ENDMDL
