MODEL 1
REMARK VINA RESULT:      -7.6      0.000      0.000
REMARK  Name = 
REMARK  8 active torsions:
REMARK  status: ('A' for Active; 'I' for Inactive)
REMARK    1  A    between atoms: C_1  and  C_2
REMARK    2  A    between atoms: C_2  and  C_3
REMARK    3  A    between atoms: C_3  and  S_4
REMARK    4  A    between atoms: S_4  and  C_5
REMARK    5  A    between atoms: C_5  and  C_6
REMARK    6  A    between atoms: C_12  and  C_13
REMARK    7  A    between atoms: N_17  and  C_18
REMARK    8  A    between atoms: C_18  and  C_19
REMARK                            x       y       z     vdW  Elec       q    Type
REMARK                         _______ _______ _______ _____ _____    ______ ____
ROOT
ATOM      1  C   UNL     1       6.682   4.912  14.776  0.00  0.00    +0.000 C 
ATOM      2  O   UNL     1       7.647   5.529  14.314  0.00  0.00    +0.000 OA
ATOM      3  N   UNL     1       6.016   5.349  15.913  0.00  0.00    +0.000 N 
ATOM      4  C   UNL     1       6.360   6.643  16.492  0.00  0.00    +0.000 C 
ATOM      5  C   UNL     1       6.920   6.469  17.901  0.00  0.00    +0.000 C 
ATOM      6  C   UNL     1       5.973   5.645  18.779  0.00  0.00    +0.000 C 
ATOM      7  C   UNL     1       5.623   4.306  18.108  0.00  0.00    +0.000 C 
ATOM      8  C   UNL     1       5.055   4.563  16.700  0.00  0.00    +0.000 C 
ENDROOT
BRANCH   7   9
ATOM      9  C   UNL     1       4.661   3.520  18.950  0.00  0.00    +0.000 A 
ATOM     10  N   UNL     1       5.013   2.578  19.804  0.00  0.00    +0.000 NA
ATOM     11  C   UNL     1       3.854   2.103  20.352  0.00  0.00    +0.000 A 
ATOM     12  C   UNL     1       2.769   2.750  19.817  0.00  0.00    +0.000 A 
ATOM     13  N   UNL     1       3.288   3.663  18.933  0.00  0.00    +0.000 N 
BRANCH  13  14
ATOM     14  C   UNL     1       2.485   4.541  18.092  0.00  0.00    +0.000 C 
BRANCH  14  15
ATOM     15  C   UNL     1       2.234   5.875  18.747  0.00  0.00    +0.000 A 
ATOM     16  C   UNL     1       2.321   7.066  18.018  0.00  0.00    +0.000 A 
ATOM     17  C   UNL     1       2.108   8.268  18.674  0.00  0.00    +0.000 A 
ATOM     18  N   UNL     1       1.807   8.366  19.984  0.00  0.00    +0.000 NA
ATOM     19  C   UNL     1       1.717   7.210  20.673  0.00  0.00    +0.000 A 
ATOM     20  C   UNL     1       1.917   5.959  20.108  0.00  0.00    +0.000 A 
ENDBRANCH  14  15
ENDBRANCH  13  14
ENDBRANCH   7   9
BRANCH   1  21
ATOM     21  C   UNL     1       6.204   3.651  14.073  0.00  0.00    +0.000 C 
BRANCH  21  22
ATOM     22  S   UNL     1       6.609   3.646  12.295  0.00  0.00    +0.000 S 
BRANCH  22  23
ATOM     23  C   UNL     1       5.276   2.570  11.666  0.00  0.00    +0.000 C 
BRANCH  23  25
ATOM     24  C   UNL     1       3.492   3.630  10.234  0.00  0.00    +0.000 C 
ATOM     25  C   UNL     1       3.970   3.363  11.653  0.00  0.00    +0.000 C 
ENDBRANCH  23  25
ENDBRANCH  22  23
ENDBRANCH  21  22
ENDBRANCH   1  21
TORSDOF 7
ENDMDL
MODEL 2
REMARK VINA RESULT:      -7.5      0.622      1.039
REMARK  Name = 
REMARK  8 active torsions:
REMARK  status: ('A' for Active; 'I' for Inactive)
REMARK    1  A    between atoms: C_1  and  C_2
REMARK    2  A    between atoms: C_2  and  C_3
REMARK    3  A    between atoms: C_3  and  S_4
REMARK    4  A    between atoms: S_4  and  C_5
REMARK    5  A    between atoms: C_5  and  C_6
REMARK    6  A    between atoms: C_12  and  C_13
REMARK    7  A    between atoms: N_17  and  C_18
REMARK    8  A    between atoms: C_18  and  C_19
REMARK                            x       y       z     vdW  Elec       q    Type
REMARK                         _______ _______ _______ _____ _____    ______ ____
ROOT
ATOM      1  C   UNL     1       6.863   4.939  15.042  0.00  0.00    +0.000 C 
ATOM      2  O   UNL     1       7.897   5.454  14.605  0.00  0.00    +0.000 OA
ATOM      3  N   UNL     1       6.265   5.388  16.213  0.00  0.00    +0.000 N 
ATOM      4  C   UNL     1       6.776   6.589  16.863  0.00  0.00    +0.000 C 
ATOM      5  C   UNL     1       7.317   6.259  18.251  0.00  0.00    +0.000 C 
ATOM      6  C   UNL     1       6.277   5.511  19.092  0.00  0.00    +0.000 C 
ATOM      7  C   UNL     1       5.754   4.271  18.347  0.00  0.00    +0.000 C 
ATOM      8  C   UNL     1       5.216   4.684  16.964  0.00  0.00    +0.000 C 
ENDROOT
BRANCH   7   9
ATOM      9  C   UNL     1       4.704   3.565  19.153  0.00  0.00    +0.000 A 
ATOM     10  N   UNL     1       4.954   2.631  20.051  0.00  0.00    +0.000 NA
ATOM     11  C   UNL     1       3.742   2.237  20.545  0.00  0.00    +0.000 A 
ATOM     12  C   UNL     1       2.727   2.926  19.932  0.00  0.00    +0.000 A 
ATOM     13  N   UNL     1       3.345   3.783  19.055  0.00  0.00    +0.000 N 
BRANCH  13  14
ATOM     14  C   UNL     1       2.640   4.678  18.146  0.00  0.00    +0.000 C 
BRANCH  14  15
ATOM     15  C   UNL     1       2.310   5.997  18.798  0.00  0.00    +0.000 A 
ATOM     16  C   UNL     1       2.368   7.194  18.077  0.00  0.00    +0.000 A 
ATOM     17  C   UNL     1       2.081   8.383  18.729  0.00  0.00    +0.000 A 
ATOM     18  N   UNL     1       1.734   8.461  20.029  0.00  0.00    +0.000 NA
ATOM     19  C   UNL     1       1.672   7.298  20.711  0.00  0.00    +0.000 A 
ATOM     20  C   UNL     1       1.946   6.060  20.148  0.00  0.00    +0.000 A 
ENDBRANCH  14  15
ENDBRANCH  13  14
ENDBRANCH   7   9
BRANCH   1  21
ATOM     21  C   UNL     1       6.223   3.794  14.273  0.00  0.00    +0.000 C 
BRANCH  21  22
ATOM     22  S   UNL     1       6.577   3.871  12.486  0.00  0.00    +0.000 S 
BRANCH  22  23
ATOM     23  C   UNL     1       5.159   2.923  11.837  0.00  0.00    +0.000 C 
BRANCH  23  25
ATOM     24  C   UNL     1       7.205   1.606  11.172  0.00  0.00    +0.000 C 
ATOM     25  C   UNL     1       5.686   1.680  11.120  0.00  0.00    +0.000 C 
ENDBRANCH  23  25
ENDBRANCH  22  23
ENDBRANCH  21  22
ENDBRANCH   1  21
TORSDOF 7
ENDMDL
MODEL 3
REMARK VINA RESULT:      -7.2      1.247      1.538
REMARK  Name = 
REMARK  8 active torsions:
REMARK  status: ('A' for Active; 'I' for Inactive)
REMARK    1  A    between atoms: C_1  and  C_2
REMARK    2  A    between atoms: C_2  and  C_3
REMARK    3  A    between atoms: C_3  and  S_4
REMARK    4  A    between atoms: S_4  and  C_5
REMARK    5  A    between atoms: C_5  and  C_6
REMARK    6  A    between atoms: C_12  and  C_13
REMARK    7  A    between atoms: N_17  and  C_18
REMARK    8  A    between atoms: C_18  and  C_19
REMARK                            x       y       z     vdW  Elec       q    Type
REMARK                         _______ _______ _______ _____ _____    ______ ____
ROOT
ATOM      1  C   UNL     1       6.647   4.503  15.300  0.00  0.00    +0.000 C 
ATOM      2  O   UNL     1       7.870   4.608  15.164  0.00  0.00    +0.000 OA
ATOM      3  N   UNL     1       5.976   5.122  16.345  0.00  0.00    +0.000 N 
ATOM      4  C   UNL     1       6.699   6.041  17.217  0.00  0.00    +0.000 C 
ATOM      5  C   UNL     1       6.725   5.514  18.649  0.00  0.00    +0.000 C 
ATOM      6  C   UNL     1       5.314   5.188  19.150  0.00  0.00    +0.000 C 
ATOM      7  C   UNL     1       4.590   4.239  18.180  0.00  0.00    +0.000 C 
ATOM      8  C   UNL     1       4.594   4.843  16.762  0.00  0.00    +0.000 C 
ENDROOT
BRANCH   7   9
ATOM      9  C   UNL     1       3.193   3.957  18.649  0.00  0.00    +0.000 A 
ATOM     10  N   UNL     1       2.443   2.966  18.207  0.00  0.00    +0.000 NA
ATOM     11  C   UNL     1       1.250   3.062  18.868  0.00  0.00    +0.000 A 
ATOM     12  C   UNL     1       1.258   4.138  19.719  0.00  0.00    +0.000 A 
ATOM     13  N   UNL     1       2.504   4.698  19.588  0.00  0.00    +0.000 N 
BRANCH  13  14
ATOM     14  C   UNL     1       2.939   5.907  20.276  0.00  0.00    +0.000 C 
BRANCH  14  15
ATOM     15  C   UNL     1       2.296   7.144  19.700  0.00  0.00    +0.000 A 
ATOM     16  C   UNL     1       2.417   7.454  18.341  0.00  0.00    +0.000 A 
ATOM     17  C   UNL     1       1.831   8.617  17.866  0.00  0.00    +0.000 A 
ATOM     18  N   UNL     1       1.133   9.475  18.637  0.00  0.00    +0.000 NA
ATOM     19  C   UNL     1       1.016   9.158  19.943  0.00  0.00    +0.000 A 
ATOM     20  C   UNL     1       1.570   8.022  20.513  0.00  0.00    +0.000 A 
ENDBRANCH  14  15
ENDBRANCH  13  14
ENDBRANCH   7   9
BRANCH   1  21
ATOM     21  C   UNL     1       5.857   3.686  14.289  0.00  0.00    +0.000 C 
BRANCH  21  22
ATOM     22  S   UNL     1       6.539   3.813  12.603  0.00  0.00    +0.000 S 
BRANCH  22  23
ATOM     23  C   UNL     1       5.359   2.754  11.700  0.00  0.00    +0.000 C 
BRANCH  23  25
ATOM     24  C   UNL     1       3.245   2.980  10.344  0.00  0.00    +0.000 C 
ATOM     25  C   UNL     1       4.053   3.526  11.511  0.00  0.00    +0.000 C 
ENDBRANCH  23  25
ENDBRANCH  22  23
ENDBRANCH  21  22
ENDBRANCH   1  21
TORSDOF 7
ENDMDL
MODEL 4
REMARK VINA RESULT:      -6.9      1.411      1.877
REMARK  Name = 
REMARK  8 active torsions:
REMARK  status: ('A' for Active; 'I' for Inactive)
REMARK    1  A    between atoms: C_1  and  C_2
REMARK    2  A    between atoms: C_2  and  C_3
REMARK    3  A    between atoms: C_3  and  S_4
REMARK    4  A    between atoms: S_4  and  C_5
REMARK    5  A    between atoms: C_5  and  C_6
REMARK    6  A    between atoms: C_12  and  C_13
REMARK    7  A    between atoms: N_17  and  C_18
REMARK    8  A    between atoms: C_18  and  C_19
REMARK                            x       y       z     vdW  Elec       q    Type
REMARK                         _______ _______ _______ _____ _____    ______ ____
ROOT
ATOM      1  C   UNL     1       6.562   4.958  15.336  0.00  0.00    +0.000 C 
ATOM      2  O   UNL     1       7.788   5.012  15.196  0.00  0.00    +0.000 OA
ATOM      3  N   UNL     1       5.940   5.409  16.492  0.00  0.00    +0.000 N 
ATOM      4  C   UNL     1       6.727   6.103  17.505  0.00  0.00    +0.000 C 
ATOM      5  C   UNL     1       6.733   5.316  18.812  0.00  0.00    +0.000 C 
ATOM      6  C   UNL     1       5.309   4.988  19.272  0.00  0.00    +0.000 C 
ATOM      7  C   UNL     1       4.517   4.283  18.157  0.00  0.00    +0.000 C 
ATOM      8  C   UNL     1       4.547   5.140  16.877  0.00  0.00    +0.000 C 
ENDROOT
BRANCH   7   9
ATOM      9  C   UNL     1       3.110   4.003  18.594  0.00  0.00    +0.000 A 
ATOM     10  N   UNL     1       2.354   3.039  18.104  0.00  0.00    +0.000 NA
ATOM     11  C   UNL     1       1.152   3.127  18.749  0.00  0.00    +0.000 A 
ATOM     12  C   UNL     1       1.160   4.171  19.639  0.00  0.00    +0.000 A 
ATOM     13  N   UNL     1       2.415   4.719  19.548  0.00  0.00    +0.000 N 
BRANCH  13  14
ATOM     14  C   UNL     1       2.854   5.896  20.286  0.00  0.00    +0.000 C 
BRANCH  14  15
ATOM     15  C   UNL     1       2.236   7.161  19.747  0.00  0.00    +0.000 A 
ATOM     16  C   UNL     1       2.338   7.495  18.392  0.00  0.00    +0.000 A 
ATOM     17  C   UNL     1       1.776   8.682  17.951  0.00  0.00    +0.000 A 
ATOM     18  N   UNL     1       1.118   9.544  18.752  0.00  0.00    +0.000 NA
ATOM     19  C   UNL     1       1.018   9.206  20.054  0.00  0.00    +0.000 A 
ATOM     20  C   UNL     1       1.550   8.043  20.591  0.00  0.00    +0.000 A 
ENDBRANCH  14  15
ENDBRANCH  13  14
ENDBRANCH   7   9
BRANCH   1  21
ATOM     21  C   UNL     1       5.713   4.394  14.206  0.00  0.00    +0.000 C 
BRANCH  21  22
ATOM     22  S   UNL     1       6.675   4.113  12.683  0.00  0.00    +0.000 S 
BRANCH  22  23
ATOM     23  C   UNL     1       5.473   3.135  11.721  0.00  0.00    +0.000 C 
BRANCH  23  25
ATOM     24  C   UNL     1       6.987   1.420  10.659  0.00  0.00    +0.000 C 
ATOM     25  C   UNL     1       5.922   1.674  11.715  0.00  0.00    +0.000 C 
ENDBRANCH  23  25
ENDBRANCH  22  23
ENDBRANCH  21  22
ENDBRANCH   1  21
TORSDOF 7
ENDMDL
MODEL 5
REMARK VINA RESULT:      -6.8      2.932      5.310
REMARK  Name = 
REMARK  8 active torsions:
REMARK  status: ('A' for Active; 'I' for Inactive)
REMARK    1  A    between atoms: C_1  and  C_2
REMARK    2  A    between atoms: C_2  and  C_3
REMARK    3  A    between atoms: C_3  and  S_4
REMARK    4  A    between atoms: S_4  and  C_5
REMARK    5  A    between atoms: C_5  and  C_6
REMARK    6  A    between atoms: C_12  and  C_13
REMARK    7  A    between atoms: N_17  and  C_18
REMARK    8  A    between atoms: C_18  and  C_19
REMARK                            x       y       z     vdW  Elec       q    Type
REMARK                         _______ _______ _______ _____ _____    ______ ____
ROOT
ATOM      1  C   UNL     1       5.381   4.504  16.636  0.00  0.00    +0.000 C 
ATOM      2  O   UNL     1       5.495   3.810  15.621  0.00  0.00    +0.000 OA
ATOM      3  N   UNL     1       4.371   4.279  17.562  0.00  0.00    +0.000 N 
ATOM      4  C   UNL     1       3.515   3.106  17.418  0.00  0.00    +0.000 C 
ATOM      5  C   UNL     1       2.067   3.524  17.185  0.00  0.00    +0.000 C 
ATOM      6  C   UNL     1       1.585   4.496  18.267  0.00  0.00    +0.000 C 
ATOM      7  C   UNL     1       2.537   5.697  18.393  0.00  0.00    +0.000 C 
ATOM      8  C   UNL     1       3.973   5.197  18.639  0.00  0.00    +0.000 C 
ENDROOT
BRANCH   7   9
ATOM      9  C   UNL     1       2.088   6.625  19.483  0.00  0.00    +0.000 A 
ATOM     10  N   UNL     1       1.833   6.253  20.723  0.00  0.00    +0.000 NA
ATOM     11  C   UNL     1       1.443   7.380  21.391  0.00  0.00    +0.000 A 
ATOM     12  C   UNL     1       1.440   8.461  20.547  0.00  0.00    +0.000 A 
ATOM     13  N   UNL     1       1.866   7.979  19.334  0.00  0.00    +0.000 N 
BRANCH  13  14
ATOM     14  C   UNL     1       1.966   8.779  18.120  0.00  0.00    +0.000 C 
BRANCH  14  15
ATOM     15  C   UNL     1       1.253  10.101  18.256  0.00  0.00    +0.000 A 
ATOM     16  C   UNL     1       1.967  11.295  18.396  0.00  0.00    +0.000 A 
ATOM     17  C   UNL     1       1.265  12.481  18.545  0.00  0.00    +0.000 A 
ATOM     18  N   UNL     1      -0.081  12.560  18.552  0.00  0.00    +0.000 NA
ATOM     19  C   UNL     1      -0.757  11.402  18.406  0.00  0.00    +0.000 A 
ATOM     20  C   UNL     1      -0.145  10.166  18.256  0.00  0.00    +0.000 A 
ENDBRANCH  14  15
ENDBRANCH  13  14
ENDBRANCH   7   9
BRANCH   1  21
ATOM     21  C   UNL     1       6.380   5.624  16.884  0.00  0.00    +0.000 C 
BRANCH  21  22
ATOM     22  S   UNL     1       7.620   5.188  18.147  0.00  0.00    +0.000 S 
BRANCH  22  23
ATOM     23  C   UNL     1       8.119   6.855  18.695  0.00  0.00    +0.000 C 
BRANCH  23  25
ATOM     24  C   UNL     1       8.218   9.263  17.954  0.00  0.00    +0.000 C 
ATOM     25  C   UNL     1       7.729   7.863  17.615  0.00  0.00    +0.000 C 
ENDBRANCH  23  25
ENDBRANCH  22  23
ENDBRANCH  21  22
ENDBRANCH   1  21
TORSDOF 7
ENDMDL
MODEL 6
REMARK VINA RESULT:      -6.6      3.336      6.812
REMARK  Name = 
REMARK  8 active torsions:
REMARK  status: ('A' for Active; 'I' for Inactive)
REMARK    1  A    between atoms: C_1  and  C_2
REMARK    2  A    between atoms: C_2  and  C_3
REMARK    3  A    between atoms: C_3  and  S_4
REMARK    4  A    between atoms: S_4  and  C_5
REMARK    5  A    between atoms: C_5  and  C_6
REMARK    6  A    between atoms: C_12  and  C_13
REMARK    7  A    between atoms: N_17  and  C_18
REMARK    8  A    between atoms: C_18  and  C_19
REMARK                            x       y       z     vdW  Elec       q    Type
REMARK                         _______ _______ _______ _____ _____    ______ ____
ROOT
ATOM      1  C   UNL     1       1.802   5.450  20.627  0.00  0.00    +0.000 C 
ATOM      2  O   UNL     1       0.616   5.794  20.628  0.00  0.00    +0.000 OA
ATOM      3  N   UNL     1       2.773   6.186  19.961  0.00  0.00    +0.000 N 
ATOM      4  C   UNL     1       2.420   7.476  19.377  0.00  0.00    +0.000 C 
ATOM      5  C   UNL     1       2.593   7.444  17.862  0.00  0.00    +0.000 C 
ATOM      6  C   UNL     1       3.995   6.966  17.470  0.00  0.00    +0.000 C 
ATOM      7  C   UNL     1       4.324   5.618  18.135  0.00  0.00    +0.000 C 
ATOM      8  C   UNL     1       4.138   5.732  19.660  0.00  0.00    +0.000 C 
ENDROOT
BRANCH   7   9
ATOM      9  C   UNL     1       5.714   5.173  17.786  0.00  0.00    +0.000 A 
ATOM     10  N   UNL     1       6.771   5.352  18.555  0.00  0.00    +0.000 NA
ATOM     11  C   UNL     1       7.834   4.823  17.878  0.00  0.00    +0.000 A 
ATOM     12  C   UNL     1       7.430   4.324  16.665  0.00  0.00    +0.000 A 
ATOM     13  N   UNL     1       6.075   4.536  16.616  0.00  0.00    +0.000 N 
BRANCH  13  14
ATOM     14  C   UNL     1       5.232   4.206  15.474  0.00  0.00    +0.000 C 
BRANCH  14  15
ATOM     15  C   UNL     1       5.997   4.256  14.176  0.00  0.00    +0.000 A 
ATOM     16  C   UNL     1       5.680   3.400  13.116  0.00  0.00    +0.000 A 
ATOM     17  C   UNL     1       6.431   3.467  11.954  0.00  0.00    +0.000 A 
ATOM     18  N   UNL     1       7.456   4.323  11.770  0.00  0.00    +0.000 NA
ATOM     19  C   UNL     1       7.745   5.150  12.796  0.00  0.00    +0.000 A 
ATOM     20  C   UNL     1       7.055   5.156  13.999  0.00  0.00    +0.000 A 
ENDBRANCH  14  15
ENDBRANCH  13  14
ENDBRANCH   7   9
BRANCH   1  21
ATOM     21  C   UNL     1       2.210   4.196  21.384  0.00  0.00    +0.000 C 
BRANCH  21  22
ATOM     22  S   UNL     1       1.110   2.783  21.038  0.00  0.00    +0.000 S 
BRANCH  22  23
ATOM     23  C   UNL     1       1.990   2.029  19.629  0.00  0.00    +0.000 C 
BRANCH  23  25
ATOM     24  C   UNL     1       2.676   2.553  17.259  0.00  0.00    +0.000 C 
ATOM     25  C   UNL     1       1.669   2.827  18.365  0.00  0.00    +0.000 C 
ENDBRANCH  23  25
ENDBRANCH  22  23
ENDBRANCH  21  22
ENDBRANCH   1  21
TORSDOF 7
ENDMDL
MODEL 7
REMARK VINA RESULT:      -6.4      2.515      4.867
REMARK  Name = 
REMARK  8 active torsions:
REMARK  status: ('A' for Active; 'I' for Inactive)
REMARK    1  A    between atoms: C_1  and  C_2
REMARK    2  A    between atoms: C_2  and  C_3
REMARK    3  A    between atoms: C_3  and  S_4
REMARK    4  A    between atoms: S_4  and  C_5
REMARK    5  A    between atoms: C_5  and  C_6
REMARK    6  A    between atoms: C_12  and  C_13
REMARK    7  A    between atoms: N_17  and  C_18
REMARK    8  A    between atoms: C_18  and  C_19
REMARK                            x       y       z     vdW  Elec       q    Type
REMARK                         _______ _______ _______ _____ _____    ______ ____
ROOT
ATOM      1  C   UNL     1       7.468   6.253  16.900  0.00  0.00    +0.000 C 
ATOM      2  O   UNL     1       7.714   6.769  15.805  0.00  0.00    +0.000 OA
ATOM      3  N   UNL     1       6.968   4.961  17.000  0.00  0.00    +0.000 N 
ATOM      4  C   UNL     1       6.873   4.135  15.801  0.00  0.00    +0.000 C 
ATOM      5  C   UNL     1       5.418   3.782  15.507  0.00  0.00    +0.000 C 
ATOM      6  C   UNL     1       4.737   3.157  16.729  0.00  0.00    +0.000 C 
ATOM      7  C   UNL     1       4.892   4.056  17.967  0.00  0.00    +0.000 C 
ATOM      8  C   UNL     1       6.384   4.358  18.206  0.00  0.00    +0.000 C 
ENDROOT
BRANCH   7   9
ATOM      9  C   UNL     1       4.263   3.422  19.173  0.00  0.00    +0.000 A 
ATOM     10  N   UNL     1       4.901   2.643  20.025  0.00  0.00    +0.000 NA
ATOM     11  C   UNL     1       3.981   2.264  20.962  0.00  0.00    +0.000 A 
ATOM     12  C   UNL     1       2.753   2.803  20.675  0.00  0.00    +0.000 A 
ATOM     13  N   UNL     1       2.939   3.553  19.541  0.00  0.00    +0.000 N 
BRANCH  13  14
ATOM     14  C   UNL     1       1.878   4.269  18.845  0.00  0.00    +0.000 C 
BRANCH  14  15
ATOM     15  C   UNL     1       1.902   5.746  19.148  0.00  0.00    +0.000 A 
ATOM     16  C   UNL     1       2.259   6.678  18.168  0.00  0.00    +0.000 A 
ATOM     17  C   UNL     1       2.292   8.023  18.505  0.00  0.00    +0.000 A 
ATOM     18  N   UNL     1       1.987   8.498  19.729  0.00  0.00    +0.000 NA
ATOM     19  C   UNL     1       1.634   7.588  20.661  0.00  0.00    +0.000 A 
ATOM     20  C   UNL     1       1.576   6.223  20.423  0.00  0.00    +0.000 A 
ENDBRANCH  14  15
ENDBRANCH  13  14
ENDBRANCH   7   9
BRANCH   1  21
ATOM     21  C   UNL     1       7.730   7.049  18.169  0.00  0.00    +0.000 C 
BRANCH  21  22
ATOM     22  S   UNL     1       7.788   8.846  17.867  0.00  0.00    +0.000 S 
BRANCH  22  23
ATOM     23  C   UNL     1       9.054   9.335  19.086  0.00  0.00    +0.000 C 
BRANCH  23  25
ATOM     24  C   UNL     1      10.640  11.276  19.366  0.00  0.00    +0.000 C 
ATOM     25  C   UNL     1       9.214  10.854  19.044  0.00  0.00    +0.000 C 
ENDBRANCH  23  25
ENDBRANCH  22  23
ENDBRANCH  21  22
ENDBRANCH   1  21
TORSDOF 7
ENDMDL
MODEL 8
REMARK VINA RESULT:      -6.4      2.494      4.846
REMARK  Name = 
REMARK  8 active torsions:
REMARK  status: ('A' for Active; 'I' for Inactive)
REMARK    1  A    between atoms: C_1  and  C_2
REMARK    2  A    between atoms: C_2  and  C_3
REMARK    3  A    between atoms: C_3  and  S_4
REMARK    4  A    between atoms: S_4  and  C_5
REMARK    5  A    between atoms: C_5  and  C_6
REMARK    6  A    between atoms: C_12  and  C_13
REMARK    7  A    between atoms: N_17  and  C_18
REMARK    8  A    between atoms: C_18  and  C_19
REMARK                            x       y       z     vdW  Elec       q    Type
REMARK                         _______ _______ _______ _____ _____    ______ ____
ROOT
ATOM      1  C   UNL     1       7.520   6.439  16.986  0.00  0.00    +0.000 C 
ATOM      2  O   UNL     1       7.802   6.958  15.901  0.00  0.00    +0.000 OA
ATOM      3  N   UNL     1       7.048   5.136  17.068  0.00  0.00    +0.000 N 
ATOM      4  C   UNL     1       7.026   4.304  15.870  0.00  0.00    +0.000 C 
ATOM      5  C   UNL     1       5.595   3.915  15.512  0.00  0.00    +0.000 C 
ATOM      6  C   UNL     1       4.876   3.277  16.705  0.00  0.00    +0.000 C 
ATOM      7  C   UNL     1       4.954   4.182  17.946  0.00  0.00    +0.000 C 
ATOM      8  C   UNL     1       6.425   4.522  18.250  0.00  0.00    +0.000 C 
ENDROOT
BRANCH   7   9
ATOM      9  C   UNL     1       4.288   3.536  19.125  0.00  0.00    +0.000 A 
ATOM     10  N   UNL     1       4.896   2.740  19.983  0.00  0.00    +0.000 NA
ATOM     11  C   UNL     1       3.948   2.355  20.889  0.00  0.00    +0.000 A 
ATOM     12  C   UNL     1       2.732   2.907  20.577  0.00  0.00    +0.000 A 
ATOM     13  N   UNL     1       2.955   3.672  19.459  0.00  0.00    +0.000 N 
BRANCH  13  14
ATOM     14  C   UNL     1       1.918   4.405  18.744  0.00  0.00    +0.000 C 
BRANCH  14  15
ATOM     15  C   UNL     1       1.946   5.878  19.066  0.00  0.00    +0.000 A 
ATOM     16  C   UNL     1       1.642   6.342  20.350  0.00  0.00    +0.000 A 
ATOM     17  C   UNL     1       1.655   7.708  20.588  0.00  0.00    +0.000 A 
ATOM     18  N   UNL     1       1.958   8.630  19.653  0.00  0.00    +0.000 NA
ATOM     19  C   UNL     1       2.259   8.168  18.421  0.00  0.00    +0.000 A 
ATOM     20  C   UNL     1       2.268   6.822  18.084  0.00  0.00    +0.000 A 
ENDBRANCH  14  15
ENDBRANCH  13  14
ENDBRANCH   7   9
BRANCH   1  21
ATOM     21  C   UNL     1       7.707   7.244  18.263  0.00  0.00    +0.000 C 
BRANCH  21  22
ATOM     22  S   UNL     1       7.988   9.015  17.936  0.00  0.00    +0.000 S 
BRANCH  22  23
ATOM     23  C   UNL     1       9.134   9.414  19.299  0.00  0.00    +0.000 C 
BRANCH  23  25
ATOM     24  C   UNL     1       8.934  11.538  17.954  0.00  0.00    +0.000 C 
ATOM     25  C   UNL     1       9.527  10.887  19.194  0.00  0.00    +0.000 C 
ENDBRANCH  23  25
ENDBRANCH  22  23
ENDBRANCH  21  22
ENDBRANCH   1  21
TORSDOF 7
ENDMDL
MODEL 9
REMARK VINA RESULT:      -6.4      3.158      5.828
REMARK  Name = 
REMARK  8 active torsions:
REMARK  status: ('A' for Active; 'I' for Inactive)
REMARK    1  A    between atoms: C_1  and  C_2
REMARK    2  A    between atoms: C_2  and  C_3
REMARK    3  A    between atoms: C_3  and  S_4
REMARK    4  A    between atoms: S_4  and  C_5
REMARK    5  A    between atoms: C_5  and  C_6
REMARK    6  A    between atoms: C_12  and  C_13
REMARK    7  A    between atoms: N_17  and  C_18
REMARK    8  A    between atoms: C_18  and  C_19
REMARK                            x       y       z     vdW  Elec       q    Type
REMARK                         _______ _______ _______ _____ _____    ______ ____
ROOT
ATOM      1  C   UNL     1       3.987   4.992  17.518  0.00  0.00    +0.000 C 
ATOM      2  O   UNL     1       3.929   3.914  16.919  0.00  0.00    +0.000 OA
ATOM      3  N   UNL     1       3.513   5.131  18.815  0.00  0.00    +0.000 N 
ATOM      4  C   UNL     1       3.074   3.948  19.548  0.00  0.00    +0.000 C 
ATOM      5  C   UNL     1       1.589   4.044  19.883  0.00  0.00    +0.000 C 
ATOM      6  C   UNL     1       1.263   5.358  20.603  0.00  0.00    +0.000 C 
ATOM      7  C   UNL     1       1.772   6.567  19.800  0.00  0.00    +0.000 C 
ATOM      8  C   UNL     1       3.276   6.404  19.511  0.00  0.00    +0.000 C 
ENDROOT
BRANCH   7   9
ATOM      9  C   UNL     1       1.491   7.849  20.527  0.00  0.00    +0.000 A 
ATOM     10  N   UNL     1       1.443   7.969  21.840  0.00  0.00    +0.000 NA
ATOM     11  C   UNL     1       1.151   9.279  22.097  0.00  0.00    +0.000 A 
ATOM     12  C   UNL     1       0.999   9.976  20.925  0.00  0.00    +0.000 A 
ATOM     13  N   UNL     1       1.232   9.065  19.925  0.00  0.00    +0.000 N 
BRANCH  13  14
ATOM     14  C   UNL     1       1.125   9.360  18.502  0.00  0.00    +0.000 C 
BRANCH  14  15
ATOM     15  C   UNL     1      -0.101  10.178  18.187  0.00  0.00    +0.000 A 
ATOM     16  C   UNL     1      -1.193   9.614  17.520  0.00  0.00    +0.000 A 
ATOM     17  C   UNL     1      -2.286  10.415  17.229  0.00  0.00    +0.000 A 
ATOM     18  N   UNL     1      -2.371  11.719  17.562  0.00  0.00    +0.000 NA
ATOM     19  C   UNL     1      -1.315  12.248  18.214  0.00  0.00    +0.000 A 
ATOM     20  C   UNL     1      -0.175  11.529  18.545  0.00  0.00    +0.000 A 
ENDBRANCH  14  15
ENDBRANCH  13  14
ENDBRANCH   7   9
BRANCH   1  21
ATOM     21  C   UNL     1       4.606   6.194  16.820  0.00  0.00    +0.000 C 
BRANCH  21  22
ATOM     22  S   UNL     1       6.161   5.780  15.964  0.00  0.00    +0.000 S 
BRANCH  22  23
ATOM     23  C   UNL     1       7.149   5.170  17.371  0.00  0.00    +0.000 C 
BRANCH  23  25
ATOM     24  C   UNL     1       7.737   7.616  17.539  0.00  0.00    +0.000 C 
ATOM     25  C   UNL     1       7.439   6.340  18.310  0.00  0.00    +0.000 C 
ENDBRANCH  23  25
ENDBRANCH  22  23
ENDBRANCH  21  22
ENDBRANCH   1  21
TORSDOF 7
ENDMDL
