MODEL 1
REMARK VINA RESULT:      -8.1      0.000      0.000
REMARK  Name = 
REMARK  11 active torsions:
REMARK  status: ('A' for Active; 'I' for Inactive)
REMARK    1  A    between atoms: C_2  and  C_3
REMARK    2  A    between atoms: C_3  and  O_4
REMARK    3  A    between atoms: O_4  and  C_5
REMARK    4  A    between atoms: C_5  and  C_7
REMARK    5  A    between atoms: C_7  and  C_8
REMARK    6  A    between atoms: C_8  and  C_9
REMARK    7  A    between atoms: C_12  and  S_13
REMARK    8  A    between atoms: S_13  and  N_16
REMARK    9  A    between atoms: N_24  and  C_25
REMARK   10  A    between atoms: C_30  and  O_31
REMARK   11  A    between atoms: O_31  and  C_32
REMARK                            x       y       z     vdW  Elec       q    Type
REMARK                         _______ _______ _______ _____ _____    ______ ____
ROOT
ATOM      1  C   UNL     1       7.635   7.341  17.865  0.00  0.00    +0.000 C 
ATOM      2  O   UNL     1       8.005   6.551  18.724  0.00  0.00    +0.000 OA
ENDROOT
BRANCH   1   3
ATOM      3  O   UNL     1       6.916   7.007  16.763  0.00  0.00    +0.000 OA
BRANCH   3   4
ATOM      4  C   UNL     1       7.079   5.659  16.324  0.00  0.00    +0.000 C 
BRANCH   4   6
ATOM      5  O   UNL     1       5.185   4.706  15.195  0.00  0.00    +0.000 OA
ATOM      6  C   UNL     1       5.688   5.037  16.267  0.00  0.00    +0.000 C 
ATOM      7  N   UNL     1       5.107   4.860  17.509  0.00  0.00    +0.000 N 
ATOM      8  H   UNL     1       5.515   5.363  18.288  0.00  0.00    +0.000 HD
BRANCH   7   9
ATOM      9  C   UNL     1       3.875   4.215  17.723  0.00  0.00    +0.000 A 
ATOM     10  C   UNL     1       3.867   2.809  17.800  0.00  0.00    +0.000 A 
ATOM     11  C   UNL     1       2.696   2.107  18.086  0.00  0.00    +0.000 A 
ATOM     12  C   UNL     1       1.506   2.798  18.262  0.00  0.00    +0.000 A 
ATOM     13  C   UNL     1       1.497   4.189  18.165  0.00  0.00    +0.000 A 
ATOM     14  C   UNL     1       2.676   4.920  17.924  0.00  0.00    +0.000 A 
BRANCH  14  15
ATOM     15  O   UNL     1       2.421   6.258  17.823  0.00  0.00    +0.000 OA
BRANCH  15  16
ATOM     16  C   UNL     1       2.695   7.150  18.884  0.00  0.00    +0.000 C 
ATOM     17  F   UNL     1       1.732   8.099  18.959  0.00  0.00    +0.000 F 
ATOM     18  F   UNL     1       2.700   6.484  20.064  0.00  0.00    +0.000 F 
ENDBRANCH  15  16
ENDBRANCH  14  15
ENDBRANCH   7   9
ENDBRANCH   4   6
ENDBRANCH   3   4
ENDBRANCH   1   3
BRANCH   1  19
ATOM     19  C   UNL     1       8.038   8.797  17.817  0.00  0.00    +0.000 C 
BRANCH  19  20
ATOM     20  C   UNL     1       8.950   9.163  18.983  0.00  0.00    +0.000 C 
BRANCH  20  21
ATOM     21  C   UNL     1       9.405  10.603  19.101  0.00  0.00    +0.000 A 
ATOM     22  C   UNL     1       9.521  11.303  20.310  0.00  0.00    +0.000 A 
ATOM     23  C   UNL     1       9.875  12.660  20.316  0.00  0.00    +0.000 A 
ATOM     24  C   UNL     1      10.118  13.324  19.108  0.00  0.00    +0.000 A 
ATOM     25  C   UNL     1      10.049  12.634  17.900  0.00  0.00    +0.000 A 
ATOM     26  C   UNL     1       9.695  11.283  17.904  0.00  0.00    +0.000 A 
BRANCH  24  27
ATOM     27  S   UNL     1      10.364  15.089  19.081  0.00  0.00    +0.000 S 
ATOM     28  O   UNL     1      11.601  15.346  19.795  0.00  0.00    +0.000 OA
ATOM     29  O   UNL     1      10.195  15.546  17.720  0.00  0.00    +0.000 OA
BRANCH  27  30
ATOM     30  N   UNL     1       9.087  15.717  20.012  0.00  0.00    +0.000 NA
ATOM     31  C   UNL     1       7.732  15.762  19.382  0.00  0.00    +0.000 C 
ATOM     32  C   UNL     1       7.576  16.980  18.465  0.00  0.00    +0.000 C 
ATOM     33  O   UNL     1       7.791  18.193  19.199  0.00  0.00    +0.000 OA
ATOM     34  C   UNL     1       9.118  18.226  19.745  0.00  0.00    +0.000 C 
ATOM     35  C   UNL     1       9.382  17.035  20.674  0.00  0.00    +0.000 C 
ENDBRANCH  27  30
ENDBRANCH  24  27
ENDBRANCH  20  21
ENDBRANCH  19  20
ENDBRANCH   1  19
TORSDOF 11
ENDMDL
MODEL 2
REMARK VINA RESULT:      -8.0      5.524      7.469
REMARK  Name = 
REMARK  11 active torsions:
REMARK  status: ('A' for Active; 'I' for Inactive)
REMARK    1  A    between atoms: C_2  and  C_3
REMARK    2  A    between atoms: C_3  and  O_4
REMARK    3  A    between atoms: O_4  and  C_5
REMARK    4  A    between atoms: C_5  and  C_7
REMARK    5  A    between atoms: C_7  and  C_8
REMARK    6  A    between atoms: C_8  and  C_9
REMARK    7  A    between atoms: C_12  and  S_13
REMARK    8  A    between atoms: S_13  and  N_16
REMARK    9  A    between atoms: N_24  and  C_25
REMARK   10  A    between atoms: C_30  and  O_31
REMARK   11  A    between atoms: O_31  and  C_32
REMARK                            x       y       z     vdW  Elec       q    Type
REMARK                         _______ _______ _______ _____ _____    ______ ____
ROOT
ATOM      1  C   UNL     1       1.399   3.955  18.665  0.00  0.00    +0.000 C 
ATOM      2  O   UNL     1       1.163   4.404  17.551  0.00  0.00    +0.000 OA
ENDROOT
BRANCH   1   3
ATOM      3  O   UNL     1       1.589   2.641  18.947  0.00  0.00    +0.000 OA
BRANCH   3   4
ATOM      4  C   UNL     1       2.866   2.322  19.497  0.00  0.00    +0.000 C 
BRANCH   4   6
ATOM      5  O   UNL     1       4.151   1.401  17.688  0.00  0.00    +0.000 OA
ATOM      6  C   UNL     1       3.875   2.396  18.356  0.00  0.00    +0.000 C 
ATOM      7  N   UNL     1       4.384   3.664  18.146  0.00  0.00    +0.000 N 
ATOM      8  H   UNL     1       4.252   4.345  18.885  0.00  0.00    +0.000 HD
BRANCH   7   9
ATOM      9  C   UNL     1       5.251   4.006  17.091  0.00  0.00    +0.000 A 
ATOM     10  C   UNL     1       4.735   3.999  15.781  0.00  0.00    +0.000 A 
ATOM     11  C   UNL     1       5.513   4.400  14.695  0.00  0.00    +0.000 A 
ATOM     12  C   UNL     1       6.832   4.778  14.899  0.00  0.00    +0.000 A 
ATOM     13  C   UNL     1       7.361   4.766  16.189  0.00  0.00    +0.000 A 
ATOM     14  C   UNL     1       6.579   4.411  17.303  0.00  0.00    +0.000 A 
BRANCH  14  15
ATOM     15  O   UNL     1       7.315   4.426  18.455  0.00  0.00    +0.000 OA
BRANCH  15  16
ATOM     16  C   UNL     1       7.300   5.532  19.333  0.00  0.00    +0.000 C 
ATOM     17  F   UNL     1       8.331   6.365  19.056  0.00  0.00    +0.000 F 
ATOM     18  F   UNL     1       6.154   6.239  19.175  0.00  0.00    +0.000 F 
ENDBRANCH  15  16
ENDBRANCH  14  15
ENDBRANCH   7   9
ENDBRANCH   4   6
ENDBRANCH   3   4
ENDBRANCH   1   3
BRANCH   1  19
ATOM     19  C   UNL     1       1.374   4.774  19.935  0.00  0.00    +0.000 C 
BRANCH  19  20
ATOM     20  C   UNL     1       2.392   5.908  19.888  0.00  0.00    +0.000 C 
BRANCH  20  21
ATOM     21  C   UNL     1       1.868   7.330  19.881  0.00  0.00    +0.000 A 
ATOM     22  C   UNL     1       1.922   8.191  18.777  0.00  0.00    +0.000 A 
ATOM     23  C   UNL     1       1.483   9.518  18.887  0.00  0.00    +0.000 A 
ATOM     24  C   UNL     1       0.985   9.991  20.107  0.00  0.00    +0.000 A 
ATOM     25  C   UNL     1       0.886   9.138  21.203  0.00  0.00    +0.000 A 
ATOM     26  C   UNL     1       1.326   7.818  21.084  0.00  0.00    +0.000 A 
BRANCH  24  27
ATOM     27  S   UNL     1       0.619  11.722  20.323  0.00  0.00    +0.000 S 
ATOM     28  O   UNL     1      -0.789  11.809  20.663  0.00  0.00    +0.000 OA
ATOM     29  O   UNL     1       1.622  12.286  21.199  0.00  0.00    +0.000 OA
BRANCH  27  30
ATOM     30  N   UNL     1       0.824  12.403  18.778  0.00  0.00    +0.000 NA
ATOM     31  C   UNL     1       2.143  13.036  18.473  0.00  0.00    +0.000 C 
ATOM     32  C   UNL     1       2.233  14.456  19.039  0.00  0.00    +0.000 C 
ATOM     33  O   UNL     1       1.185  15.278  18.505  0.00  0.00    +0.000 OA
ATOM     34  C   UNL     1      -0.102  14.749  18.856  0.00  0.00    +0.000 C 
ATOM     35  C   UNL     1      -0.289  13.316  18.343  0.00  0.00    +0.000 C 
ENDBRANCH  27  30
ENDBRANCH  24  27
ENDBRANCH  20  21
ENDBRANCH  19  20
ENDBRANCH   1  19
TORSDOF 11
ENDMDL
MODEL 3
REMARK VINA RESULT:      -8.0      6.174      8.096
REMARK  Name = 
REMARK  11 active torsions:
REMARK  status: ('A' for Active; 'I' for Inactive)
REMARK    1  A    between atoms: C_2  and  C_3
REMARK    2  A    between atoms: C_3  and  O_4
REMARK    3  A    between atoms: O_4  and  C_5
REMARK    4  A    between atoms: C_5  and  C_7
REMARK    5  A    between atoms: C_7  and  C_8
REMARK    6  A    between atoms: C_8  and  C_9
REMARK    7  A    between atoms: C_12  and  S_13
REMARK    8  A    between atoms: S_13  and  N_16
REMARK    9  A    between atoms: N_24  and  C_25
REMARK   10  A    between atoms: C_30  and  O_31
REMARK   11  A    between atoms: O_31  and  C_32
REMARK                            x       y       z     vdW  Elec       q    Type
REMARK                         _______ _______ _______ _____ _____    ______ ____
ROOT
ATOM      1  C   UNL     1       2.205   3.333  20.238  0.00  0.00    +0.000 C 
ATOM      2  O   UNL     1       3.118   2.993  20.980  0.00  0.00    +0.000 OA
ENDROOT
BRANCH   1   3
ATOM      3  O   UNL     1       1.750   2.604  19.188  0.00  0.00    +0.000 OA
BRANCH   3   4
ATOM      4  C   UNL     1       2.765   1.994  18.392  0.00  0.00    +0.000 C 
BRANCH   4   6
ATOM      5  O   UNL     1       2.970   3.785  16.805  0.00  0.00    +0.000 OA
ATOM      6  C   UNL     1       3.513   3.118  17.684  0.00  0.00    +0.000 C 
ATOM      7  N   UNL     1       4.797   3.314  18.155  0.00  0.00    +0.000 N 
ATOM      8  H   UNL     1       5.204   2.575  18.716  0.00  0.00    +0.000 HD
BRANCH   7   9
ATOM      9  C   UNL     1       5.647   4.353  17.732  0.00  0.00    +0.000 A 
ATOM     10  C   UNL     1       5.988   5.352  18.664  0.00  0.00    +0.000 A 
ATOM     11  C   UNL     1       6.884   6.370  18.340  0.00  0.00    +0.000 A 
ATOM     12  C   UNL     1       7.426   6.426  17.064  0.00  0.00    +0.000 A 
ATOM     13  C   UNL     1       7.078   5.456  16.125  0.00  0.00    +0.000 A 
ATOM     14  C   UNL     1       6.213   4.394  16.447  0.00  0.00    +0.000 A 
BRANCH  14  15
ATOM     15  O   UNL     1       5.979   3.595  15.363  0.00  0.00    +0.000 OA
BRANCH  15  16
ATOM     16  C   UNL     1       5.944   4.116  14.050  0.00  0.00    +0.000 C 
ATOM     17  F   UNL     1       6.758   3.399  13.240  0.00  0.00    +0.000 F 
ATOM     18  F   UNL     1       4.689   4.026  13.545  0.00  0.00    +0.000 F 
ENDBRANCH  15  16
ENDBRANCH  14  15
ENDBRANCH   7   9
ENDBRANCH   4   6
ENDBRANCH   3   4
ENDBRANCH   1   3
BRANCH   1  19
ATOM     19  C   UNL     1       1.531   4.684  20.282  0.00  0.00    +0.000 C 
BRANCH  19  20
ATOM     20  C   UNL     1       2.440   5.780  19.734  0.00  0.00    +0.000 C 
BRANCH  20  21
ATOM     21  C   UNL     1       1.953   7.212  19.818  0.00  0.00    +0.000 A 
ATOM     22  C   UNL     1       2.077   8.155  18.788  0.00  0.00    +0.000 A 
ATOM     23  C   UNL     1       1.667   9.481  18.984  0.00  0.00    +0.000 A 
ATOM     24  C   UNL     1       1.128   9.871  20.216  0.00  0.00    +0.000 A 
ATOM     25  C   UNL     1       0.958   8.938  21.236  0.00  0.00    +0.000 A 
ATOM     26  C   UNL     1       1.370   7.619  21.031  0.00  0.00    +0.000 A 
BRANCH  24  27
ATOM     27  S   UNL     1       0.796  11.590  20.553  0.00  0.00    +0.000 S 
ATOM     28  O   UNL     1       0.344  11.663  21.930  0.00  0.00    +0.000 OA
ATOM     29  O   UNL     1       1.938  12.361  20.115  0.00  0.00    +0.000 OA
BRANCH  27  30
ATOM     30  N   UNL     1      -0.521  11.981  19.552  0.00  0.00    +0.000 NA
ATOM     31  C   UNL     1      -0.559  13.355  18.967  0.00  0.00    +0.000 C 
ATOM     32  C   UNL     1      -1.100  14.380  19.968  0.00  0.00    +0.000 C 
ATOM     33  O   UNL     1      -2.421  14.018  20.395  0.00  0.00    +0.000 OA
ATOM     34  C   UNL     1      -2.409  12.738  21.045  0.00  0.00    +0.000 C 
ATOM     35  C   UNL     1      -1.868  11.636  20.125  0.00  0.00    +0.000 C 
ENDBRANCH  27  30
ENDBRANCH  24  27
ENDBRANCH  20  21
ENDBRANCH  19  20
ENDBRANCH   1  19
TORSDOF 11
ENDMDL
MODEL 4
REMARK VINA RESULT:      -7.9      1.311      1.664
REMARK  Name = 
REMARK  11 active torsions:
REMARK  status: ('A' for Active; 'I' for Inactive)
REMARK    1  A    between atoms: C_2  and  C_3
REMARK    2  A    between atoms: C_3  and  O_4
REMARK    3  A    between atoms: O_4  and  C_5
REMARK    4  A    between atoms: C_5  and  C_7
REMARK    5  A    between atoms: C_7  and  C_8
REMARK    6  A    between atoms: C_8  and  C_9
REMARK    7  A    between atoms: C_12  and  S_13
REMARK    8  A    between atoms: S_13  and  N_16
REMARK    9  A    between atoms: N_24  and  C_25
REMARK   10  A    between atoms: C_30  and  O_31
REMARK   11  A    between atoms: O_31  and  C_32
REMARK                            x       y       z     vdW  Elec       q    Type
REMARK                         _______ _______ _______ _____ _____    ______ ____
ROOT
ATOM      1  C   UNL     1       7.607   7.463  17.914  0.00  0.00    +0.000 C 
ATOM      2  O   UNL     1       8.142   6.676  18.684  0.00  0.00    +0.000 OA
ENDROOT
BRANCH   1   3
ATOM      3  O   UNL     1       6.673   7.127  16.989  0.00  0.00    +0.000 OA
BRANCH   3   4
ATOM      4  C   UNL     1       6.730   5.775  16.538  0.00  0.00    +0.000 C 
BRANCH   4   6
ATOM      5  O   UNL     1       6.155   4.360  18.392  0.00  0.00    +0.000 OA
ATOM      6  C   UNL     1       5.762   4.975  17.403  0.00  0.00    +0.000 C 
ATOM      7  N   UNL     1       4.446   5.056  16.985  0.00  0.00    +0.000 N 
ATOM      8  H   UNL     1       4.278   5.405  16.048  0.00  0.00    +0.000 HD
BRANCH   7   9
ATOM      9  C   UNL     1       3.358   4.490  17.675  0.00  0.00    +0.000 A 
ATOM     10  C   UNL     1       2.950   3.191  17.317  0.00  0.00    +0.000 A 
ATOM     11  C   UNL     1       1.929   2.537  18.007  0.00  0.00    +0.000 A 
ATOM     12  C   UNL     1       1.274   3.189  19.042  0.00  0.00    +0.000 A 
ATOM     13  C   UNL     1       1.654   4.485  19.390  0.00  0.00    +0.000 A 
ATOM     14  C   UNL     1       2.713   5.143  18.738  0.00  0.00    +0.000 A 
BRANCH  14  15
ATOM     15  O   UNL     1       2.876   6.415  19.211  0.00  0.00    +0.000 OA
BRANCH  15  16
ATOM     16  C   UNL     1       2.404   7.540  18.497  0.00  0.00    +0.000 C 
ATOM     17  F   UNL     1       1.958   8.487  19.356  0.00  0.00    +0.000 F 
ATOM     18  F   UNL     1       3.410   8.089  17.773  0.00  0.00    +0.000 F 
ENDBRANCH  15  16
ENDBRANCH  14  15
ENDBRANCH   7   9
ENDBRANCH   4   6
ENDBRANCH   3   4
ENDBRANCH   1   3
BRANCH   1  19
ATOM     19  C   UNL     1       8.003   8.914  17.770  0.00  0.00    +0.000 C 
BRANCH  19  20
ATOM     20  C   UNL     1       9.120   9.288  18.739  0.00  0.00    +0.000 C 
BRANCH  20  21
ATOM     21  C   UNL     1       9.485  10.752  18.868  0.00  0.00    +0.000 A 
ATOM     22  C   UNL     1      10.174  11.489  17.895  0.00  0.00    +0.000 A 
ATOM     23  C   UNL     1      10.538  12.821  18.135  0.00  0.00    +0.000 A 
ATOM     24  C   UNL     1      10.212  13.425  19.355  0.00  0.00    +0.000 A 
ATOM     25  C   UNL     1       9.491  12.722  20.317  0.00  0.00    +0.000 A 
ATOM     26  C   UNL     1       9.133  11.396  20.069  0.00  0.00    +0.000 A 
BRANCH  24  27
ATOM     27  S   UNL     1      10.845  15.042  19.759  0.00  0.00    +0.000 S 
ATOM     28  O   UNL     1      10.866  15.129  21.208  0.00  0.00    +0.000 OA
ATOM     29  O   UNL     1      12.053  15.255  18.994  0.00  0.00    +0.000 OA
BRANCH  27  30
ATOM     30  N   UNL     1       9.662  16.124  19.191  0.00  0.00    +0.000 NA
ATOM     31  C   UNL     1       9.373  16.121  17.725  0.00  0.00    +0.000 C 
ATOM     32  C   UNL     1      10.405  16.941  16.944  0.00  0.00    +0.000 C 
ATOM     33  O   UNL     1      10.430  18.296  17.413  0.00  0.00    +0.000 OA
ATOM     34  C   UNL     1      10.794  18.345  18.801  0.00  0.00    +0.000 C 
ATOM     35  C   UNL     1       9.823  17.539  19.674  0.00  0.00    +0.000 C 
ENDBRANCH  27  30
ENDBRANCH  24  27
ENDBRANCH  20  21
ENDBRANCH  19  20
ENDBRANCH   1  19
TORSDOF 11
ENDMDL
MODEL 5
REMARK VINA RESULT:      -7.9      1.528      1.844
REMARK  Name = 
REMARK  11 active torsions:
REMARK  status: ('A' for Active; 'I' for Inactive)
REMARK    1  A    between atoms: C_2  and  C_3
REMARK    2  A    between atoms: C_3  and  O_4
REMARK    3  A    between atoms: O_4  and  C_5
REMARK    4  A    between atoms: C_5  and  C_7
REMARK    5  A    between atoms: C_7  and  C_8
REMARK    6  A    between atoms: C_8  and  C_9
REMARK    7  A    between atoms: C_12  and  S_13
REMARK    8  A    between atoms: S_13  and  N_16
REMARK    9  A    between atoms: N_24  and  C_25
REMARK   10  A    between atoms: C_30  and  O_31
REMARK   11  A    between atoms: O_31  and  C_32
REMARK                            x       y       z     vdW  Elec       q    Type
REMARK                         _______ _______ _______ _____ _____    ______ ____
ROOT
ATOM      1  C   UNL     1       7.438   6.949  17.353  0.00  0.00    +0.000 C 
ATOM      2  O   UNL     1       6.547   7.213  16.557  0.00  0.00    +0.000 OA
ENDROOT
BRANCH   1   3
ATOM      3  O   UNL     1       7.800   5.695  17.723  0.00  0.00    +0.000 OA
BRANCH   3   4
ATOM      4  C   UNL     1       7.075   4.645  17.084  0.00  0.00    +0.000 C 
BRANCH   4   6
ATOM      5  O   UNL     1       6.097   4.123  19.215  0.00  0.00    +0.000 OA
ATOM      6  C   UNL     1       5.920   4.274  18.008  0.00  0.00    +0.000 C 
ATOM      7  N   UNL     1       4.702   4.174  17.363  0.00  0.00    +0.000 N 
ATOM      8  H   UNL     1       4.717   4.104  16.352  0.00  0.00    +0.000 HD
BRANCH   7   9
ATOM      9  C   UNL     1       3.475   3.944  18.014  0.00  0.00    +0.000 A 
ATOM     10  C   UNL     1       2.855   2.693  17.834  0.00  0.00    +0.000 A 
ATOM     11  C   UNL     1       1.677   2.365  18.506  0.00  0.00    +0.000 A 
ATOM     12  C   UNL     1       1.082   3.299  19.341  0.00  0.00    +0.000 A 
ATOM     13  C   UNL     1       1.675   4.550  19.509  0.00  0.00    +0.000 A 
ATOM     14  C   UNL     1       2.887   4.883  18.877  0.00  0.00    +0.000 A 
BRANCH  14  15
ATOM     15  O   UNL     1       3.254   6.171  19.147  0.00  0.00    +0.000 OA
BRANCH  15  16
ATOM     16  C   UNL     1       2.331   7.239  19.070  0.00  0.00    +0.000 C 
ATOM     17  F   UNL     1       2.192   7.827  20.282  0.00  0.00    +0.000 F 
ATOM     18  F   UNL     1       2.782   8.184  18.210  0.00  0.00    +0.000 F 
ENDBRANCH  15  16
ENDBRANCH  14  15
ENDBRANCH   7   9
ENDBRANCH   4   6
ENDBRANCH   3   4
ENDBRANCH   1   3
BRANCH   1  19
ATOM     19  C   UNL     1       8.188   7.981  18.164  0.00  0.00    +0.000 C 
BRANCH  19  20
ATOM     20  C   UNL     1       7.837   9.399  17.726  0.00  0.00    +0.000 C 
BRANCH  20  21
ATOM     21  C   UNL     1       8.700  10.533  18.240  0.00  0.00    +0.000 A 
ATOM     22  C   UNL     1       9.596  10.427  19.313  0.00  0.00    +0.000 A 
ATOM     23  C   UNL     1      10.296  11.552  19.770  0.00  0.00    +0.000 A 
ATOM     24  C   UNL     1      10.102  12.794  19.153  0.00  0.00    +0.000 A 
ATOM     25  C   UNL     1       9.248  12.909  18.060  0.00  0.00    +0.000 A 
ATOM     26  C   UNL     1       8.555  11.783  17.611  0.00  0.00    +0.000 A 
BRANCH  24  27
ATOM     27  S   UNL     1      10.820  14.270  19.849  0.00  0.00    +0.000 S 
ATOM     28  O   UNL     1      12.241  14.011  19.992  0.00  0.00    +0.000 OA
ATOM     29  O   UNL     1      10.354  15.401  19.079  0.00  0.00    +0.000 OA
BRANCH  27  30
ATOM     30  N   UNL     1      10.152  14.381  21.409  0.00  0.00    +0.000 NA
ATOM     31  C   UNL     1       8.682  14.153  21.547  0.00  0.00    +0.000 C 
ATOM     32  C   UNL     1       7.880  15.407  21.185  0.00  0.00    +0.000 C 
ATOM     33  O   UNL     1       8.263  16.508  22.020  0.00  0.00    +0.000 OA
ATOM     34  C   UNL     1       9.654  16.815  21.847  0.00  0.00    +0.000 C 
ATOM     35  C   UNL     1      10.549  15.613  22.174  0.00  0.00    +0.000 C 
ENDBRANCH  27  30
ENDBRANCH  24  27
ENDBRANCH  20  21
ENDBRANCH  19  20
ENDBRANCH   1  19
TORSDOF 11
ENDMDL
MODEL 6
REMARK VINA RESULT:      -7.8      6.056      7.557
REMARK  Name = 
REMARK  11 active torsions:
REMARK  status: ('A' for Active; 'I' for Inactive)
REMARK    1  A    between atoms: C_2  and  C_3
REMARK    2  A    between atoms: C_3  and  O_4
REMARK    3  A    between atoms: O_4  and  C_5
REMARK    4  A    between atoms: C_5  and  C_7
REMARK    5  A    between atoms: C_7  and  C_8
REMARK    6  A    between atoms: C_8  and  C_9
REMARK    7  A    between atoms: C_12  and  S_13
REMARK    8  A    between atoms: S_13  and  N_16
REMARK    9  A    between atoms: N_24  and  C_25
REMARK   10  A    between atoms: C_30  and  O_31
REMARK   11  A    between atoms: O_31  and  C_32
REMARK                            x       y       z     vdW  Elec       q    Type
REMARK                         _______ _______ _______ _____ _____    ______ ____
ROOT
ATOM      1  C   UNL     1       2.106   3.574  20.455  0.00  0.00    +0.000 C 
ATOM      2  O   UNL     1       2.837   2.872  21.140  0.00  0.00    +0.000 OA
ENDROOT
BRANCH   1   3
ATOM      3  O   UNL     1       1.708   3.278  19.192  0.00  0.00    +0.000 OA
BRANCH   3   4
ATOM      4  C   UNL     1       2.624   2.480  18.443  0.00  0.00    +0.000 C 
BRANCH   4   6
ATOM      5  O   UNL     1       2.932   4.528  17.226  0.00  0.00    +0.000 OA
ATOM      6  C   UNL     1       3.387   3.424  17.520  0.00  0.00    +0.000 C 
ATOM      7  N   UNL     1       4.610   2.930  17.107  0.00  0.00    +0.000 N 
ATOM      8  H   UNL     1       4.776   1.938  17.232  0.00  0.00    +0.000 HD
BRANCH   7   9
ATOM      9  C   UNL     1       5.538   3.654  16.336  0.00  0.00    +0.000 A 
ATOM     10  C   UNL     1       5.404   3.621  14.934  0.00  0.00    +0.000 A 
ATOM     11  C   UNL     1       6.241   4.373  14.110  0.00  0.00    +0.000 A 
ATOM     12  C   UNL     1       7.249   5.142  14.673  0.00  0.00    +0.000 A 
ATOM     13  C   UNL     1       7.406   5.164  16.058  0.00  0.00    +0.000 A 
ATOM     14  C   UNL     1       6.544   4.449  16.910  0.00  0.00    +0.000 A 
BRANCH  14  15
ATOM     15  O   UNL     1       6.914   4.580  18.219  0.00  0.00    +0.000 OA
BRANCH  15  16
ATOM     16  C   UNL     1       6.143   5.324  19.139  0.00  0.00    +0.000 C 
ATOM     17  F   UNL     1       5.335   6.190  18.482  0.00  0.00    +0.000 F 
ATOM     18  F   UNL     1       5.348   4.495  19.860  0.00  0.00    +0.000 F 
ENDBRANCH  15  16
ENDBRANCH  14  15
ENDBRANCH   7   9
ENDBRANCH   4   6
ENDBRANCH   3   4
ENDBRANCH   1   3
BRANCH   1  19
ATOM     19  C   UNL     1       1.640   4.957  20.849  0.00  0.00    +0.000 C 
BRANCH  19  20
ATOM     20  C   UNL     1       2.414   6.040  20.106  0.00  0.00    +0.000 C 
BRANCH  20  21
ATOM     21  C   UNL     1       1.840   7.442  20.099  0.00  0.00    +0.000 A 
ATOM     22  C   UNL     1       1.234   8.058  21.202  0.00  0.00    +0.000 A 
ATOM     23  C   UNL     1       0.660   9.332  21.081  0.00  0.00    +0.000 A 
ATOM     24  C   UNL     1       0.691   9.998  19.849  0.00  0.00    +0.000 A 
ATOM     25  C   UNL     1       1.326   9.419  18.754  0.00  0.00    +0.000 A 
ATOM     26  C   UNL     1       1.895   8.150  18.884  0.00  0.00    +0.000 A 
BRANCH  24  27
ATOM     27  S   UNL     1      -0.211  11.518  19.622  0.00  0.00    +0.000 S 
ATOM     28  O   UNL     1      -0.676  11.523  18.248  0.00  0.00    +0.000 OA
ATOM     29  O   UNL     1      -1.149  11.650  20.714  0.00  0.00    +0.000 OA
BRANCH  27  30
ATOM     30  N   UNL     1       0.959  12.742  19.779  0.00  0.00    +0.000 NA
ATOM     31  C   UNL     1       1.037  13.457  21.089  0.00  0.00    +0.000 C 
ATOM     32  C   UNL     1      -0.028  14.551  21.201  0.00  0.00    +0.000 C 
ATOM     33  O   UNL     1       0.117  15.505  20.139  0.00  0.00    +0.000 OA
ATOM     34  C   UNL     1      -0.043  14.869  18.863  0.00  0.00    +0.000 C 
ATOM     35  C   UNL     1       0.976  13.741  18.655  0.00  0.00    +0.000 C 
ENDBRANCH  27  30
ENDBRANCH  24  27
ENDBRANCH  20  21
ENDBRANCH  19  20
ENDBRANCH   1  19
TORSDOF 11
ENDMDL
MODEL 7
REMARK VINA RESULT:      -7.8      1.866      2.384
REMARK  Name = 
REMARK  11 active torsions:
REMARK  status: ('A' for Active; 'I' for Inactive)
REMARK    1  A    between atoms: C_2  and  C_3
REMARK    2  A    between atoms: C_3  and  O_4
REMARK    3  A    between atoms: O_4  and  C_5
REMARK    4  A    between atoms: C_5  and  C_7
REMARK    5  A    between atoms: C_7  and  C_8
REMARK    6  A    between atoms: C_8  and  C_9
REMARK    7  A    between atoms: C_12  and  S_13
REMARK    8  A    between atoms: S_13  and  N_16
REMARK    9  A    between atoms: N_24  and  C_25
REMARK   10  A    between atoms: C_30  and  O_31
REMARK   11  A    between atoms: O_31  and  C_32
REMARK                            x       y       z     vdW  Elec       q    Type
REMARK                         _______ _______ _______ _____ _____    ______ ____
ROOT
ATOM      1  C   UNL     1       7.548   5.470  18.048  0.00  0.00    +0.000 C 
ATOM      2  O   UNL     1       8.181   4.428  18.161  0.00  0.00    +0.000 OA
ENDROOT
BRANCH   1   3
ATOM      3  O   UNL     1       6.484   5.644  17.224  0.00  0.00    +0.000 OA
BRANCH   3   4
ATOM      4  C   UNL     1       5.992   4.451  16.615  0.00  0.00    +0.000 C 
BRANCH   4   6
ATOM      5  O   UNL     1       3.682   3.797  16.546  0.00  0.00    +0.000 OA
ATOM      6  C   UNL     1       4.631   4.160  17.238  0.00  0.00    +0.000 C 
ATOM      7  N   UNL     1       4.606   4.305  18.612  0.00  0.00    +0.000 N 
ATOM      8  H   UNL     1       5.374   4.812  19.039  0.00  0.00    +0.000 HD
BRANCH   7   9
ATOM      9  C   UNL     1       3.498   3.996  19.423  0.00  0.00    +0.000 A 
ATOM     10  C   UNL     1       3.582   2.864  20.257  0.00  0.00    +0.000 A 
ATOM     11  C   UNL     1       2.554   2.540  21.142  0.00  0.00    +0.000 A 
ATOM     12  C   UNL     1       1.409   3.322  21.180  0.00  0.00    +0.000 A 
ATOM     13  C   UNL     1       1.305   4.433  20.343  0.00  0.00    +0.000 A 
ATOM     14  C   UNL     1       2.350   4.804  19.477  0.00  0.00    +0.000 A 
BRANCH  14  15
ATOM     15  O   UNL     1       2.010   5.890  18.721  0.00  0.00    +0.000 OA
BRANCH  15  16
ATOM     16  C   UNL     1       2.551   7.171  18.974  0.00  0.00    +0.000 C 
ATOM     17  F   UNL     1       2.314   7.995  17.926  0.00  0.00    +0.000 F 
ATOM     18  F   UNL     1       1.961   7.720  20.064  0.00  0.00    +0.000 F 
ENDBRANCH  15  16
ENDBRANCH  14  15
ENDBRANCH   7   9
ENDBRANCH   4   6
ENDBRANCH   3   4
ENDBRANCH   1   3
BRANCH   1  19
ATOM     19  C   UNL     1       7.936   6.776  18.700  0.00  0.00    +0.000 C 
BRANCH  19  20
ATOM     20  C   UNL     1       7.895   7.931  17.705  0.00  0.00    +0.000 C 
BRANCH  20  21
ATOM     21  C   UNL     1       8.430   9.275  18.157  0.00  0.00    +0.000 A 
ATOM     22  C   UNL     1       9.258   9.467  19.271  0.00  0.00    +0.000 A 
ATOM     23  C   UNL     1       9.641  10.758  19.660  0.00  0.00    +0.000 A 
ATOM     24  C   UNL     1       9.195  11.868  18.931  0.00  0.00    +0.000 A 
ATOM     25  C   UNL     1       8.407  11.694  17.798  0.00  0.00    +0.000 A 
ATOM     26  C   UNL     1       8.030  10.404  17.418  0.00  0.00    +0.000 A 
BRANCH  24  27
ATOM     27  S   UNL     1       9.498  13.520  19.529  0.00  0.00    +0.000 S 
ATOM     28  O   UNL     1       8.205  14.073  19.891  0.00  0.00    +0.000 OA
ATOM     29  O   UNL     1      10.566  13.457  20.501  0.00  0.00    +0.000 OA
BRANCH  27  30
ATOM     30  N   UNL     1      10.067  14.373  18.172  0.00  0.00    +0.000 NA
ATOM     31  C   UNL     1      11.530  14.670  18.109  0.00  0.00    +0.000 C 
ATOM     32  C   UNL     1      11.894  15.897  18.951  0.00  0.00    +0.000 C 
ATOM     33  O   UNL     1      11.164  17.048  18.506  0.00  0.00    +0.000 OA
ATOM     34  C   UNL     1       9.751  16.833  18.637  0.00  0.00    +0.000 C 
ATOM     35  C   UNL     1       9.283  15.612  17.836  0.00  0.00    +0.000 C 
ENDBRANCH  27  30
ENDBRANCH  24  27
ENDBRANCH  20  21
ENDBRANCH  19  20
ENDBRANCH   1  19
TORSDOF 11
ENDMDL
MODEL 8
REMARK VINA RESULT:      -7.8      2.202      2.868
REMARK  Name = 
REMARK  11 active torsions:
REMARK  status: ('A' for Active; 'I' for Inactive)
REMARK    1  A    between atoms: C_2  and  C_3
REMARK    2  A    between atoms: C_3  and  O_4
REMARK    3  A    between atoms: O_4  and  C_5
REMARK    4  A    between atoms: C_5  and  C_7
REMARK    5  A    between atoms: C_7  and  C_8
REMARK    6  A    between atoms: C_8  and  C_9
REMARK    7  A    between atoms: C_12  and  S_13
REMARK    8  A    between atoms: S_13  and  N_16
REMARK    9  A    between atoms: N_24  and  C_25
REMARK   10  A    between atoms: C_30  and  O_31
REMARK   11  A    between atoms: O_31  and  C_32
REMARK                            x       y       z     vdW  Elec       q    Type
REMARK                         _______ _______ _______ _____ _____    ______ ____
ROOT
ATOM      1  C   UNL     1       7.710   7.276  17.753  0.00  0.00    +0.000 C 
ATOM      2  O   UNL     1       8.088   6.522  18.640  0.00  0.00    +0.000 OA
ENDROOT
BRANCH   1   3
ATOM      3  O   UNL     1       7.100   6.879  16.607  0.00  0.00    +0.000 OA
BRANCH   3   4
ATOM      4  C   UNL     1       6.952   5.467  16.461  0.00  0.00    +0.000 C 
BRANCH   4   6
ATOM      5  O   UNL     1       4.836   4.332  16.419  0.00  0.00    +0.000 OA
ATOM      6  C   UNL     1       5.582   5.102  17.021  0.00  0.00    +0.000 C 
ATOM      7  N   UNL     1       5.310   5.680  18.246  0.00  0.00    +0.000 N 
ATOM      8  H   UNL     1       5.896   6.456  18.534  0.00  0.00    +0.000 HD
BRANCH   7   9
ATOM      9  C   UNL     1       4.157   5.416  19.010  0.00  0.00    +0.000 A 
ATOM     10  C   UNL     1       3.167   6.415  19.081  0.00  0.00    +0.000 A 
ATOM     11  C   UNL     1       1.966   6.196  19.756  0.00  0.00    +0.000 A 
ATOM     12  C   UNL     1       1.753   4.988  20.403  0.00  0.00    +0.000 A 
ATOM     13  C   UNL     1       2.736   4.000  20.359  0.00  0.00    +0.000 A 
ATOM     14  C   UNL     1       3.934   4.183  19.644  0.00  0.00    +0.000 A 
BRANCH  14  15
ATOM     15  O   UNL     1       4.766   3.107  19.780  0.00  0.00    +0.000 OA
BRANCH  15  16
ATOM     16  C   UNL     1       4.276   1.782  19.755  0.00  0.00    +0.000 C 
ATOM     17  F   UNL     1       3.894   1.446  18.500  0.00  0.00    +0.000 F 
ATOM     18  F   UNL     1       5.251   0.916  20.127  0.00  0.00    +0.000 F 
ENDBRANCH  15  16
ENDBRANCH  14  15
ENDBRANCH   7   9
ENDBRANCH   4   6
ENDBRANCH   3   4
ENDBRANCH   1   3
BRANCH   1  19
ATOM     19  C   UNL     1       7.988   8.761  17.722  0.00  0.00    +0.000 C 
BRANCH  19  20
ATOM     20  C   UNL     1       8.869   9.189  18.891  0.00  0.00    +0.000 C 
BRANCH  20  21
ATOM     21  C   UNL     1       9.343  10.627  18.931  0.00  0.00    +0.000 A 
ATOM     22  C   UNL     1       9.929  11.302  17.850  0.00  0.00    +0.000 A 
ATOM     23  C   UNL     1      10.409  12.610  18.003  0.00  0.00    +0.000 A 
ATOM     24  C   UNL     1      10.305  13.252  19.243  0.00  0.00    +0.000 A 
ATOM     25  C   UNL     1       9.688  12.613  20.315  0.00  0.00    +0.000 A 
ATOM     26  C   UNL     1       9.212  11.310  20.154  0.00  0.00    +0.000 A 
BRANCH  24  27
ATOM     27  S   UNL     1      11.094  14.828  19.512  0.00  0.00    +0.000 S 
ATOM     28  O   UNL     1      11.094  15.051  20.946  0.00  0.00    +0.000 OA
ATOM     29  O   UNL     1      12.333  14.842  18.768  0.00  0.00    +0.000 OA
BRANCH  27  30
ATOM     30  N   UNL     1      10.042  15.964  18.809  0.00  0.00    +0.000 NA
ATOM     31  C   UNL     1      10.265  16.314  17.374  0.00  0.00    +0.000 C 
ATOM     32  C   UNL     1      11.384  17.348  17.213  0.00  0.00    +0.000 C 
ATOM     33  O   UNL     1      11.074  18.543  17.943  0.00  0.00    +0.000 OA
ATOM     34  C   UNL     1      10.940  18.260  19.343  0.00  0.00    +0.000 C 
ATOM     35  C   UNL     1       9.846  17.219  19.613  0.00  0.00    +0.000 C 
ENDBRANCH  27  30
ENDBRANCH  24  27
ENDBRANCH  20  21
ENDBRANCH  19  20
ENDBRANCH   1  19
TORSDOF 11
ENDMDL
MODEL 9
REMARK VINA RESULT:      -7.7      2.205      2.919
REMARK  Name = 
REMARK  11 active torsions:
REMARK  status: ('A' for Active; 'I' for Inactive)
REMARK    1  A    between atoms: C_2  and  C_3
REMARK    2  A    between atoms: C_3  and  O_4
REMARK    3  A    between atoms: O_4  and  C_5
REMARK    4  A    between atoms: C_5  and  C_7
REMARK    5  A    between atoms: C_7  and  C_8
REMARK    6  A    between atoms: C_8  and  C_9
REMARK    7  A    between atoms: C_12  and  S_13
REMARK    8  A    between atoms: S_13  and  N_16
REMARK    9  A    between atoms: N_24  and  C_25
REMARK   10  A    between atoms: C_30  and  O_31
REMARK   11  A    between atoms: O_31  and  C_32
REMARK                            x       y       z     vdW  Elec       q    Type
REMARK                         _______ _______ _______ _____ _____    ______ ____
ROOT
ATOM      1  C   UNL     1       7.020   6.683  17.823  0.00  0.00    +0.000 C 
ATOM      2  O   UNL     1       7.571   5.833  18.509  0.00  0.00    +0.000 OA
ENDROOT
BRANCH   1   3
ATOM      3  O   UNL     1       5.877   6.487  17.117  0.00  0.00    +0.000 OA
BRANCH   3   4
ATOM      4  C   UNL     1       4.797   7.352  17.466  0.00  0.00    +0.000 C 
BRANCH   4   6
ATOM      5  O   UNL     1       2.533   6.587  17.704  0.00  0.00    +0.000 OA
ATOM      6  C   UNL     1       3.702   6.478  18.068  0.00  0.00    +0.000 C 
ATOM      7  N   UNL     1       4.167   5.565  18.995  0.00  0.00    +0.000 N 
ATOM      8  H   UNL     1       5.097   5.715  19.368  0.00  0.00    +0.000 HD
BRANCH   7   9
ATOM      9  C   UNL     1       3.368   4.584  19.612  0.00  0.00    +0.000 A 
ATOM     10  C   UNL     1       2.561   4.973  20.698  0.00  0.00    +0.000 A 
ATOM     11  C   UNL     1       1.689   4.074  21.310  0.00  0.00    +0.000 A 
ATOM     12  C   UNL     1       1.637   2.760  20.869  0.00  0.00    +0.000 A 
ATOM     13  C   UNL     1       2.448   2.357  19.809  0.00  0.00    +0.000 A 
ATOM     14  C   UNL     1       3.301   3.260  19.148  0.00  0.00    +0.000 A 
BRANCH  14  15
ATOM     15  O   UNL     1       4.032   2.636  18.176  0.00  0.00    +0.000 OA
BRANCH  15  16
ATOM     16  C   UNL     1       3.797   2.869  16.803  0.00  0.00    +0.000 C 
ATOM     17  F   UNL     1       2.553   3.373  16.620  0.00  0.00    +0.000 F 
ATOM     18  F   UNL     1       4.678   3.782  16.326  0.00  0.00    +0.000 F 
ENDBRANCH  15  16
ENDBRANCH  14  15
ENDBRANCH   7   9
ENDBRANCH   4   6
ENDBRANCH   3   4
ENDBRANCH   1   3
BRANCH   1  19
ATOM     19  C   UNL     1       7.597   8.049  17.533  0.00  0.00    +0.000 C 
BRANCH  19  20
ATOM     20  C   UNL     1       8.543   8.502  18.640  0.00  0.00    +0.000 C 
BRANCH  20  21
ATOM     21  C   UNL     1       8.856   9.981  18.744  0.00  0.00    +0.000 A 
ATOM     22  C   UNL     1       8.597  10.921  17.736  0.00  0.00    +0.000 A 
ATOM     23  C   UNL     1       8.993  12.257  17.889  0.00  0.00    +0.000 A 
ATOM     24  C   UNL     1       9.652  12.660  19.057  0.00  0.00    +0.000 A 
ATOM     25  C   UNL     1       9.880  11.750  20.085  0.00  0.00    +0.000 A 
ATOM     26  C   UNL     1       9.482  10.421  19.924  0.00  0.00    +0.000 A 
BRANCH  24  27
ATOM     27  S   UNL     1      10.346  14.298  19.182  0.00  0.00    +0.000 S 
ATOM     28  O   UNL     1       9.606  14.983  20.226  0.00  0.00    +0.000 OA
ATOM     29  O   UNL     1      11.784  14.171  19.264  0.00  0.00    +0.000 OA
BRANCH  27  30
ATOM     30  N   UNL     1       9.965  15.042  17.701  0.00  0.00    +0.000 NA
ATOM     31  C   UNL     1      11.086  15.667  16.936  0.00  0.00    +0.000 C 
ATOM     32  C   UNL     1      11.430  17.059  17.473  0.00  0.00    +0.000 C 
ATOM     33  O   UNL     1      10.285  17.920  17.410  0.00  0.00    +0.000 OA
ATOM     34  C   UNL     1       9.214  17.397  18.209  0.00  0.00    +0.000 C 
ATOM     35  C   UNL     1       8.799  15.991  17.758  0.00  0.00    +0.000 C 
ENDBRANCH  27  30
ENDBRANCH  24  27
ENDBRANCH  20  21
ENDBRANCH  19  20
ENDBRANCH   1  19
TORSDOF 11
ENDMDL
