MODEL 1
REMARK VINA RESULT:      -6.4      0.000      0.000
REMARK  Name = 
REMARK  9 active torsions:
REMARK  status: ('A' for Active; 'I' for Inactive)
REMARK    1  A    between atoms: C_1  and  N_2
REMARK    2  A    between atoms: N_2  and  C_3
REMARK    3  A    between atoms: N_2  and  C_4
REMARK    4  A    between atoms: C_7  and  C_8
REMARK    5  A    between atoms: C_8  and  O_9
REMARK    6  A    between atoms: O_9  and  C_10
REMARK    7  A    between atoms: C_13  and  O_14
REMARK    8  A    between atoms: O_14  and  C_15
REMARK    9  A    between atoms: C_15  and  C_16
REMARK                            x       y       z     vdW  Elec       q    Type
REMARK                         _______ _______ _______ _____ _____    ______ ____
ROOT
ATOM      1  O   UNL     1       4.246   4.745  19.280  0.00  0.00    +0.000 OA
ENDROOT
BRANCH   1   2
ATOM      2  C   UNL     1       5.173   4.900  18.283  0.00  0.00    +0.000 A 
ATOM      3  C   UNL     1       6.291   5.718  18.398  0.00  0.00    +0.000 A 
ATOM      4  C   UNL     1       7.122   5.924  17.305  0.00  0.00    +0.000 A 
ATOM      5  C   UNL     1       6.878   5.274  16.095  0.00  0.00    +0.000 A 
ATOM      6  C   UNL     1       5.803   4.392  16.003  0.00  0.00    +0.000 A 
ATOM      7  C   UNL     1       4.951   4.202  17.095  0.00  0.00    +0.000 A 
BRANCH   5   8
ATOM      8  O   UNL     1       7.639   5.447  14.961  0.00  0.00    +0.000 OA
BRANCH   8   9
ATOM      9  C   UNL     1       7.104   4.816  13.794  0.00  0.00    +0.000 C 
BRANCH   9  10
ATOM     10  C   UNL     1       7.835   5.253  12.546  0.00  0.00    +0.000 C 
ATOM     11  F   UNL     1       8.984   5.883  12.921  0.00  0.00    +0.000 F 
ENDBRANCH   9  10
ENDBRANCH   8   9
ENDBRANCH   5   8
ENDBRANCH   1   2
BRANCH   1  12
ATOM     12  C   UNL     1       2.896   4.875  18.823  0.00  0.00    +0.000 C 
BRANCH  12  16
ATOM     13  C   UNL     1       1.497   8.931  19.501  0.00  0.00    +0.000 A 
ATOM     14  C   UNL     1       1.542   7.978  20.534  0.00  0.00    +0.000 A 
ATOM     15  C   UNL     1       1.981   6.667  20.319  0.00  0.00    +0.000 A 
ATOM     16  C   UNL     1       2.414   6.273  19.056  0.00  0.00    +0.000 A 
ATOM     17  C   UNL     1       2.414   7.207  18.019  0.00  0.00    +0.000 A 
ATOM     18  C   UNL     1       1.965   8.509  18.245  0.00  0.00    +0.000 A 
BRANCH  13  20
ATOM     19  C   UNL     1       1.395  11.280  18.757  0.00  0.00    +0.000 C 
ATOM     20  N   UNL     1       1.035  10.234  19.707  0.00  0.00    +0.000 N 
ATOM     21  C   UNL     1       0.762  10.656  21.080  0.00  0.00    +0.000 C 
ENDBRANCH  13  20
ENDBRANCH  12  16
ENDBRANCH   1  12
TORSDOF 7
ENDMDL
MODEL 2
REMARK VINA RESULT:      -6.3      5.735      7.090
REMARK  Name = 
REMARK  9 active torsions:
REMARK  status: ('A' for Active; 'I' for Inactive)
REMARK    1  A    between atoms: C_1  and  N_2
REMARK    2  A    between atoms: N_2  and  C_3
REMARK    3  A    between atoms: N_2  and  C_4
REMARK    4  A    between atoms: C_7  and  C_8
REMARK    5  A    between atoms: C_8  and  O_9
REMARK    6  A    between atoms: O_9  and  C_10
REMARK    7  A    between atoms: C_13  and  O_14
REMARK    8  A    between atoms: O_14  and  C_15
REMARK    9  A    between atoms: C_15  and  C_16
REMARK                            x       y       z     vdW  Elec       q    Type
REMARK                         _______ _______ _______ _____ _____    ______ ____
ROOT
ATOM      1  O   UNL     1       8.502   8.097  18.537  0.00  0.00    +0.000 OA
ENDROOT
BRANCH   1   2
ATOM      2  C   UNL     1       7.708   7.045  18.160  0.00  0.00    +0.000 A 
ATOM      3  C   UNL     1       7.819   5.770  18.702  0.00  0.00    +0.000 A 
ATOM      4  C   UNL     1       7.066   4.724  18.187  0.00  0.00    +0.000 A 
ATOM      5  C   UNL     1       6.153   4.945  17.156  0.00  0.00    +0.000 A 
ATOM      6  C   UNL     1       5.985   6.239  16.666  0.00  0.00    +0.000 A 
ATOM      7  C   UNL     1       6.758   7.290  17.167  0.00  0.00    +0.000 A 
BRANCH   5   8
ATOM      8  O   UNL     1       5.392   3.956  16.575  0.00  0.00    +0.000 OA
BRANCH   8   9
ATOM      9  C   UNL     1       4.035   3.919  17.026  0.00  0.00    +0.000 C 
BRANCH   9  10
ATOM     10  C   UNL     1       3.764   2.689  17.859  0.00  0.00    +0.000 C 
ATOM     11  F   UNL     1       4.354   2.857  19.077  0.00  0.00    +0.000 F 
ENDBRANCH   9  10
ENDBRANCH   8   9
ENDBRANCH   5   8
ENDBRANCH   1   2
BRANCH   1  12
ATOM     12  C   UNL     1       8.196   9.312  17.847  0.00  0.00    +0.000 C 
BRANCH  12  16
ATOM     13  C   UNL     1      10.251  12.636  19.744  0.00  0.00    +0.000 A 
ATOM     14  C   UNL     1      10.159  11.373  20.355  0.00  0.00    +0.000 A 
ATOM     15  C   UNL     1       9.489  10.302  19.753  0.00  0.00    +0.000 A 
ATOM     16  C   UNL     1       8.904  10.458  18.500  0.00  0.00    +0.000 A 
ATOM     17  C   UNL     1       9.009  11.691  17.854  0.00  0.00    +0.000 A 
ATOM     18  C   UNL     1       9.673  12.753  18.468  0.00  0.00    +0.000 A 
BRANCH  13  20
ATOM     19  C   UNL     1      10.236  14.424  21.442  0.00  0.00    +0.000 C 
ATOM     20  N   UNL     1      10.898  13.715  20.354  0.00  0.00    +0.000 N 
ATOM     21  C   UNL     1      11.859  14.477  19.559  0.00  0.00    +0.000 C 
ENDBRANCH  13  20
ENDBRANCH  12  16
ENDBRANCH   1  12
TORSDOF 7
ENDMDL
MODEL 3
REMARK VINA RESULT:      -6.2      1.482      1.628
REMARK  Name = 
REMARK  9 active torsions:
REMARK  status: ('A' for Active; 'I' for Inactive)
REMARK    1  A    between atoms: C_1  and  N_2
REMARK    2  A    between atoms: N_2  and  C_3
REMARK    3  A    between atoms: N_2  and  C_4
REMARK    4  A    between atoms: C_7  and  C_8
REMARK    5  A    between atoms: C_8  and  O_9
REMARK    6  A    between atoms: O_9  and  C_10
REMARK    7  A    between atoms: C_13  and  O_14
REMARK    8  A    between atoms: O_14  and  C_15
REMARK    9  A    between atoms: C_15  and  C_16
REMARK                            x       y       z     vdW  Elec       q    Type
REMARK                         _______ _______ _______ _____ _____    ______ ____
ROOT
ATOM      1  O   UNL     1       4.547   5.630  19.299  0.00  0.00    +0.000 OA
ENDROOT
BRANCH   1   2
ATOM      2  C   UNL     1       5.178   5.416  18.101  0.00  0.00    +0.000 A 
ATOM      3  C   UNL     1       6.353   6.058  17.730  0.00  0.00    +0.000 A 
ATOM      4  C   UNL     1       6.870   5.886  16.453  0.00  0.00    +0.000 A 
ATOM      5  C   UNL     1       6.249   5.029  15.544  0.00  0.00    +0.000 A 
ATOM      6  C   UNL     1       5.114   4.325  15.943  0.00  0.00    +0.000 A 
ATOM      7  C   UNL     1       4.579   4.514  17.221  0.00  0.00    +0.000 A 
BRANCH   5   8
ATOM      8  O   UNL     1       6.684   4.828  14.254  0.00  0.00    +0.000 OA
BRANCH   8   9
ATOM      9  C   UNL     1       6.335   3.551  13.710  0.00  0.00    +0.000 C 
BRANCH   9  10
ATOM     10  C   UNL     1       5.966   3.656  12.249  0.00  0.00    +0.000 C 
ATOM     11  F   UNL     1       4.620   3.471  12.132  0.00  0.00    +0.000 F 
ENDBRANCH   9  10
ENDBRANCH   8   9
ENDBRANCH   5   8
ENDBRANCH   1   2
BRANCH   1  12
ATOM     12  C   UNL     1       3.127   5.472  19.227  0.00  0.00    +0.000 C 
BRANCH  12  16
ATOM     13  C   UNL     1       1.199   9.356  19.492  0.00  0.00    +0.000 A 
ATOM     14  C   UNL     1       1.253   8.477  20.588  0.00  0.00    +0.000 A 
ATOM     15  C   UNL     1       1.862   7.220  20.505  0.00  0.00    +0.000 A 
ATOM     16  C   UNL     1       2.463   6.811  19.317  0.00  0.00    +0.000 A 
ATOM     17  C   UNL     1       2.455   7.677  18.223  0.00  0.00    +0.000 A 
ATOM     18  C   UNL     1       1.836   8.925  18.317  0.00  0.00    +0.000 A 
BRANCH  13  20
ATOM     19  C   UNL     1       0.413  11.250  20.862  0.00  0.00    +0.000 C 
ATOM     20  N   UNL     1       0.568  10.602  19.565  0.00  0.00    +0.000 N 
ATOM     21  C   UNL     1      -0.422  10.930  18.542  0.00  0.00    +0.000 C 
ENDBRANCH  13  20
ENDBRANCH  12  16
ENDBRANCH   1  12
TORSDOF 7
ENDMDL
MODEL 4
REMARK VINA RESULT:      -6.1      1.654      2.398
REMARK  Name = 
REMARK  9 active torsions:
REMARK  status: ('A' for Active; 'I' for Inactive)
REMARK    1  A    between atoms: C_1  and  N_2
REMARK    2  A    between atoms: N_2  and  C_3
REMARK    3  A    between atoms: N_2  and  C_4
REMARK    4  A    between atoms: C_7  and  C_8
REMARK    5  A    between atoms: C_8  and  O_9
REMARK    6  A    between atoms: O_9  and  C_10
REMARK    7  A    between atoms: C_13  and  O_14
REMARK    8  A    between atoms: O_14  and  C_15
REMARK    9  A    between atoms: C_15  and  C_16
REMARK                            x       y       z     vdW  Elec       q    Type
REMARK                         _______ _______ _______ _____ _____    ______ ____
ROOT
ATOM      1  O   UNL     1       2.636   5.657  18.307  0.00  0.00    +0.000 OA
ENDROOT
BRANCH   1   2
ATOM      2  C   UNL     1       3.702   5.309  17.520  0.00  0.00    +0.000 A 
ATOM      3  C   UNL     1       4.084   3.993  17.286  0.00  0.00    +0.000 A 
ATOM      4  C   UNL     1       5.247   3.717  16.580  0.00  0.00    +0.000 A 
ATOM      5  C   UNL     1       6.020   4.752  16.052  0.00  0.00    +0.000 A 
ATOM      6  C   UNL     1       5.595   6.068  16.219  0.00  0.00    +0.000 A 
ATOM      7  C   UNL     1       4.437   6.350  16.949  0.00  0.00    +0.000 A 
BRANCH   5   8
ATOM      8  O   UNL     1       7.197   4.560  15.365  0.00  0.00    +0.000 OA
BRANCH   8   9
ATOM      9  C   UNL     1       7.113   4.845  13.966  0.00  0.00    +0.000 C 
BRANCH   9  10
ATOM     10  C   UNL     1       6.411   3.737  13.217  0.00  0.00    +0.000 C 
ATOM     11  F   UNL     1       5.085   4.042  13.144  0.00  0.00    +0.000 F 
ENDBRANCH   9  10
ENDBRANCH   8   9
ENDBRANCH   5   8
ENDBRANCH   1   2
BRANCH   1  12
ATOM     12  C   UNL     1       3.002   6.459  19.434  0.00  0.00    +0.000 C 
BRANCH  12  16
ATOM     13  C   UNL     1       0.489   9.998  19.598  0.00  0.00    +0.000 A 
ATOM     14  C   UNL     1       1.116   9.587  18.409  0.00  0.00    +0.000 A 
ATOM     15  C   UNL     1       1.936   8.454  18.353  0.00  0.00    +0.000 A 
ATOM     16  C   UNL     1       2.135   7.679  19.491  0.00  0.00    +0.000 A 
ATOM     17  C   UNL     1       1.498   8.043  20.678  0.00  0.00    +0.000 A 
ATOM     18  C   UNL     1       0.689   9.180  20.723  0.00  0.00    +0.000 A 
BRANCH  13  20
ATOM     19  C   UNL     1      -0.894  11.537  20.940  0.00  0.00    +0.000 C 
ATOM     20  N   UNL     1      -0.310  11.144  19.663  0.00  0.00    +0.000 N 
ATOM     21  C   UNL     1      -1.029  11.548  18.457  0.00  0.00    +0.000 C 
ENDBRANCH  13  20
ENDBRANCH  12  16
ENDBRANCH   1  12
TORSDOF 7
ENDMDL
MODEL 5
REMARK VINA RESULT:      -6.1      5.541      6.718
REMARK  Name = 
REMARK  9 active torsions:
REMARK  status: ('A' for Active; 'I' for Inactive)
REMARK    1  A    between atoms: C_1  and  N_2
REMARK    2  A    between atoms: N_2  and  C_3
REMARK    3  A    between atoms: N_2  and  C_4
REMARK    4  A    between atoms: C_7  and  C_8
REMARK    5  A    between atoms: C_8  and  O_9
REMARK    6  A    between atoms: O_9  and  C_10
REMARK    7  A    between atoms: C_13  and  O_14
REMARK    8  A    between atoms: O_14  and  C_15
REMARK    9  A    between atoms: C_15  and  C_16
REMARK                            x       y       z     vdW  Elec       q    Type
REMARK                         _______ _______ _______ _____ _____    ______ ____
ROOT
ATOM      1  O   UNL     1       8.510   8.232  18.634  0.00  0.00    +0.000 OA
ENDROOT
BRANCH   1   2
ATOM      2  C   UNL     1       7.717   7.202  18.198  0.00  0.00    +0.000 A 
ATOM      3  C   UNL     1       7.892   5.882  18.593  0.00  0.00    +0.000 A 
ATOM      4  C   UNL     1       7.132   4.873  18.017  0.00  0.00    +0.000 A 
ATOM      5  C   UNL     1       6.149   5.174  17.074  0.00  0.00    +0.000 A 
ATOM      6  C   UNL     1       5.920   6.507  16.736  0.00  0.00    +0.000 A 
ATOM      7  C   UNL     1       6.700   7.522  17.298  0.00  0.00    +0.000 A 
BRANCH   5   8
ATOM      8  O   UNL     1       5.375   4.229  16.440  0.00  0.00    +0.000 OA
BRANCH   8   9
ATOM      9  C   UNL     1       6.068   3.483  15.435  0.00  0.00    +0.000 C 
BRANCH   9  10
ATOM     10  C   UNL     1       5.960   4.147  14.082  0.00  0.00    +0.000 C 
ATOM     11  F   UNL     1       7.037   4.967  13.920  0.00  0.00    +0.000 F 
ENDBRANCH   9  10
ENDBRANCH   8   9
ENDBRANCH   5   8
ENDBRANCH   1   2
BRANCH   1  12
ATOM     12  C   UNL     1       8.383   9.418  17.845  0.00  0.00    +0.000 C 
BRANCH  12  16
ATOM     13  C   UNL     1      10.252  12.758  19.898  0.00  0.00    +0.000 A 
ATOM     14  C   UNL     1      10.060  11.514  20.524  0.00  0.00    +0.000 A 
ATOM     15  C   UNL     1       9.449  10.438  19.872  0.00  0.00    +0.000 A 
ATOM     16  C   UNL     1       9.027  10.570  18.551  0.00  0.00    +0.000 A 
ATOM     17  C   UNL     1       9.235  11.782  17.893  0.00  0.00    +0.000 A 
ATOM     18  C   UNL     1       9.840  12.850  18.558  0.00  0.00    +0.000 A 
BRANCH  13  20
ATOM     19  C   UNL     1      10.132  14.479  21.661  0.00  0.00    +0.000 C 
ATOM     20  N   UNL     1      10.840  13.843  20.556  0.00  0.00    +0.000 N 
ATOM     21  C   UNL     1      11.773  14.678  19.804  0.00  0.00    +0.000 C 
ENDBRANCH  13  20
ENDBRANCH  12  16
ENDBRANCH   1  12
TORSDOF 7
ENDMDL
MODEL 6
REMARK VINA RESULT:      -6.1      3.448      4.748
REMARK  Name = 
REMARK  9 active torsions:
REMARK  status: ('A' for Active; 'I' for Inactive)
REMARK    1  A    between atoms: C_1  and  N_2
REMARK    2  A    between atoms: N_2  and  C_3
REMARK    3  A    between atoms: N_2  and  C_4
REMARK    4  A    between atoms: C_7  and  C_8
REMARK    5  A    between atoms: C_8  and  O_9
REMARK    6  A    between atoms: O_9  and  C_10
REMARK    7  A    between atoms: C_13  and  O_14
REMARK    8  A    between atoms: O_14  and  C_15
REMARK    9  A    between atoms: C_15  and  C_16
REMARK                            x       y       z     vdW  Elec       q    Type
REMARK                         _______ _______ _______ _____ _____    ______ ____
ROOT
ATOM      1  O   UNL     1       6.992   5.162  17.099  0.00  0.00    +0.000 OA
ENDROOT
BRANCH   1   2
ATOM      2  C   UNL     1       6.711   4.791  15.810  0.00  0.00    +0.000 A 
ATOM      3  C   UNL     1       5.680   3.923  15.472  0.00  0.00    +0.000 A 
ATOM      4  C   UNL     1       5.531   3.494  14.160  0.00  0.00    +0.000 A 
ATOM      5  C   UNL     1       6.377   3.966  13.156  0.00  0.00    +0.000 A 
ATOM      6  C   UNL     1       7.362   4.897  13.483  0.00  0.00    +0.000 A 
ATOM      7  C   UNL     1       7.529   5.313  14.807  0.00  0.00    +0.000 A 
BRANCH   5   8
ATOM      8  O   UNL     1       6.309   3.567  11.841  0.00  0.00    +0.000 OA
BRANCH   8   9
ATOM      9  C   UNL     1       5.666   2.304  11.643  0.00  0.00    +0.000 C 
BRANCH   9  10
ATOM     10  C   UNL     1       6.628   1.274  11.099  0.00  0.00    +0.000 C 
ATOM     11  F   UNL     1       6.030   0.051  11.167  0.00  0.00    +0.000 F 
ENDBRANCH   9  10
ENDBRANCH   8   9
ENDBRANCH   5   8
ENDBRANCH   1   2
BRANCH   1  12
ATOM     12  C   UNL     1       6.060   6.107  17.632  0.00  0.00    +0.000 C 
BRANCH  12  16
ATOM     13  C   UNL     1       2.589   4.020  19.203  0.00  0.00    +0.000 A 
ATOM     14  C   UNL     1       3.898   3.677  19.586  0.00  0.00    +0.000 A 
ATOM     15  C   UNL     1       5.020   4.339  19.074  0.00  0.00    +0.000 A 
ATOM     16  C   UNL     1       4.863   5.388  18.173  0.00  0.00    +0.000 A 
ATOM     17  C   UNL     1       3.574   5.773  17.802  0.00  0.00    +0.000 A 
ATOM     18  C   UNL     1       2.463   5.100  18.313  0.00  0.00    +0.000 A 
BRANCH  13  20
ATOM     19  C   UNL     1       1.345   3.107  21.127  0.00  0.00    +0.000 C 
ATOM     20  N   UNL     1       1.467   3.344  19.694  0.00  0.00    +0.000 N 
ATOM     21  C   UNL     1       0.800   2.391  18.809  0.00  0.00    +0.000 C 
ENDBRANCH  13  20
ENDBRANCH  12  16
ENDBRANCH   1  12
TORSDOF 7
ENDMDL
MODEL 7
REMARK VINA RESULT:      -6.1      1.415      1.803
REMARK  Name = 
REMARK  9 active torsions:
REMARK  status: ('A' for Active; 'I' for Inactive)
REMARK    1  A    between atoms: C_1  and  N_2
REMARK    2  A    between atoms: N_2  and  C_3
REMARK    3  A    between atoms: N_2  and  C_4
REMARK    4  A    between atoms: C_7  and  C_8
REMARK    5  A    between atoms: C_8  and  O_9
REMARK    6  A    between atoms: O_9  and  C_10
REMARK    7  A    between atoms: C_13  and  O_14
REMARK    8  A    between atoms: O_14  and  C_15
REMARK    9  A    between atoms: C_15  and  C_16
REMARK                            x       y       z     vdW  Elec       q    Type
REMARK                         _______ _______ _______ _____ _____    ______ ____
ROOT
ATOM      1  O   UNL     1       4.472   5.882  19.250  0.00  0.00    +0.000 OA
ENDROOT
BRANCH   1   2
ATOM      2  C   UNL     1       5.256   5.568  18.170  0.00  0.00    +0.000 A 
ATOM      3  C   UNL     1       6.475   4.909  18.275  0.00  0.00    +0.000 A 
ATOM      4  C   UNL     1       7.273   4.733  17.153  0.00  0.00    +0.000 A 
ATOM      5  C   UNL     1       6.842   5.167  15.899  0.00  0.00    +0.000 A 
ATOM      6  C   UNL     1       5.585   5.757  15.781  0.00  0.00    +0.000 A 
ATOM      7  C   UNL     1       4.789   5.956  16.913  0.00  0.00    +0.000 A 
BRANCH   5   8
ATOM      8  O   UNL     1       7.586   5.053  14.747  0.00  0.00    +0.000 OA
BRANCH   8   9
ATOM      9  C   UNL     1       6.807   4.991  13.549  0.00  0.00    +0.000 C 
BRANCH   9  10
ATOM     10  C   UNL     1       6.389   3.574  13.234  0.00  0.00    +0.000 C 
ATOM     11  F   UNL     1       5.238   3.618  12.506  0.00  0.00    +0.000 F 
ENDBRANCH   9  10
ENDBRANCH   8   9
ENDBRANCH   5   8
ENDBRANCH   1   2
BRANCH   1  12
ATOM     12  C   UNL     1       3.072   5.731  18.997  0.00  0.00    +0.000 C 
BRANCH  12  16
ATOM     13  C   UNL     1       1.035   9.502  19.702  0.00  0.00    +0.000 A 
ATOM     14  C   UNL     1       1.525   9.148  18.432  0.00  0.00    +0.000 A 
ATOM     15  C   UNL     1       2.192   7.940  18.202  0.00  0.00    +0.000 A 
ATOM     16  C   UNL     1       2.370   7.031  19.241  0.00  0.00    +0.000 A 
ATOM     17  C   UNL     1       1.865   7.340  20.504  0.00  0.00    +0.000 A 
ATOM     18  C   UNL     1       1.208   8.552  20.722  0.00  0.00    +0.000 A 
BRANCH  13  20
ATOM     19  C   UNL     1      -0.704  11.133  19.069  0.00  0.00    +0.000 C 
ATOM     20  N   UNL     1       0.391  10.720  19.940  0.00  0.00    +0.000 N 
ATOM     21  C   UNL     1       1.154  11.784  20.589  0.00  0.00    +0.000 C 
ENDBRANCH  13  20
ENDBRANCH  12  16
ENDBRANCH   1  12
TORSDOF 7
ENDMDL
MODEL 8
REMARK VINA RESULT:      -6.1      5.375      6.832
REMARK  Name = 
REMARK  9 active torsions:
REMARK  status: ('A' for Active; 'I' for Inactive)
REMARK    1  A    between atoms: C_1  and  N_2
REMARK    2  A    between atoms: N_2  and  C_3
REMARK    3  A    between atoms: N_2  and  C_4
REMARK    4  A    between atoms: C_7  and  C_8
REMARK    5  A    between atoms: C_8  and  O_9
REMARK    6  A    between atoms: O_9  and  C_10
REMARK    7  A    between atoms: C_13  and  O_14
REMARK    8  A    between atoms: O_14  and  C_15
REMARK    9  A    between atoms: C_15  and  C_16
REMARK                            x       y       z     vdW  Elec       q    Type
REMARK                         _______ _______ _______ _____ _____    ______ ____
ROOT
ATOM      1  O   UNL     1       7.649   8.238  17.336  0.00  0.00    +0.000 OA
ENDROOT
BRANCH   1   2
ATOM      2  C   UNL     1       6.948   7.061  17.358  0.00  0.00    +0.000 A 
ATOM      3  C   UNL     1       7.429   5.894  17.941  0.00  0.00    +0.000 A 
ATOM      4  C   UNL     1       6.719   4.708  17.819  0.00  0.00    +0.000 A 
ATOM      5  C   UNL     1       5.492   4.678  17.156  0.00  0.00    +0.000 A 
ATOM      6  C   UNL     1       4.973   5.864  16.639  0.00  0.00    +0.000 A 
ATOM      7  C   UNL     1       5.697   7.056  16.741  0.00  0.00    +0.000 A 
BRANCH   5   8
ATOM      8  O   UNL     1       4.744   3.538  16.970  0.00  0.00    +0.000 OA
BRANCH   8   9
ATOM      9  C   UNL     1       3.765   3.307  17.987  0.00  0.00    +0.000 C 
BRANCH   9  10
ATOM     10  C   UNL     1       2.363   3.354  17.424  0.00  0.00    +0.000 C 
ATOM     11  F   UNL     1       1.873   4.613  17.601  0.00  0.00    +0.000 F 
ENDBRANCH   9  10
ENDBRANCH   8   9
ENDBRANCH   5   8
ENDBRANCH   1   2
BRANCH   1  12
ATOM     12  C   UNL     1       8.506   8.408  18.470  0.00  0.00    +0.000 C 
BRANCH  12  16
ATOM     13  C   UNL     1       9.493  12.611  18.948  0.00  0.00    +0.000 A 
ATOM     14  C   UNL     1       8.780  12.138  17.832  0.00  0.00    +0.000 A 
ATOM     15  C   UNL     1       8.469  10.783  17.668  0.00  0.00    +0.000 A 
ATOM     16  C   UNL     1       8.846   9.857  18.636  0.00  0.00    +0.000 A 
ATOM     17  C   UNL     1       9.525  10.302  19.770  0.00  0.00    +0.000 A 
ATOM     18  C   UNL     1       9.836  11.655  19.919  0.00  0.00    +0.000 A 
BRANCH  13  20
ATOM     19  C   UNL     1       9.709  14.861  17.962  0.00  0.00    +0.000 C 
ATOM     20  N   UNL     1       9.827  13.960  19.103  0.00  0.00    +0.000 N 
ATOM     21  C   UNL     1      10.816  14.310  20.120  0.00  0.00    +0.000 C 
ENDBRANCH  13  20
ENDBRANCH  12  16
ENDBRANCH   1  12
TORSDOF 7
ENDMDL
MODEL 9
REMARK VINA RESULT:      -6.1      6.163      8.004
REMARK  Name = 
REMARK  9 active torsions:
REMARK  status: ('A' for Active; 'I' for Inactive)
REMARK    1  A    between atoms: C_1  and  N_2
REMARK    2  A    between atoms: N_2  and  C_3
REMARK    3  A    between atoms: N_2  and  C_4
REMARK    4  A    between atoms: C_7  and  C_8
REMARK    5  A    between atoms: C_8  and  O_9
REMARK    6  A    between atoms: O_9  and  C_10
REMARK    7  A    between atoms: C_13  and  O_14
REMARK    8  A    between atoms: O_14  and  C_15
REMARK    9  A    between atoms: C_15  and  C_16
REMARK                            x       y       z     vdW  Elec       q    Type
REMARK                         _______ _______ _______ _____ _____    ______ ____
ROOT
ATOM      1  O   UNL     1       8.889   9.104  19.040  0.00  0.00    +0.000 OA
ENDROOT
BRANCH   1   2
ATOM      2  C   UNL     1       9.363  10.385  19.160  0.00  0.00    +0.000 A 
ATOM      3  C   UNL     1       9.462  11.053  20.375  0.00  0.00    +0.000 A 
ATOM      4  C   UNL     1       9.835  12.390  20.408  0.00  0.00    +0.000 A 
ATOM      5  C   UNL     1      10.165  13.066  19.233  0.00  0.00    +0.000 A 
ATOM      6  C   UNL     1      10.141  12.373  18.024  0.00  0.00    +0.000 A 
ATOM      7  C   UNL     1       9.744  11.034  17.985  0.00  0.00    +0.000 A 
BRANCH   5   8
ATOM      8  O   UNL     1      10.516  14.396  19.182  0.00  0.00    +0.000 OA
BRANCH   8   9
ATOM      9  C   UNL     1       9.692  15.188  18.322  0.00  0.00    +0.000 C 
BRANCH   9  10
ATOM     10  C   UNL     1      10.523  16.050  17.401  0.00  0.00    +0.000 C 
ATOM     11  F   UNL     1      11.142  15.238  16.498  0.00  0.00    +0.000 F 
ENDBRANCH   9  10
ENDBRANCH   8   9
ENDBRANCH   5   8
ENDBRANCH   1   2
BRANCH   1  12
ATOM     12  C   UNL     1       8.258   8.851  17.781  0.00  0.00    +0.000 C 
BRANCH  12  16
ATOM     13  C   UNL     1       5.943   5.183  18.011  0.00  0.00    +0.000 A 
ATOM     14  C   UNL     1       7.138   5.353  18.732  0.00  0.00    +0.000 A 
ATOM     15  C   UNL     1       7.893   6.528  18.653  0.00  0.00    +0.000 A 
ATOM     16  C   UNL     1       7.459   7.587  17.860  0.00  0.00    +0.000 A 
ATOM     17  C   UNL     1       6.260   7.459  17.160  0.00  0.00    +0.000 A 
ATOM     18  C   UNL     1       5.519   6.279  17.241  0.00  0.00    +0.000 A 
BRANCH  13  20
ATOM     19  C   UNL     1       4.410   3.594  16.911  0.00  0.00    +0.000 C 
ATOM     20  N   UNL     1       5.199   4.000  18.068  0.00  0.00    +0.000 N 
ATOM     21  C   UNL     1       4.731   3.547  19.376  0.00  0.00    +0.000 C 
ENDBRANCH  13  20
ENDBRANCH  12  16
ENDBRANCH   1  12
TORSDOF 7
ENDMDL
