MODEL 1
REMARK VINA RESULT:      -7.4      0.000      0.000
REMARK  Name = 
REMARK  6 active torsions:
REMARK  status: ('A' for Active; 'I' for Inactive)
REMARK    1  A    between atoms: C_1  and  C_2
REMARK    2  A    between atoms: C_2  and  C_3
REMARK    3  A    between atoms: C_2  and  N_4
REMARK    4  A    between atoms: C_8  and  C_9
REMARK    5  A    between atoms: C_9  and  N_10
REMARK    6  A    between atoms: N_16  and  C_17
REMARK                            x       y       z     vdW  Elec       q    Type
REMARK                         _______ _______ _______ _____ _____    ______ ____
ROOT
ATOM      1  N   UNL     1      -0.663  10.341  21.193  0.00  0.00    +0.000 NA
ATOM      2  C   UNL     1      -0.688  10.477  19.717  0.00  0.00    +0.000 C 
ATOM      3  C   UNL     1       0.649  10.202  19.002  0.00  0.00    +0.000 C 
ATOM      4  N   UNL     1       1.258   8.931  19.412  0.00  0.00    +0.000 N 
ATOM      5  C   UNL     1       2.114   8.340  18.492  0.00  0.00    +0.000 C 
ATOM      6  O   UNL     1       2.350   8.892  17.423  0.00  0.00    +0.000 OA
ATOM      7  N   UNL     1       2.593   7.094  18.837  0.00  0.00    +0.000 N 
ATOM      8  C   UNL     1       1.311   8.741  20.869  0.00  0.00    +0.000 C 
ATOM      9  C   UNL     1      -0.058   9.029  21.524  0.00  0.00    +0.000 C 
ATOM     10  H   UNL     1       2.059   6.606  19.539  0.00  0.00    +0.000 HD
ENDROOT
BRANCH   7  11
ATOM     11  C   UNL     1       3.446   6.294  18.030  0.00  0.00    +0.000 A 
ATOM     12  C   UNL     1       4.401   6.831  17.162  0.00  0.00    +0.000 A 
ATOM     13  C   UNL     1       5.157   6.008  16.321  0.00  0.00    +0.000 A 
ATOM     14  C   UNL     1       4.983   4.626  16.354  0.00  0.00    +0.000 A 
ATOM     15 CL   UNL     1       5.922   3.670  15.265  0.00  0.00    +0.000 Cl
ATOM     16  C   UNL     1       4.065   4.071  17.252  0.00  0.00    +0.000 A 
ATOM     17 CL   UNL     1       3.803   2.365  17.358  0.00  0.00    +0.000 Cl
ATOM     18  C   UNL     1       3.308   4.903  18.091  0.00  0.00    +0.000 A 
ENDBRANCH   7  11
BRANCH   1  19
ATOM     19  C   UNL     1       0.017  11.497  21.817  0.00  0.00    +0.000 C 
BRANCH  19  24
ATOM     20  N   UNL     1      -2.798  13.554  23.616  0.00  0.00    +0.000 NA
ATOM     21  C   UNL     1      -1.851  14.584  24.108  0.00  0.00    +0.000 C 
ATOM     22  C   UNL     1      -0.742  14.935  23.100  0.00  0.00    +0.000 C 
ATOM     23  O   UNL     1       0.010  13.784  22.698  0.00  0.00    +0.000 OA
ATOM     24  C   UNL     1      -0.843  12.729  22.216  0.00  0.00    +0.000 C 
ATOM     25  C   UNL     1      -1.959  12.382  23.231  0.00  0.00    +0.000 C 
BRANCH  20  27
ATOM     26  C   UNL     1      -4.573  12.924  21.954  0.00  0.00    +0.000 C 
ATOM     27  C   UNL     1      -3.696  14.044  22.539  0.00  0.00    +0.000 C 
ATOM     28  C   UNL     1      -4.651  15.142  23.043  0.00  0.00    +0.000 C 
ENDBRANCH  20  27
ENDBRANCH  19  24
ENDBRANCH   1  19
TORSDOF 4
ENDMDL
MODEL 2
REMARK VINA RESULT:      -7.4      0.846      1.449
REMARK  Name = 
REMARK  6 active torsions:
REMARK  status: ('A' for Active; 'I' for Inactive)
REMARK    1  A    between atoms: C_1  and  C_2
REMARK    2  A    between atoms: C_2  and  C_3
REMARK    3  A    between atoms: C_2  and  N_4
REMARK    4  A    between atoms: C_8  and  C_9
REMARK    5  A    between atoms: C_9  and  N_10
REMARK    6  A    between atoms: N_16  and  C_17
REMARK                            x       y       z     vdW  Elec       q    Type
REMARK                         _______ _______ _______ _____ _____    ______ ____
ROOT
ATOM      1  N   UNL     1      -0.693  10.057  21.236  0.00  0.00    +0.000 NA
ATOM      2  C   UNL     1      -0.707  10.226  19.764  0.00  0.00    +0.000 C 
ATOM      3  C   UNL     1       0.646  10.009  19.058  0.00  0.00    +0.000 C 
ATOM      4  N   UNL     1       1.291   8.749  19.448  0.00  0.00    +0.000 N 
ATOM      5  C   UNL     1       2.175   8.206  18.525  0.00  0.00    +0.000 C 
ATOM      6  O   UNL     1       2.406   8.789  17.471  0.00  0.00    +0.000 OA
ATOM      7  N   UNL     1       2.689   6.968  18.847  0.00  0.00    +0.000 N 
ATOM      8  C   UNL     1       1.333   8.527  20.900  0.00  0.00    +0.000 C 
ATOM      9  C   UNL     1      -0.052   8.757  21.545  0.00  0.00    +0.000 C 
ATOM     10  H   UNL     1       2.163   6.447  19.532  0.00  0.00    +0.000 HD
ENDROOT
BRANCH   7  11
ATOM     11  C   UNL     1       3.575   6.213  18.032  0.00  0.00    +0.000 A 
ATOM     12  C   UNL     1       3.236   4.974  17.480  0.00  0.00    +0.000 A 
ATOM     13  C   UNL     1       4.171   4.226  16.757  0.00  0.00    +0.000 A 
ATOM     14  C   UNL     1       5.459   4.719  16.557  0.00  0.00    +0.000 A 
ATOM     15 CL   UNL     1       6.575   3.728  15.688  0.00  0.00    +0.000 Cl
ATOM     16  C   UNL     1       5.797   5.978  17.063  0.00  0.00    +0.000 A 
ATOM     17 CL   UNL     1       7.371   6.661  16.846  0.00  0.00    +0.000 Cl
ATOM     18  C   UNL     1       4.855   6.724  17.790  0.00  0.00    +0.000 A 
ENDBRANCH   7  11
BRANCH   1  19
ATOM     19  C   UNL     1      -0.057  11.219  21.894  0.00  0.00    +0.000 C 
BRANCH  19  24
ATOM     20  N   UNL     1      -3.103  13.181  23.399  0.00  0.00    +0.000 NA
ATOM     21  C   UNL     1      -2.236  14.125  24.146  0.00  0.00    +0.000 C 
ATOM     22  C   UNL     1      -0.967  14.536  23.379  0.00  0.00    +0.000 C 
ATOM     23  O   UNL     1      -0.176  13.406  22.993  0.00  0.00    +0.000 OA
ATOM     24  C   UNL     1      -0.952  12.433  22.268  0.00  0.00    +0.000 C 
ATOM     25  C   UNL     1      -2.230  12.025  23.042  0.00  0.00    +0.000 C 
BRANCH  20  27
ATOM     26  C   UNL     1      -4.646  12.793  21.456  0.00  0.00    +0.000 C 
ATOM     27  C   UNL     1      -3.797  13.804  22.244  0.00  0.00    +0.000 C 
ATOM     28  C   UNL     1      -4.745  14.936  22.686  0.00  0.00    +0.000 C 
ENDBRANCH  20  27
ENDBRANCH  19  24
ENDBRANCH   1  19
TORSDOF 4
ENDMDL
MODEL 3
REMARK VINA RESULT:      -7.3      7.757     10.241
REMARK  Name = 
REMARK  6 active torsions:
REMARK  status: ('A' for Active; 'I' for Inactive)
REMARK    1  A    between atoms: C_1  and  C_2
REMARK    2  A    between atoms: C_2  and  C_3
REMARK    3  A    between atoms: C_2  and  N_4
REMARK    4  A    between atoms: C_8  and  C_9
REMARK    5  A    between atoms: C_9  and  N_10
REMARK    6  A    between atoms: N_16  and  C_17
REMARK                            x       y       z     vdW  Elec       q    Type
REMARK                         _______ _______ _______ _____ _____    ______ ____
ROOT
ATOM      1  N   UNL     1       6.301   4.618  17.028  0.00  0.00    +0.000 NA
ATOM      2  C   UNL     1       6.847   5.517  15.983  0.00  0.00    +0.000 C 
ATOM      3  C   UNL     1       6.850   7.017  16.334  0.00  0.00    +0.000 C 
ATOM      4  N   UNL     1       7.454   7.289  17.644  0.00  0.00    +0.000 N 
ATOM      5  C   UNL     1       7.993   8.557  17.816  0.00  0.00    +0.000 C 
ATOM      6  O   UNL     1       7.922   9.388  16.916  0.00  0.00    +0.000 OA
ATOM      7  N   UNL     1       8.657   8.768  19.006  0.00  0.00    +0.000 N 
ATOM      8  C   UNL     1       6.949   6.426  18.721  0.00  0.00    +0.000 C 
ATOM      9  C   UNL     1       6.975   4.937  18.308  0.00  0.00    +0.000 C 
ATOM     10  H   UNL     1       8.956   7.934  19.486  0.00  0.00    +0.000 HD
ENDROOT
BRANCH   7  11
ATOM     11  C   UNL     1       9.317   9.972  19.371  0.00  0.00    +0.000 A 
ATOM     12  C   UNL     1       9.168  10.574  20.625  0.00  0.00    +0.000 A 
ATOM     13  C   UNL     1       9.768  11.805  20.910  0.00  0.00    +0.000 A 
ATOM     14  C   UNL     1      10.547  12.445  19.948  0.00  0.00    +0.000 A 
ATOM     15 CL   UNL     1      11.227  13.979  20.353  0.00  0.00    +0.000 Cl
ATOM     16  C   UNL     1      10.743  11.831  18.707  0.00  0.00    +0.000 A 
ATOM     17 CL   UNL     1      11.706  12.557  17.467  0.00  0.00    +0.000 Cl
ATOM     18  C   UNL     1      10.138  10.596  18.425  0.00  0.00    +0.000 A 
ENDBRANCH   7  11
BRANCH   1  19
ATOM     19  C   UNL     1       4.825   4.705  17.080  0.00  0.00    +0.000 C 
BRANCH  19  24
ATOM     20  N   UNL     1       1.851   3.320  19.230  0.00  0.00    +0.000 NA
ATOM     21  C   UNL     1       2.029   1.932  18.739  0.00  0.00    +0.000 C 
ATOM     22  C   UNL     1       3.502   1.526  18.557  0.00  0.00    +0.000 C 
ATOM     23  O   UNL     1       4.204   2.411  17.675  0.00  0.00    +0.000 OA
ATOM     24  C   UNL     1       4.069   3.787  18.080  0.00  0.00    +0.000 C 
ATOM     25  C   UNL     1       2.586   4.189  18.266  0.00  0.00    +0.000 C 
BRANCH  20  27
ATOM     26  C   UNL     1       2.034   4.942  21.140  0.00  0.00    +0.000 C 
ATOM     27  C   UNL     1       2.254   3.501  20.648  0.00  0.00    +0.000 C 
ATOM     28  C   UNL     1       1.459   2.581  21.594  0.00  0.00    +0.000 C 
ENDBRANCH  20  27
ENDBRANCH  19  24
ENDBRANCH   1  19
TORSDOF 4
ENDMDL
MODEL 4
REMARK VINA RESULT:      -7.2      0.966      1.810
REMARK  Name = 
REMARK  6 active torsions:
REMARK  status: ('A' for Active; 'I' for Inactive)
REMARK    1  A    between atoms: C_1  and  C_2
REMARK    2  A    between atoms: C_2  and  C_3
REMARK    3  A    between atoms: C_2  and  N_4
REMARK    4  A    between atoms: C_8  and  C_9
REMARK    5  A    between atoms: C_9  and  N_10
REMARK    6  A    between atoms: N_16  and  C_17
REMARK                            x       y       z     vdW  Elec       q    Type
REMARK                         _______ _______ _______ _____ _____    ______ ____
ROOT
ATOM      1  N   UNL     1      -0.849  10.488  21.058  0.00  0.00    +0.000 NA
ATOM      2  C   UNL     1      -0.859  10.572  19.578  0.00  0.00    +0.000 C 
ATOM      3  C   UNL     1       0.493  10.308  18.889  0.00  0.00    +0.000 C 
ATOM      4  N   UNL     1       1.131   9.069  19.351  0.00  0.00    +0.000 N 
ATOM      5  C   UNL     1       2.013   8.468  18.463  0.00  0.00    +0.000 C 
ATOM      6  O   UNL     1       2.249   8.988  17.377  0.00  0.00    +0.000 OA
ATOM      7  N   UNL     1       2.521   7.249  18.858  0.00  0.00    +0.000 N 
ATOM      8  C   UNL     1       1.170   8.932  20.814  0.00  0.00    +0.000 C 
ATOM      9  C   UNL     1      -0.214   9.206  21.442  0.00  0.00    +0.000 C 
ATOM     10  H   UNL     1       1.991   6.772  19.571  0.00  0.00    +0.000 HD
ENDROOT
BRANCH   7  11
ATOM     11  C   UNL     1       3.404   6.443  18.090  0.00  0.00    +0.000 A 
ATOM     12  C   UNL     1       4.379   6.976  17.240  0.00  0.00    +0.000 A 
ATOM     13  C   UNL     1       5.167   6.146  16.437  0.00  0.00    +0.000 A 
ATOM     14  C   UNL     1       5.006   4.762  16.488  0.00  0.00    +0.000 A 
ATOM     15 CL   UNL     1       5.986   3.798  15.443  0.00  0.00    +0.000 Cl
ATOM     16  C   UNL     1       4.068   4.214  17.368  0.00  0.00    +0.000 A 
ATOM     17 CL   UNL     1       3.819   2.507  17.496  0.00  0.00    +0.000 Cl
ATOM     18  C   UNL     1       3.278   5.052  18.171  0.00  0.00    +0.000 A 
ENDBRANCH   7  11
BRANCH   1  19
ATOM     19  C   UNL     1      -0.207  11.684  21.648  0.00  0.00    +0.000 C 
BRANCH  19  24
ATOM     20  N   UNL     1      -1.988  14.857  23.115  0.00  0.00    +0.000 NA
ATOM     21  C   UNL     1      -3.277  14.150  23.311  0.00  0.00    +0.000 C 
ATOM     22  C   UNL     1      -3.116  12.694  23.783  0.00  0.00    +0.000 C 
ATOM     23  O   UNL     1      -2.307  11.920  22.890  0.00  0.00    +0.000 OA
ATOM     24  C   UNL     1      -1.035  12.549  22.639  0.00  0.00    +0.000 C 
ATOM     25  C   UNL     1      -1.202  14.014  22.168  0.00  0.00    +0.000 C 
BRANCH  20  27
ATOM     26  C   UNL     1      -0.311  16.348  24.243  0.00  0.00    +0.000 C 
ATOM     27  C   UNL     1      -1.286  15.168  24.386  0.00  0.00    +0.000 C 
ATOM     28  C   UNL     1      -2.271  15.536  25.512  0.00  0.00    +0.000 C 
ENDBRANCH  20  27
ENDBRANCH  19  24
ENDBRANCH   1  19
TORSDOF 4
ENDMDL
MODEL 5
REMARK VINA RESULT:      -7.0      7.704     10.202
REMARK  Name = 
REMARK  6 active torsions:
REMARK  status: ('A' for Active; 'I' for Inactive)
REMARK    1  A    between atoms: C_1  and  C_2
REMARK    2  A    between atoms: C_2  and  C_3
REMARK    3  A    between atoms: C_2  and  N_4
REMARK    4  A    between atoms: C_8  and  C_9
REMARK    5  A    between atoms: C_9  and  N_10
REMARK    6  A    between atoms: N_16  and  C_17
REMARK                            x       y       z     vdW  Elec       q    Type
REMARK                         _______ _______ _______ _____ _____    ______ ____
ROOT
ATOM      1  N   UNL     1       6.466   4.353  17.179  0.00  0.00    +0.000 NA
ATOM      2  C   UNL     1       7.127   5.145  16.116  0.00  0.00    +0.000 C 
ATOM      3  C   UNL     1       7.090   6.674  16.306  0.00  0.00    +0.000 C 
ATOM      4  N   UNL     1       7.540   7.087  17.641  0.00  0.00    +0.000 N 
ATOM      5  C   UNL     1       8.056   8.373  17.739  0.00  0.00    +0.000 C 
ATOM      6  O   UNL     1       8.088   9.105  16.755  0.00  0.00    +0.000 OA
ATOM      7  N   UNL     1       8.580   8.714  18.968  0.00  0.00    +0.000 N 
ATOM      8  C   UNL     1       6.916   6.334  18.738  0.00  0.00    +0.000 C 
ATOM      9  C   UNL     1       6.989   4.812  18.488  0.00  0.00    +0.000 C 
ATOM     10  H   UNL     1       8.822   7.938  19.564  0.00  0.00    +0.000 HD
ENDROOT
BRANCH   7  11
ATOM     11  C   UNL     1       9.194   9.957  19.278  0.00  0.00    +0.000 A 
ATOM     12  C   UNL     1      10.075  10.611  18.412  0.00  0.00    +0.000 A 
ATOM     13  C   UNL     1      10.724  11.789  18.796  0.00  0.00    +0.000 A 
ATOM     14  C   UNL     1      10.482  12.345  20.051  0.00  0.00    +0.000 A 
ATOM     15 CL   UNL     1      11.344  13.779  20.476  0.00  0.00    +0.000 Cl
ATOM     16  C   UNL     1       9.567  11.727  20.910  0.00  0.00    +0.000 A 
ATOM     17 CL   UNL     1       9.207  12.362  22.477  0.00  0.00    +0.000 Cl
ATOM     18  C   UNL     1       8.920  10.543  20.519  0.00  0.00    +0.000 A 
ENDBRANCH   7  11
BRANCH   1  19
ATOM     19  C   UNL     1       4.994   4.427  17.054  0.00  0.00    +0.000 C 
BRANCH  19  24
ATOM     20  N   UNL     1       1.846   3.452  19.183  0.00  0.00    +0.000 NA
ATOM     21  C   UNL     1       1.904   2.027  18.774  0.00  0.00    +0.000 C 
ATOM     22  C   UNL     1       3.336   1.476  18.661  0.00  0.00    +0.000 C 
ATOM     23  O   UNL     1       4.142   2.239  17.754  0.00  0.00    +0.000 OA
ATOM     24  C   UNL     1       4.128   3.642  18.079  0.00  0.00    +0.000 C 
ATOM     25  C   UNL     1       2.685   4.191  18.196  0.00  0.00    +0.000 C 
BRANCH  20  27
ATOM     26  C   UNL     1       1.936   5.112  21.065  0.00  0.00    +0.000 C 
ATOM     27  C   UNL     1       2.227   3.676  20.601  0.00  0.00    +0.000 C 
ATOM     28  C   UNL     1       1.467   2.735  21.555  0.00  0.00    +0.000 C 
ENDBRANCH  20  27
ENDBRANCH  19  24
ENDBRANCH   1  19
TORSDOF 4
ENDMDL
MODEL 6
REMARK VINA RESULT:      -6.9      2.270      2.983
REMARK  Name = 
REMARK  6 active torsions:
REMARK  status: ('A' for Active; 'I' for Inactive)
REMARK    1  A    between atoms: C_1  and  C_2
REMARK    2  A    between atoms: C_2  and  C_3
REMARK    3  A    between atoms: C_2  and  N_4
REMARK    4  A    between atoms: C_8  and  C_9
REMARK    5  A    between atoms: C_9  and  N_10
REMARK    6  A    between atoms: N_16  and  C_17
REMARK                            x       y       z     vdW  Elec       q    Type
REMARK                         _______ _______ _______ _____ _____    ______ ____
ROOT
ATOM      1  N   UNL     1       0.694  12.090  19.554  0.00  0.00    +0.000 NA
ATOM      2  C   UNL     1       0.782  11.399  20.863  0.00  0.00    +0.000 C 
ATOM      3  C   UNL     1       0.520   9.881  20.830  0.00  0.00    +0.000 C 
ATOM      4  N   UNL     1       1.316   9.193  19.806  0.00  0.00    +0.000 N 
ATOM      5  C   UNL     1       1.577   7.849  20.038  0.00  0.00    +0.000 C 
ATOM      6  O   UNL     1       1.126   7.292  21.034  0.00  0.00    +0.000 OA
ATOM      7  N   UNL     1       2.418   7.238  19.131  0.00  0.00    +0.000 N 
ATOM      8  C   UNL     1       1.266   9.835  18.485  0.00  0.00    +0.000 C 
ATOM      9  C   UNL     1       1.538  11.352  18.586  0.00  0.00    +0.000 C 
ATOM     10  H   UNL     1       2.995   7.863  18.590  0.00  0.00    +0.000 HD
ENDROOT
BRANCH   7  11
ATOM     11  C   UNL     1       2.850   5.887  19.199  0.00  0.00    +0.000 A 
ATOM     12  C   UNL     1       4.185   5.521  19.400  0.00  0.00    +0.000 A 
ATOM     13  C   UNL     1       4.578   4.179  19.371  0.00  0.00    +0.000 A 
ATOM     14  C   UNL     1       3.633   3.177  19.161  0.00  0.00    +0.000 A 
ATOM     15 CL   UNL     1       4.191   1.544  19.101  0.00  0.00    +0.000 Cl
ATOM     16  C   UNL     1       2.288   3.525  19.007  0.00  0.00    +0.000 A 
ATOM     17 CL   UNL     1       1.056   2.337  18.754  0.00  0.00    +0.000 Cl
ATOM     18  C   UNL     1       1.899   4.874  19.034  0.00  0.00    +0.000 A 
ENDBRANCH   7  11
BRANCH   1  19
ATOM     19  C   UNL     1      -0.716  12.246  19.135  0.00  0.00    +0.000 C 
BRANCH  19  24
ATOM     20  N   UNL     1      -2.595  14.618  21.632  0.00  0.00    +0.000 NA
ATOM     21  C   UNL     1      -3.931  14.285  21.078  0.00  0.00    +0.000 C 
ATOM     22  C   UNL     1      -4.082  12.806  20.682  0.00  0.00    +0.000 C 
ATOM     23  O   UNL     1      -3.087  12.391  19.739  0.00  0.00    +0.000 OA
ATOM     24  C   UNL     1      -1.756  12.692  20.201  0.00  0.00    +0.000 C 
ATOM     25  C   UNL     1      -1.609  14.180  20.602  0.00  0.00    +0.000 C 
BRANCH  20  27
ATOM     26  C   UNL     1      -1.004  14.484  23.571  0.00  0.00    +0.000 C 
ATOM     27  C   UNL     1      -2.359  14.054  22.986  0.00  0.00    +0.000 C 
ATOM     28  C   UNL     1      -3.441  14.497  23.989  0.00  0.00    +0.000 C 
ENDBRANCH  20  27
ENDBRANCH  19  24
ENDBRANCH   1  19
TORSDOF 4
ENDMDL
MODEL 7
REMARK VINA RESULT:      -6.9      1.259      1.329
REMARK  Name = 
REMARK  6 active torsions:
REMARK  status: ('A' for Active; 'I' for Inactive)
REMARK    1  A    between atoms: C_1  and  C_2
REMARK    2  A    between atoms: C_2  and  C_3
REMARK    3  A    between atoms: C_2  and  N_4
REMARK    4  A    between atoms: C_8  and  C_9
REMARK    5  A    between atoms: C_9  and  N_10
REMARK    6  A    between atoms: N_16  and  C_17
REMARK                            x       y       z     vdW  Elec       q    Type
REMARK                         _______ _______ _______ _____ _____    ______ ____
ROOT
ATOM      1  N   UNL     1      -0.944  11.647  20.927  0.00  0.00    +0.000 NA
ATOM      2  C   UNL     1      -1.055  11.490  19.458  0.00  0.00    +0.000 C 
ATOM      3  C   UNL     1       0.230  11.036  18.739  0.00  0.00    +0.000 C 
ATOM      4  N   UNL     1       0.836   9.851  19.360  0.00  0.00    +0.000 N 
ATOM      5  C   UNL     1       1.622   9.063  18.531  0.00  0.00    +0.000 C 
ATOM      6  O   UNL     1       1.806   9.385  17.362  0.00  0.00    +0.000 OA
ATOM      7  N   UNL     1       2.094   7.893  19.089  0.00  0.00    +0.000 N 
ATOM      8  C   UNL     1       0.971   9.950  20.820  0.00  0.00    +0.000 C 
ATOM      9  C   UNL     1      -0.350  10.406  21.479  0.00  0.00    +0.000 C 
ATOM     10  H   UNL     1       1.592   7.571  19.903  0.00  0.00    +0.000 HD
ENDROOT
BRANCH   7  11
ATOM     11  C   UNL     1       2.878   6.922  18.412  0.00  0.00    +0.000 A 
ATOM     12  C   UNL     1       4.097   7.221  17.794  0.00  0.00    +0.000 A 
ATOM     13  C   UNL     1       4.792   6.252  17.063  0.00  0.00    +0.000 A 
ATOM     14  C   UNL     1       4.287   4.958  16.958  0.00  0.00    +0.000 A 
ATOM     15 CL   UNL     1       5.177   3.820  16.011  0.00  0.00    +0.000 Cl
ATOM     16  C   UNL     1       3.094   4.632  17.611  0.00  0.00    +0.000 A 
ATOM     17 CL   UNL     1       2.411   3.045  17.536  0.00  0.00    +0.000 Cl
ATOM     18  C   UNL     1       2.399   5.610  18.342  0.00  0.00    +0.000 A 
ENDBRANCH   7  11
BRANCH   1  19
ATOM     19  C   UNL     1      -0.203  12.880  21.272  0.00  0.00    +0.000 C 
BRANCH  19  24
ATOM     20  N   UNL     1      -1.955  14.705  24.271  0.00  0.00    +0.000 NA
ATOM     21  C   UNL     1      -1.155  15.942  24.098  0.00  0.00    +0.000 C 
ATOM     22  C   UNL     1      -0.892  16.305  22.626  0.00  0.00    +0.000 C 
ATOM     23  O   UNL     1      -0.244  15.245  21.912  0.00  0.00    +0.000 OA
ATOM     24  C   UNL     1      -0.957  14.000  22.041  0.00  0.00    +0.000 C 
ATOM     25  C   UNL     1      -1.223  13.641  23.523  0.00  0.00    +0.000 C 
BRANCH  20  27
ATOM     26  C   UNL     1      -4.190  13.573  24.092  0.00  0.00    +0.000 C 
ATOM     27  C   UNL     1      -3.378  14.861  23.877  0.00  0.00    +0.000 C 
ATOM     28  C   UNL     1      -4.079  15.971  24.685  0.00  0.00    +0.000 C 
ENDBRANCH  20  27
ENDBRANCH  19  24
ENDBRANCH   1  19
TORSDOF 4
ENDMDL
MODEL 8
REMARK VINA RESULT:      -6.9      2.538      3.194
REMARK  Name = 
REMARK  6 active torsions:
REMARK  status: ('A' for Active; 'I' for Inactive)
REMARK    1  A    between atoms: C_1  and  C_2
REMARK    2  A    between atoms: C_2  and  C_3
REMARK    3  A    between atoms: C_2  and  N_4
REMARK    4  A    between atoms: C_8  and  C_9
REMARK    5  A    between atoms: C_9  and  N_10
REMARK    6  A    between atoms: N_16  and  C_17
REMARK                            x       y       z     vdW  Elec       q    Type
REMARK                         _______ _______ _______ _____ _____    ______ ____
ROOT
ATOM      1  N   UNL     1      -0.798  11.243  20.738  0.00  0.00    +0.000 NA
ATOM      2  C   UNL     1      -0.524  11.422  19.292  0.00  0.00    +0.000 C 
ATOM      3  C   UNL     1       0.855  10.931  18.812  0.00  0.00    +0.000 C 
ATOM      4  N   UNL     1       1.149   9.560  19.248  0.00  0.00    +0.000 N 
ATOM      5  C   UNL     1       2.046   8.849  18.462  0.00  0.00    +0.000 C 
ATOM      6  O   UNL     1       2.570   9.378  17.487  0.00  0.00    +0.000 OA
ATOM      7  N   UNL     1       2.231   7.528  18.810  0.00  0.00    +0.000 N 
ATOM      8  C   UNL     1       0.895   9.323  20.676  0.00  0.00    +0.000 C 
ATOM      9  C   UNL     1      -0.502   9.835  21.092  0.00  0.00    +0.000 C 
ATOM     10  H   UNL     1       1.498   7.125  19.375  0.00  0.00    +0.000 HD
ENDROOT
BRANCH   7  11
ATOM     11  C   UNL     1       3.067   6.610  18.122  0.00  0.00    +0.000 A 
ATOM     12  C   UNL     1       4.237   6.992  17.457  0.00  0.00    +0.000 A 
ATOM     13  C   UNL     1       4.982   6.068  16.719  0.00  0.00    +0.000 A 
ATOM     14  C   UNL     1       4.579   4.736  16.652  0.00  0.00    +0.000 A 
ATOM     15 CL   UNL     1       5.525   3.655  15.693  0.00  0.00    +0.000 Cl
ATOM     16  C   UNL     1       3.438   4.329  17.352  0.00  0.00    +0.000 A 
ATOM     17 CL   UNL     1       2.882   2.692  17.327  0.00  0.00    +0.000 Cl
ATOM     18  C   UNL     1       2.693   5.262  18.090  0.00  0.00    +0.000 A 
ENDBRANCH   7  11
BRANCH   1  19
ATOM     19  C   UNL     1      -0.058  12.240  21.542  0.00  0.00    +0.000 C 
BRANCH  19  24
ATOM     20  N   UNL     1       1.262  15.741  20.360  0.00  0.00    +0.000 NA
ATOM     21  C   UNL     1       2.663  15.436  20.738  0.00  0.00    +0.000 C 
ATOM     22  C   UNL     1       3.077  13.981  20.455  0.00  0.00    +0.000 C 
ATOM     23  O   UNL     1       2.218  13.037  21.105  0.00  0.00    +0.000 OA
ATOM     24  C   UNL     1       0.831  13.273  20.795  0.00  0.00    +0.000 C 
ATOM     25  C   UNL     1       0.421  14.739  21.078  0.00  0.00    +0.000 C 
BRANCH  20  27
ATOM     26  C   UNL     1      -0.367  16.278  18.524  0.00  0.00    +0.000 C 
ATOM     27  C   UNL     1       1.042  15.784  18.891  0.00  0.00    +0.000 C 
ATOM     28  C   UNL     1       2.041  16.723  18.189  0.00  0.00    +0.000 C 
ENDBRANCH  20  27
ENDBRANCH  19  24
ENDBRANCH   1  19
TORSDOF 4
ENDMDL
MODEL 9
REMARK VINA RESULT:      -6.8      1.352      1.650
REMARK  Name = 
REMARK  6 active torsions:
REMARK  status: ('A' for Active; 'I' for Inactive)
REMARK    1  A    between atoms: C_1  and  C_2
REMARK    2  A    between atoms: C_2  and  C_3
REMARK    3  A    between atoms: C_2  and  N_4
REMARK    4  A    between atoms: C_8  and  C_9
REMARK    5  A    between atoms: C_9  and  N_10
REMARK    6  A    between atoms: N_16  and  C_17
REMARK                            x       y       z     vdW  Elec       q    Type
REMARK                         _______ _______ _______ _____ _____    ______ ____
ROOT
ATOM      1  N   UNL     1      -1.326  11.613  21.961  0.00  0.00    +0.000 NA
ATOM      2  C   UNL     1      -1.554  11.510  20.500  0.00  0.00    +0.000 C 
ATOM      3  C   UNL     1      -0.309  11.170  19.657  0.00  0.00    +0.000 C 
ATOM      4  N   UNL     1       0.419  10.003  20.170  0.00  0.00    +0.000 N 
ATOM      5  C   UNL     1       1.178   9.302  19.242  0.00  0.00    +0.000 C 
ATOM      6  O   UNL     1       1.241   9.683  18.078  0.00  0.00    +0.000 OA
ATOM      7  N   UNL     1       1.768   8.144  19.705  0.00  0.00    +0.000 N 
ATOM      8  C   UNL     1       0.673  10.051  21.617  0.00  0.00    +0.000 C 
ATOM      9  C   UNL     1      -0.611  10.392  22.403  0.00  0.00    +0.000 C 
ATOM     10  H   UNL     1       1.359   7.757  20.541  0.00  0.00    +0.000 HD
ENDROOT
BRANCH   7  11
ATOM     11  C   UNL     1       2.550   7.255  18.920  0.00  0.00    +0.000 A 
ATOM     12  C   UNL     1       3.519   7.690  18.011  0.00  0.00    +0.000 A 
ATOM     13  C   UNL     1       4.203   6.782  17.196  0.00  0.00    +0.000 A 
ATOM     14  C   UNL     1       3.942   5.417  17.295  0.00  0.00    +0.000 A 
ATOM     15 CL   UNL     1       4.795   4.354  16.235  0.00  0.00    +0.000 Cl
ATOM     16  C   UNL     1       3.010   4.964  18.234  0.00  0.00    +0.000 A 
ATOM     17 CL   UNL     1       2.640   3.285  18.424  0.00  0.00    +0.000 Cl
ATOM     18  C   UNL     1       2.324   5.880  19.048  0.00  0.00    +0.000 A 
ENDBRANCH   7  11
BRANCH   1  19
ATOM     19  C   UNL     1      -0.636  12.877  22.299  0.00  0.00    +0.000 C 
BRANCH  19  24
ATOM     20  N   UNL     1      -3.514  14.455  24.448  0.00  0.00    +0.000 NA
ATOM     21  C   UNL     1      -2.575  15.025  25.445  0.00  0.00    +0.000 C 
ATOM     22  C   UNL     1      -1.274  15.568  24.826  0.00  0.00    +0.000 C 
ATOM     23  O   UNL     1      -0.578  14.574  24.066  0.00  0.00    +0.000 OA
ATOM     24  C   UNL     1      -1.430  13.962  23.078  0.00  0.00    +0.000 C 
ATOM     25  C   UNL     1      -2.738  13.420  23.704  0.00  0.00    +0.000 C 
BRANCH  20  27
ATOM     26  C   UNL     1      -5.081  14.860  22.527  0.00  0.00    +0.000 C 
ATOM     27  C   UNL     1      -4.153  15.480  23.584  0.00  0.00    +0.000 C 
ATOM     28  C   UNL     1      -5.005  16.470  24.401  0.00  0.00    +0.000 C 
ENDBRANCH  20  27
ENDBRANCH  19  24
ENDBRANCH   1  19
TORSDOF 4
ENDMDL
