MODEL 1
REMARK VINA RESULT:      -8.0      0.000      0.000
REMARK  Name = 
REMARK  9 active torsions:
REMARK  status: ('A' for Active; 'I' for Inactive)
REMARK    1  A    between atoms: C_1  and  O_2
REMARK    2  A    between atoms: O_2  and  C_3
REMARK    3  A    between atoms: C_6  and  S_7
REMARK    4  A    between atoms: S_7  and  N_10
REMARK    5  A    between atoms: N_10  and  N_11
REMARK    6  A    between atoms: N_14  and  C_15
REMARK    7  A    between atoms: C_18  and  C_19
REMARK    8  A    between atoms: C_22  and  O_23
REMARK    9  A    between atoms: O_23  and  C_24
REMARK                            x       y       z     vdW  Elec       q    Type
REMARK                         _______ _______ _______ _____ _____    ______ ____
ROOT
ATOM      1  N   UNL     1       7.645   6.788  18.219  0.00  0.00    +0.000 NA
ATOM      2  H   UNL     1       7.205   7.147  17.372  0.00  0.00    +0.000 HD
ENDROOT
BRANCH   1   3
ATOM      3  N   UNL     1       8.552   7.716  18.875  0.00  0.00    +0.000 N 
ATOM      4  C   UNL     1       8.523   9.025  18.425  0.00  0.00    +0.000 C 
ATOM      5  O   UNL     1       7.742   9.350  17.531  0.00  0.00    +0.000 OA
ATOM      6  N   UNL     1       9.446   9.840  19.046  0.00  0.00    +0.000 N 
ATOM      7  H   UNL     1       9.080   7.389  19.677  0.00  0.00    +0.000 HD
ATOM      8  H   UNL     1      10.175   9.376  19.568  0.00  0.00    +0.000 HD
BRANCH   6   9
ATOM      9  C   UNL     1       9.611  11.227  18.825  0.00  0.00    +0.000 A 
ATOM     10  C   UNL     1       9.064  12.205  19.658  0.00  0.00    +0.000 A 
ATOM     11  C   UNL     1       9.244  13.565  19.385  0.00  0.00    +0.000 A 
ATOM     12  C   UNL     1       9.978  13.976  18.270  0.00  0.00    +0.000 A 
ATOM     13  C   UNL     1      10.153  15.434  17.964  0.00  0.00    +0.000 C 
ATOM     14  C   UNL     1      10.541  13.000  17.441  0.00  0.00    +0.000 A 
ATOM     15  C   UNL     1      10.369  11.636  17.722  0.00  0.00    +0.000 A 
ENDBRANCH   6   9
ENDBRANCH   1   3
BRANCH   1  16
ATOM     16  S   UNL     1       7.408   5.221  18.794  0.00  0.00    +0.000 S 
ATOM     17  O   UNL     1       7.489   5.314  20.238  0.00  0.00    +0.000 OA
ATOM     18  O   UNL     1       8.317   4.384  18.037  0.00  0.00    +0.000 OA
BRANCH  16  22
ATOM     19  C   UNL     1       3.119   4.036  17.638  0.00  0.00    +0.000 A 
ATOM     20  C   UNL     1       3.522   3.999  18.969  0.00  0.00    +0.000 A 
ATOM     21  C   UNL     1       4.821   4.355  19.332  0.00  0.00    +0.000 A 
ATOM     22  C   UNL     1       5.739   4.766  18.357  0.00  0.00    +0.000 A 
ATOM     23  C   UNL     1       5.344   4.816  17.006  0.00  0.00    +0.000 A 
ATOM     24  C   UNL     1       4.031   4.439  16.662  0.00  0.00    +0.000 A 
BRANCH  19  26
ATOM     25  C   UNL     1       1.194   2.886  18.442  0.00  0.00    +0.000 C 
ATOM     26  O   UNL     1       1.821   3.664  17.430  0.00  0.00    +0.000 OA
ENDBRANCH  19  26
BRANCH  23  27
ATOM     27  O   UNL     1       6.267   5.239  16.087  0.00  0.00    +0.000 OA
ATOM     28  C   UNL     1       6.544   4.385  14.980  0.00  0.00    +0.000 C 
ENDBRANCH  23  27
ENDBRANCH  16  22
ENDBRANCH   1  16
TORSDOF 6
ENDMDL
MODEL 2
REMARK VINA RESULT:      -7.9      1.876      2.577
REMARK  Name = 
REMARK  9 active torsions:
REMARK  status: ('A' for Active; 'I' for Inactive)
REMARK    1  A    between atoms: C_1  and  O_2
REMARK    2  A    between atoms: O_2  and  C_3
REMARK    3  A    between atoms: C_6  and  S_7
REMARK    4  A    between atoms: S_7  and  N_10
REMARK    5  A    between atoms: N_10  and  N_11
REMARK    6  A    between atoms: N_14  and  C_15
REMARK    7  A    between atoms: C_18  and  C_19
REMARK    8  A    between atoms: C_22  and  O_23
REMARK    9  A    between atoms: O_23  and  C_24
REMARK                            x       y       z     vdW  Elec       q    Type
REMARK                         _______ _______ _______ _____ _____    ______ ____
ROOT
ATOM      1  N   UNL     1       6.894   6.240  17.214  0.00  0.00    +0.000 NA
ATOM      2  H   UNL     1       7.312   5.880  18.071  0.00  0.00    +0.000 HD
ENDROOT
BRANCH   1   3
ATOM      3  N   UNL     1       7.048   7.672  17.015  0.00  0.00    +0.000 N 
ATOM      4  C   UNL     1       7.934   8.317  17.861  0.00  0.00    +0.000 C 
ATOM      5  O   UNL     1       8.553   7.675  18.708  0.00  0.00    +0.000 OA
ATOM      6  N   UNL     1       7.991   9.681  17.660  0.00  0.00    +0.000 N 
ATOM      7  H   UNL     1       6.584   8.102  16.222  0.00  0.00    +0.000 HD
ATOM      8  H   UNL     1       7.247  10.085  17.109  0.00  0.00    +0.000 HD
BRANCH   6   9
ATOM      9  C   UNL     1       8.838  10.586  18.341  0.00  0.00    +0.000 A 
ATOM     10  C   UNL     1       9.337  10.350  19.623  0.00  0.00    +0.000 A 
ATOM     11  C   UNL     1      10.159  11.286  20.259  0.00  0.00    +0.000 A 
ATOM     12  C   UNL     1      10.500  12.482  19.623  0.00  0.00    +0.000 A 
ATOM     13  C   UNL     1      11.363  13.496  20.312  0.00  0.00    +0.000 C 
ATOM     14  C   UNL     1      10.015  12.717  18.332  0.00  0.00    +0.000 A 
ATOM     15  C   UNL     1       9.200  11.771  17.691  0.00  0.00    +0.000 A 
ENDBRANCH   6   9
ENDBRANCH   1   3
BRANCH   1  16
ATOM     16  S   UNL     1       6.027   5.281  16.131  0.00  0.00    +0.000 S 
ATOM     17  O   UNL     1       6.840   4.101  15.912  0.00  0.00    +0.000 OA
ATOM     18  O   UNL     1       5.657   6.158  15.039  0.00  0.00    +0.000 OA
BRANCH  16  22
ATOM     19  C   UNL     1       2.168   4.025  18.292  0.00  0.00    +0.000 A 
ATOM     20  C   UNL     1       3.020   3.062  17.762  0.00  0.00    +0.000 A 
ATOM     21  C   UNL     1       4.193   3.430  17.103  0.00  0.00    +0.000 A 
ATOM     22  C   UNL     1       4.536   4.783  16.975  0.00  0.00    +0.000 A 
ATOM     23  C   UNL     1       3.688   5.770  17.513  0.00  0.00    +0.000 A 
ATOM     24  C   UNL     1       2.502   5.375  18.162  0.00  0.00    +0.000 A 
BRANCH  19  26
ATOM     25  C   UNL     1       1.226   2.347  19.696  0.00  0.00    +0.000 C 
ATOM     26  O   UNL     1       1.060   3.521  18.911  0.00  0.00    +0.000 OA
ENDBRANCH  19  26
BRANCH  23  27
ATOM     27  O   UNL     1       4.068   7.079  17.379  0.00  0.00    +0.000 OA
ATOM     28  C   UNL     1       3.122   8.086  17.730  0.00  0.00    +0.000 C 
ENDBRANCH  23  27
ENDBRANCH  16  22
ENDBRANCH   1  16
TORSDOF 6
ENDMDL
MODEL 3
REMARK VINA RESULT:      -7.7      1.820      2.559
REMARK  Name = 
REMARK  9 active torsions:
REMARK  status: ('A' for Active; 'I' for Inactive)
REMARK    1  A    between atoms: C_1  and  O_2
REMARK    2  A    between atoms: O_2  and  C_3
REMARK    3  A    between atoms: C_6  and  S_7
REMARK    4  A    between atoms: S_7  and  N_10
REMARK    5  A    between atoms: N_10  and  N_11
REMARK    6  A    between atoms: N_14  and  C_15
REMARK    7  A    between atoms: C_18  and  C_19
REMARK    8  A    between atoms: C_22  and  O_23
REMARK    9  A    between atoms: O_23  and  C_24
REMARK                            x       y       z     vdW  Elec       q    Type
REMARK                         _______ _______ _______ _____ _____    ______ ____
ROOT
ATOM      1  N   UNL     1       6.865   7.363  16.992  0.00  0.00    +0.000 NA
ATOM      2  H   UNL     1       6.451   8.157  16.504  0.00  0.00    +0.000 HD
ENDROOT
BRANCH   1   3
ATOM      3  N   UNL     1       7.860   7.713  17.992  0.00  0.00    +0.000 N 
ATOM      4  C   UNL     1       8.155   9.061  18.118  0.00  0.00    +0.000 C 
ATOM      5  O   UNL     1       7.570   9.886  17.417  0.00  0.00    +0.000 OA
ATOM      6  N   UNL     1       9.147   9.321  19.040  0.00  0.00    +0.000 N 
ATOM      7  H   UNL     1       8.210   6.983  18.602  0.00  0.00    +0.000 HD
ATOM      8  H   UNL     1       9.697   8.531  19.343  0.00  0.00    +0.000 HD
BRANCH   6   9
ATOM      9  C   UNL     1       9.621  10.601  19.411  0.00  0.00    +0.000 A 
ATOM     10  C   UNL     1      10.349  11.426  18.552  0.00  0.00    +0.000 A 
ATOM     11  C   UNL     1      10.808  12.678  18.975  0.00  0.00    +0.000 A 
ATOM     12  C   UNL     1      10.547  13.132  20.269  0.00  0.00    +0.000 A 
ATOM     13  C   UNL     1      11.057  14.465  20.730  0.00  0.00    +0.000 C 
ATOM     14  C   UNL     1       9.804  12.316  21.129  0.00  0.00    +0.000 A 
ATOM     15  C   UNL     1       9.334  11.066  20.700  0.00  0.00    +0.000 A 
ENDBRANCH   6   9
ENDBRANCH   1   3
BRANCH   1  16
ATOM     16  S   UNL     1       6.489   5.758  16.637  0.00  0.00    +0.000 S 
ATOM     17  O   UNL     1       7.705   5.006  16.877  0.00  0.00    +0.000 OA
ATOM     18  O   UNL     1       5.861   5.782  15.331  0.00  0.00    +0.000 OA
BRANCH  16  22
ATOM     19  C   UNL     1       3.321   4.447  19.699  0.00  0.00    +0.000 A 
ATOM     20  C   UNL     1       4.427   3.643  19.447  0.00  0.00    +0.000 A 
ATOM     21  C   UNL     1       5.394   4.029  18.519  0.00  0.00    +0.000 A 
ATOM     22  C   UNL     1       5.269   5.244  17.832  0.00  0.00    +0.000 A 
ATOM     23  C   UNL     1       4.159   6.073  18.082  0.00  0.00    +0.000 A 
ATOM     24  C   UNL     1       3.188   5.656  19.013  0.00  0.00    +0.000 A 
BRANCH  19  26
ATOM     25  C   UNL     1       1.066   4.046  20.355  0.00  0.00    +0.000 C 
ATOM     26  O   UNL     1       2.458   3.946  20.631  0.00  0.00    +0.000 OA
ENDBRANCH  19  26
BRANCH  23  27
ATOM     27  O   UNL     1       4.083   7.259  17.401  0.00  0.00    +0.000 OA
ATOM     28  C   UNL     1       2.983   8.120  17.685  0.00  0.00    +0.000 C 
ENDBRANCH  23  27
ENDBRANCH  16  22
ENDBRANCH   1  16
TORSDOF 6
ENDMDL
MODEL 4
REMARK VINA RESULT:      -7.7      1.795      2.352
REMARK  Name = 
REMARK  9 active torsions:
REMARK  status: ('A' for Active; 'I' for Inactive)
REMARK    1  A    between atoms: C_1  and  O_2
REMARK    2  A    between atoms: O_2  and  C_3
REMARK    3  A    between atoms: C_6  and  S_7
REMARK    4  A    between atoms: S_7  and  N_10
REMARK    5  A    between atoms: N_10  and  N_11
REMARK    6  A    between atoms: N_14  and  C_15
REMARK    7  A    between atoms: C_18  and  C_19
REMARK    8  A    between atoms: C_22  and  O_23
REMARK    9  A    between atoms: O_23  and  C_24
REMARK                            x       y       z     vdW  Elec       q    Type
REMARK                         _______ _______ _______ _____ _____    ______ ____
ROOT
ATOM      1  N   UNL     1       6.838   7.357  17.105  0.00  0.00    +0.000 NA
ATOM      2  H   UNL     1       6.346   8.158  16.708  0.00  0.00    +0.000 HD
ENDROOT
BRANCH   1   3
ATOM      3  N   UNL     1       7.889   7.694  18.050  0.00  0.00    +0.000 N 
ATOM      4  C   UNL     1       8.159   9.043  18.213  0.00  0.00    +0.000 C 
ATOM      5  O   UNL     1       7.507   9.879  17.589  0.00  0.00    +0.000 OA
ATOM      6  N   UNL     1       9.205   9.293  19.077  0.00  0.00    +0.000 N 
ATOM      7  H   UNL     1       8.299   6.949  18.603  0.00  0.00    +0.000 HD
ATOM      8  H   UNL     1       9.794   8.507  19.309  0.00  0.00    +0.000 HD
BRANCH   6   9
ATOM      9  C   UNL     1       9.670  10.570  19.470  0.00  0.00    +0.000 A 
ATOM     10  C   UNL     1       9.417  11.123  20.727  0.00  0.00    +0.000 A 
ATOM     11  C   UNL     1       9.886  12.398  21.059  0.00  0.00    +0.000 A 
ATOM     12  C   UNL     1      10.623  13.147  20.139  0.00  0.00    +0.000 A 
ATOM     13  C   UNL     1      11.108  14.523  20.487  0.00  0.00    +0.000 C 
ATOM     14  C   UNL     1      10.892  12.592  18.884  0.00  0.00    +0.000 A 
ATOM     15  C   UNL     1      10.430  11.308  18.556  0.00  0.00    +0.000 A 
ENDBRANCH   6   9
ENDBRANCH   1   3
BRANCH   1  16
ATOM     16  S   UNL     1       6.519   5.761  16.662  0.00  0.00    +0.000 S 
ATOM     17  O   UNL     1       7.723   5.018  16.973  0.00  0.00    +0.000 OA
ATOM     18  O   UNL     1       5.996   5.826  15.312  0.00  0.00    +0.000 OA
BRANCH  16  22
ATOM     19  C   UNL     1       3.136   4.296  19.410  0.00  0.00    +0.000 A 
ATOM     20  C   UNL     1       4.264   3.509  19.206  0.00  0.00    +0.000 A 
ATOM     21  C   UNL     1       5.297   3.942  18.374  0.00  0.00    +0.000 A 
ATOM     22  C   UNL     1       5.215   5.187  17.736  0.00  0.00    +0.000 A 
ATOM     23  C   UNL     1       4.082   5.999  17.938  0.00  0.00    +0.000 A 
ATOM     24  C   UNL     1       3.046   5.535  18.772  0.00  0.00    +0.000 A 
BRANCH  19  26
ATOM     25  C   UNL     1       2.680   2.860  21.255  0.00  0.00    +0.000 C 
ATOM     26  O   UNL     1       2.208   3.748  20.249  0.00  0.00    +0.000 OA
ENDBRANCH  19  26
BRANCH  23  27
ATOM     27  O   UNL     1       4.049   7.215  17.309  0.00  0.00    +0.000 OA
ATOM     28  C   UNL     1       3.028   8.134  17.690  0.00  0.00    +0.000 C 
ENDBRANCH  23  27
ENDBRANCH  16  22
ENDBRANCH   1  16
TORSDOF 6
ENDMDL
MODEL 5
REMARK VINA RESULT:      -7.6      0.685      1.175
REMARK  Name = 
REMARK  9 active torsions:
REMARK  status: ('A' for Active; 'I' for Inactive)
REMARK    1  A    between atoms: C_1  and  O_2
REMARK    2  A    between atoms: O_2  and  C_3
REMARK    3  A    between atoms: C_6  and  S_7
REMARK    4  A    between atoms: S_7  and  N_10
REMARK    5  A    between atoms: N_10  and  N_11
REMARK    6  A    between atoms: N_14  and  C_15
REMARK    7  A    between atoms: C_18  and  C_19
REMARK    8  A    between atoms: C_22  and  O_23
REMARK    9  A    between atoms: O_23  and  C_24
REMARK                            x       y       z     vdW  Elec       q    Type
REMARK                         _______ _______ _______ _____ _____    ______ ____
ROOT
ATOM      1  N   UNL     1       7.624   6.750  18.285  0.00  0.00    +0.000 NA
ATOM      2  H   UNL     1       7.164   7.136  17.461  0.00  0.00    +0.000 HD
ENDROOT
BRANCH   1   3
ATOM      3  N   UNL     1       8.542   7.659  18.952  0.00  0.00    +0.000 N 
ATOM      4  C   UNL     1       8.527   8.975  18.517  0.00  0.00    +0.000 C 
ATOM      5  O   UNL     1       7.750   9.319  17.628  0.00  0.00    +0.000 OA
ATOM      6  N   UNL     1       9.460   9.771  19.149  0.00  0.00    +0.000 N 
ATOM      7  H   UNL     1       9.066   7.317  19.750  0.00  0.00    +0.000 HD
ATOM      8  H   UNL     1      10.183   9.293  19.665  0.00  0.00    +0.000 HD
BRANCH   6   9
ATOM      9  C   UNL     1       9.640  11.159  18.945  0.00  0.00    +0.000 A 
ATOM     10  C   UNL     1      10.222  11.694  17.794  0.00  0.00    +0.000 A 
ATOM     11  C   UNL     1      10.392  13.074  17.648  0.00  0.00    +0.000 A 
ATOM     12  C   UNL     1       9.981  13.952  18.654  0.00  0.00    +0.000 A 
ATOM     13  C   UNL     1      10.183  15.431  18.509  0.00  0.00    +0.000 C 
ATOM     14  C   UNL     1       9.383  13.422  19.803  0.00  0.00    +0.000 A 
ATOM     15  C   UNL     1       9.203  12.038  19.942  0.00  0.00    +0.000 A 
ENDBRANCH   6   9
ENDBRANCH   1   3
BRANCH   1  16
ATOM     16  S   UNL     1       7.406   5.163  18.812  0.00  0.00    +0.000 S 
ATOM     17  O   UNL     1       7.681   5.178  20.234  0.00  0.00    +0.000 OA
ATOM     18  O   UNL     1       8.174   4.339  17.901  0.00  0.00    +0.000 OA
BRANCH  16  22
ATOM     19  C   UNL     1       2.958   4.181  18.186  0.00  0.00    +0.000 A 
ATOM     20  C   UNL     1       3.580   3.879  19.393  0.00  0.00    +0.000 A 
ATOM     21  C   UNL     1       4.929   4.172  19.595  0.00  0.00    +0.000 A 
ATOM     22  C   UNL     1       5.678   4.785  18.581  0.00  0.00    +0.000 A 
ATOM     23  C   UNL     1       5.061   5.103  17.356  0.00  0.00    +0.000 A 
ATOM     24  C   UNL     1       3.701   4.786  17.171  0.00  0.00    +0.000 A 
BRANCH  19  26
ATOM     25  C   UNL     1       1.035   3.355  19.324  0.00  0.00    +0.000 C 
ATOM     26  O   UNL     1       1.637   3.841  18.131  0.00  0.00    +0.000 OA
ENDBRANCH  19  26
BRANCH  23  27
ATOM     27  O   UNL     1       5.825   5.716  16.399  0.00  0.00    +0.000 OA
ATOM     28  C   UNL     1       5.173   6.608  15.498  0.00  0.00    +0.000 C 
ENDBRANCH  23  27
ENDBRANCH  16  22
ENDBRANCH   1  16
TORSDOF 6
ENDMDL
MODEL 6
REMARK VINA RESULT:      -7.6      5.002      7.106
REMARK  Name = 
REMARK  9 active torsions:
REMARK  status: ('A' for Active; 'I' for Inactive)
REMARK    1  A    between atoms: C_1  and  O_2
REMARK    2  A    between atoms: O_2  and  C_3
REMARK    3  A    between atoms: C_6  and  S_7
REMARK    4  A    between atoms: S_7  and  N_10
REMARK    5  A    between atoms: N_10  and  N_11
REMARK    6  A    between atoms: N_14  and  C_15
REMARK    7  A    between atoms: C_18  and  C_19
REMARK    8  A    between atoms: C_22  and  O_23
REMARK    9  A    between atoms: O_23  and  C_24
REMARK                            x       y       z     vdW  Elec       q    Type
REMARK                         _______ _______ _______ _____ _____    ______ ____
ROOT
ATOM      1  N   UNL     1       3.747   5.059  20.127  0.00  0.00    +0.000 NA
ATOM      2  H   UNL     1       3.625   5.074  21.140  0.00  0.00    +0.000 HD
ENDROOT
BRANCH   1   3
ATOM      3  N   UNL     1       3.565   6.343  19.472  0.00  0.00    +0.000 N 
ATOM      4  C   UNL     1       2.385   7.014  19.751  0.00  0.00    +0.000 C 
ATOM      5  O   UNL     1       1.572   6.525  20.533  0.00  0.00    +0.000 OA
ATOM      6  N   UNL     1       2.248   8.196  19.054  0.00  0.00    +0.000 N 
ATOM      7  H   UNL     1       4.334   6.723  18.930  0.00  0.00    +0.000 HD
ATOM      8  H   UNL     1       2.873   8.332  18.272  0.00  0.00    +0.000 HD
BRANCH   6   9
ATOM      9  C   UNL     1       1.175   9.110  19.172  0.00  0.00    +0.000 A 
ATOM     10  C   UNL     1       0.445   9.579  18.078  0.00  0.00    +0.000 A 
ATOM     11  C   UNL     1      -0.598  10.495  18.248  0.00  0.00    +0.000 A 
ATOM     12  C   UNL     1      -0.934  10.962  19.521  0.00  0.00    +0.000 A 
ATOM     13  C   UNL     1      -2.038  11.961  19.702  0.00  0.00    +0.000 C 
ATOM     14  C   UNL     1      -0.216  10.483  20.622  0.00  0.00    +0.000 A 
ATOM     15  C   UNL     1       0.822   9.555  20.450  0.00  0.00    +0.000 A 
ENDBRANCH   6   9
ENDBRANCH   1   3
BRANCH   1  16
ATOM     16  S   UNL     1       4.067   3.652  19.254  0.00  0.00    +0.000 S 
ATOM     17  O   UNL     1       2.799   3.247  18.681  0.00  0.00    +0.000 OA
ATOM     18  O   UNL     1       4.799   2.788  20.157  0.00  0.00    +0.000 OA
BRANCH  16  22
ATOM     19  C   UNL     1       6.907   4.849  15.842  0.00  0.00    +0.000 A 
ATOM     20  C   UNL     1       5.743   4.138  15.569  0.00  0.00    +0.000 A 
ATOM     21  C   UNL     1       4.873   3.769  16.596  0.00  0.00    +0.000 A 
ATOM     22  C   UNL     1       5.159   4.119  17.922  0.00  0.00    +0.000 A 
ATOM     23  C   UNL     1       6.330   4.844  18.214  0.00  0.00    +0.000 A 
ATOM     24  C   UNL     1       7.199   5.195  17.163  0.00  0.00    +0.000 A 
BRANCH  19  26
ATOM     25  C   UNL     1       7.073   4.918  13.467  0.00  0.00    +0.000 C 
ATOM     26  O   UNL     1       7.660   5.144  14.742  0.00  0.00    +0.000 OA
ENDBRANCH  19  26
BRANCH  23  27
ATOM     27  O   UNL     1       6.562   5.179  19.522  0.00  0.00    +0.000 OA
ATOM     28  C   UNL     1       7.856   5.671  19.863  0.00  0.00    +0.000 C 
ENDBRANCH  23  27
ENDBRANCH  16  22
ENDBRANCH   1  16
TORSDOF 6
ENDMDL
MODEL 7
REMARK VINA RESULT:      -7.3      4.924      6.639
REMARK  Name = 
REMARK  9 active torsions:
REMARK  status: ('A' for Active; 'I' for Inactive)
REMARK    1  A    between atoms: C_1  and  O_2
REMARK    2  A    between atoms: O_2  and  C_3
REMARK    3  A    between atoms: C_6  and  S_7
REMARK    4  A    between atoms: S_7  and  N_10
REMARK    5  A    between atoms: N_10  and  N_11
REMARK    6  A    between atoms: N_14  and  C_15
REMARK    7  A    between atoms: C_18  and  C_19
REMARK    8  A    between atoms: C_22  and  O_23
REMARK    9  A    between atoms: O_23  and  C_24
REMARK                            x       y       z     vdW  Elec       q    Type
REMARK                         _______ _______ _______ _____ _____    ______ ____
ROOT
ATOM      1  N   UNL     1       3.320   5.173  19.008  0.00  0.00    +0.000 NA
ATOM      2  H   UNL     1       2.994   5.286  19.968  0.00  0.00    +0.000 HD
ENDROOT
BRANCH   1   3
ATOM      3  N   UNL     1       3.007   6.284  18.124  0.00  0.00    +0.000 N 
ATOM      4  C   UNL     1       2.367   7.368  18.702  0.00  0.00    +0.000 C 
ATOM      5  O   UNL     1       2.114   7.361  19.906  0.00  0.00    +0.000 OA
ATOM      6  N   UNL     1       2.046   8.360  17.800  0.00  0.00    +0.000 N 
ATOM      7  H   UNL     1       3.350   6.253  17.170  0.00  0.00    +0.000 HD
ATOM      8  H   UNL     1       2.091   8.111  16.823  0.00  0.00    +0.000 HD
BRANCH   6   9
ATOM      9  C   UNL     1       1.435   9.598  18.109  0.00  0.00    +0.000 A 
ATOM     10  C   UNL     1       0.053   9.762  18.219  0.00  0.00    +0.000 A 
ATOM     11  C   UNL     1      -0.502  11.012  18.512  0.00  0.00    +0.000 A 
ATOM     12  C   UNL     1       0.317  12.127  18.703  0.00  0.00    +0.000 A 
ATOM     13  C   UNL     1      -0.277  13.473  18.996  0.00  0.00    +0.000 C 
ATOM     14  C   UNL     1       1.704  11.965  18.610  0.00  0.00    +0.000 A 
ATOM     15  C   UNL     1       2.259  10.707  18.327  0.00  0.00    +0.000 A 
ENDBRANCH   6   9
ENDBRANCH   1   3
BRANCH   1  16
ATOM     16  S   UNL     1       4.102   3.787  18.452  0.00  0.00    +0.000 S 
ATOM     17  O   UNL     1       3.071   2.970  17.844  0.00  0.00    +0.000 OA
ATOM     18  O   UNL     1       4.888   3.305  19.570  0.00  0.00    +0.000 OA
BRANCH  16  22
ATOM     19  C   UNL     1       7.019   5.151  15.171  0.00  0.00    +0.000 A 
ATOM     20  C   UNL     1       5.983   4.274  14.867  0.00  0.00    +0.000 A 
ATOM     21  C   UNL     1       5.092   3.852  15.855  0.00  0.00    +0.000 A 
ATOM     22  C   UNL     1       5.224   4.316  17.170  0.00  0.00    +0.000 A 
ATOM     23  C   UNL     1       6.263   5.211  17.491  0.00  0.00    +0.000 A 
ATOM     24  C   UNL     1       7.159   5.612  16.481  0.00  0.00    +0.000 A 
BRANCH  19  26
ATOM     25  C   UNL     1       7.485   4.907  12.847  0.00  0.00    +0.000 C 
ATOM     26  O   UNL     1       7.811   5.480  14.107  0.00  0.00    +0.000 OA
ENDBRANCH  19  26
BRANCH  23  27
ATOM     27  O   UNL     1       6.347   5.652  18.785  0.00  0.00    +0.000 OA
ATOM     28  C   UNL     1       7.645   5.812  19.351  0.00  0.00    +0.000 C 
ENDBRANCH  23  27
ENDBRANCH  16  22
ENDBRANCH   1  16
TORSDOF 6
ENDMDL
MODEL 8
REMARK VINA RESULT:      -7.3      1.318      1.425
REMARK  Name = 
REMARK  9 active torsions:
REMARK  status: ('A' for Active; 'I' for Inactive)
REMARK    1  A    between atoms: C_1  and  O_2
REMARK    2  A    between atoms: O_2  and  C_3
REMARK    3  A    between atoms: C_6  and  S_7
REMARK    4  A    between atoms: S_7  and  N_10
REMARK    5  A    between atoms: N_10  and  N_11
REMARK    6  A    between atoms: N_14  and  C_15
REMARK    7  A    between atoms: C_18  and  C_19
REMARK    8  A    between atoms: C_22  and  O_23
REMARK    9  A    between atoms: O_23  and  C_24
REMARK                            x       y       z     vdW  Elec       q    Type
REMARK                         _______ _______ _______ _____ _____    ______ ____
ROOT
ATOM      1  N   UNL     1       7.656   7.035  17.913  0.00  0.00    +0.000 NA
ATOM      2  H   UNL     1       7.290   7.559  17.118  0.00  0.00    +0.000 HD
ENDROOT
BRANCH   1   3
ATOM      3  N   UNL     1       8.453   7.817  18.843  0.00  0.00    +0.000 N 
ATOM      4  C   UNL     1       8.620   9.157  18.533  0.00  0.00    +0.000 C 
ATOM      5  O   UNL     1       8.088   9.625  17.528  0.00  0.00    +0.000 OA
ATOM      6  N   UNL     1       9.432   9.829  19.423  0.00  0.00    +0.000 N 
ATOM      7  H   UNL     1       8.761   7.378  19.704  0.00  0.00    +0.000 HD
ATOM      8  H   UNL     1       9.989   9.258  20.042  0.00  0.00    +0.000 HD
BRANCH   6   9
ATOM      9  C   UNL     1       9.741  11.209  19.386  0.00  0.00    +0.000 A 
ATOM     10  C   UNL     1       8.994  12.141  18.663  0.00  0.00    +0.000 A 
ATOM     11  C   UNL     1       9.351  13.493  18.646  0.00  0.00    +0.000 A 
ATOM     12  C   UNL     1      10.467  13.942  19.357  0.00  0.00    +0.000 A 
ATOM     13  C   UNL     1      10.864  15.388  19.323  0.00  0.00    +0.000 C 
ATOM     14  C   UNL     1      11.210  13.016  20.096  0.00  0.00    +0.000 A 
ATOM     15  C   UNL     1      10.843  11.661  20.120  0.00  0.00    +0.000 A 
ENDBRANCH   6   9
ENDBRANCH   1   3
BRANCH   1  16
ATOM     16  S   UNL     1       7.426   5.377  18.116  0.00  0.00    +0.000 S 
ATOM     17  O   UNL     1       8.123   5.029  19.337  0.00  0.00    +0.000 OA
ATOM     18  O   UNL     1       7.777   4.774  16.846  0.00  0.00    +0.000 OA
BRANCH  16  22
ATOM     19  C   UNL     1       2.917   4.759  18.769  0.00  0.00    +0.000 A 
ATOM     20  C   UNL     1       3.840   4.055  19.537  0.00  0.00    +0.000 A 
ATOM     21  C   UNL     1       5.210   4.234  19.347  0.00  0.00    +0.000 A 
ATOM     22  C   UNL     1       5.678   5.136  18.382  0.00  0.00    +0.000 A 
ATOM     23  C   UNL     1       4.757   5.861  17.602  0.00  0.00    +0.000 A 
ATOM     24  C   UNL     1       3.378   5.654  17.802  0.00  0.00    +0.000 A 
BRANCH  19  26
ATOM     25  C   UNL     1       1.212   4.596  20.425  0.00  0.00    +0.000 C 
ATOM     26  O   UNL     1       1.612   4.486  19.064  0.00  0.00    +0.000 OA
ENDBRANCH  19  26
BRANCH  23  27
ATOM     27  O   UNL     1       5.257   6.743  16.682  0.00  0.00    +0.000 OA
ATOM     28  C   UNL     1       5.182   6.382  15.305  0.00  0.00    +0.000 C 
ENDBRANCH  23  27
ENDBRANCH  16  22
ENDBRANCH   1  16
TORSDOF 6
ENDMDL
MODEL 9
REMARK VINA RESULT:      -7.2      5.106      6.603
REMARK  Name = 
REMARK  9 active torsions:
REMARK  status: ('A' for Active; 'I' for Inactive)
REMARK    1  A    between atoms: C_1  and  O_2
REMARK    2  A    between atoms: O_2  and  C_3
REMARK    3  A    between atoms: C_6  and  S_7
REMARK    4  A    between atoms: S_7  and  N_10
REMARK    5  A    between atoms: N_10  and  N_11
REMARK    6  A    between atoms: N_14  and  C_15
REMARK    7  A    between atoms: C_18  and  C_19
REMARK    8  A    between atoms: C_22  and  O_23
REMARK    9  A    between atoms: O_23  and  C_24
REMARK                            x       y       z     vdW  Elec       q    Type
REMARK                         _______ _______ _______ _____ _____    ______ ____
ROOT
ATOM      1  N   UNL     1       3.997   5.498  19.319  0.00  0.00    +0.000 NA
ATOM      2  H   UNL     1       3.290   5.288  20.024  0.00  0.00    +0.000 HD
ENDROOT
BRANCH   1   3
ATOM      3  N   UNL     1       3.658   6.589  18.421  0.00  0.00    +0.000 N 
ATOM      4  C   UNL     1       2.694   7.477  18.870  0.00  0.00    +0.000 C 
ATOM      5  O   UNL     1       2.192   7.328  19.983  0.00  0.00    +0.000 OA
ATOM      6  N   UNL     1       2.376   8.454  17.949  0.00  0.00    +0.000 N 
ATOM      7  H   UNL     1       4.199   6.701  17.571  0.00  0.00    +0.000 HD
ATOM      8  H   UNL     1       2.684   8.294  17.001  0.00  0.00    +0.000 HD
BRANCH   6   9
ATOM      9  C   UNL     1       1.466   9.518  18.148  0.00  0.00    +0.000 A 
ATOM     10  C   UNL     1       1.859  10.796  18.550  0.00  0.00    +0.000 A 
ATOM     11  C   UNL     1       0.916  11.810  18.749  0.00  0.00    +0.000 A 
ATOM     12  C   UNL     1      -0.444  11.565  18.548  0.00  0.00    +0.000 A 
ATOM     13  C   UNL     1      -1.459  12.645  18.782  0.00  0.00    +0.000 C 
ATOM     14  C   UNL     1      -0.842  10.291  18.130  0.00  0.00    +0.000 A 
ATOM     15  C   UNL     1       0.106   9.278  17.921  0.00  0.00    +0.000 A 
ENDBRANCH   6   9
ENDBRANCH   1   3
BRANCH   1  16
ATOM     16  S   UNL     1       5.425   4.617  19.148  0.00  0.00    +0.000 S 
ATOM     17  O   UNL     1       5.123   3.281  19.622  0.00  0.00    +0.000 OA
ATOM     18  O   UNL     1       6.458   5.423  19.766  0.00  0.00    +0.000 OA
BRANCH  16  22
ATOM     19  C   UNL     1       6.258   4.400  14.632  0.00  0.00    +0.000 A 
ATOM     20  C   UNL     1       7.288   4.686  15.522  0.00  0.00    +0.000 A 
ATOM     21  C   UNL     1       7.047   4.755  16.895  0.00  0.00    +0.000 A 
ATOM     22  C   UNL     1       5.760   4.527  17.398  0.00  0.00    +0.000 A 
ATOM     23  C   UNL     1       4.708   4.229  16.511  0.00  0.00    +0.000 A 
ATOM     24  C   UNL     1       4.972   4.177  15.128  0.00  0.00    +0.000 A 
BRANCH  19  26
ATOM     25  C   UNL     1       6.081   3.337  12.508  0.00  0.00    +0.000 C 
ATOM     26  O   UNL     1       6.638   4.361  13.321  0.00  0.00    +0.000 OA
ENDBRANCH  19  26
BRANCH  23  27
ATOM     27  O   UNL     1       3.469   3.998  17.046  0.00  0.00    +0.000 OA
ATOM     28  C   UNL     1       3.005   2.651  17.091  0.00  0.00    +0.000 C 
ENDBRANCH  23  27
ENDBRANCH  16  22
ENDBRANCH   1  16
TORSDOF 6
ENDMDL
