MODEL 1
REMARK VINA RESULT:      -8.0      0.000      0.000
REMARK  Name = 
REMARK  6 active torsions:
REMARK  status: ('A' for Active; 'I' for Inactive)
REMARK    1  A    between atoms: C_2  and  C_3
REMARK    2  A    between atoms: C_3  and  C_4
REMARK    3  A    between atoms: C_4  and  C_5
REMARK    4  A    between atoms: C_11  and  C_12
REMARK    5  A    between atoms: N_17  and  C_18
REMARK    6  A    between atoms: C_18  and  C_19
REMARK                            x       y       z     vdW  Elec       q    Type
REMARK                         _______ _______ _______ _____ _____    ______ ____
ROOT
ATOM      1  C   UNL     1       6.005   5.356  18.309  0.00  0.00    +0.000 C 
ATOM      2  O   UNL     1       5.149   6.236  18.294  0.00  0.00    +0.000 OA
ATOM      3  N   UNL     1       5.859   4.089  18.826  0.00  0.00    +0.000 N 
ATOM      4  C   UNL     1       4.703   3.589  19.381  0.00  0.00    +0.000 A 
ATOM      5  N   UNL     1       4.667   2.480  20.085  0.00  0.00    +0.000 NA
ATOM      6  N   UNL     1       3.395   2.198  20.554  0.00  0.00    +0.000 NA
ATOM      7  C   UNL     1       2.506   3.086  20.145  0.00  0.00    +0.000 A 
ATOM      8  S   UNL     1       3.178   4.317  19.154  0.00  0.00    +0.000 S 
ATOM      9  H   UNL     1       6.672   3.500  18.956  0.00  0.00    +0.000 HD
ENDROOT
BRANCH   7  10
ATOM     10  C   UNL     1       1.047   3.100  20.452  0.00  0.00    +0.000 C 
ATOM     11  F   UNL     1       0.309   2.397  19.552  0.00  0.00    +0.000 F 
ATOM     12  F   UNL     1       0.772   2.563  21.672  0.00  0.00    +0.000 F 
ATOM     13  F   UNL     1       0.539   4.362  20.463  0.00  0.00    +0.000 F 
ENDBRANCH   7  10
BRANCH   1  14
ATOM     14  C   UNL     1       7.386   5.604  17.729  0.00  0.00    +0.000 C 
BRANCH  14  15
ATOM     15  C   UNL     1       8.153   6.585  18.613  0.00  0.00    +0.000 C 
BRANCH  15  17
ATOM     16  O   UNL     1       7.490   8.335  17.094  0.00  0.00    +0.000 OA
ATOM     17  C   UNL     1       8.107   8.003  18.098  0.00  0.00    +0.000 C 
ATOM     18  N   UNL     1       8.845   8.868  18.874  0.00  0.00    +0.000 N 
ATOM     19  H   UNL     1       9.362   8.519  19.671  0.00  0.00    +0.000 HD
BRANCH  18  20
ATOM     20  C   UNL     1       8.983  10.286  18.581  0.00  0.00    +0.000 C 
BRANCH  20  21
ATOM     21  C   UNL     1      10.028  10.966  19.474  0.00  0.00    +0.000 C 
ATOM     22  C   UNL     1       9.470  12.016  20.423  0.00  0.00    +0.000 C 
ATOM     23  C   UNL     1      10.647  12.942  20.597  0.00  0.00    +0.000 C 
ATOM     24  C   UNL     1      11.281  12.920  19.224  0.00  0.00    +0.000 C 
ATOM     25  O   UNL     1      11.021  11.627  18.660  0.00  0.00    +0.000 OA
ENDBRANCH  20  21
ENDBRANCH  18  20
ENDBRANCH  15  17
ENDBRANCH  14  15
ENDBRANCH   1  14
TORSDOF 6
ENDMDL
MODEL 2
REMARK VINA RESULT:      -8.0      1.119      1.460
REMARK  Name = 
REMARK  6 active torsions:
REMARK  status: ('A' for Active; 'I' for Inactive)
REMARK    1  A    between atoms: C_2  and  C_3
REMARK    2  A    between atoms: C_3  and  C_4
REMARK    3  A    between atoms: C_4  and  C_5
REMARK    4  A    between atoms: C_11  and  C_12
REMARK    5  A    between atoms: N_17  and  C_18
REMARK    6  A    between atoms: C_18  and  C_19
REMARK                            x       y       z     vdW  Elec       q    Type
REMARK                         _______ _______ _______ _____ _____    ______ ____
ROOT
ATOM      1  C   UNL     1       5.808   5.242  17.797  0.00  0.00    +0.000 C 
ATOM      2  O   UNL     1       4.905   6.070  17.707  0.00  0.00    +0.000 OA
ATOM      3  N   UNL     1       5.761   4.064  18.507  0.00  0.00    +0.000 N 
ATOM      4  C   UNL     1       4.669   3.602  19.204  0.00  0.00    +0.000 A 
ATOM      5  N   UNL     1       4.734   2.613  20.067  0.00  0.00    +0.000 NA
ATOM      6  N   UNL     1       3.509   2.348  20.654  0.00  0.00    +0.000 NA
ATOM      7  C   UNL     1       2.549   3.121  20.176  0.00  0.00    +0.000 A 
ATOM      8  S   UNL     1       3.095   4.217  18.971  0.00  0.00    +0.000 S 
ATOM      9  H   UNL     1       6.611   3.539  18.669  0.00  0.00    +0.000 HD
ENDROOT
BRANCH   7  10
ATOM     10  C   UNL     1       1.112   3.116  20.572  0.00  0.00    +0.000 C 
ATOM     11  F   UNL     1       0.889   2.472  21.748  0.00  0.00    +0.000 F 
ATOM     12  F   UNL     1       0.615   4.374  20.726  0.00  0.00    +0.000 F 
ATOM     13  F   UNL     1       0.328   2.503  19.644  0.00  0.00    +0.000 F 
ENDBRANCH   7  10
BRANCH   1  14
ATOM     14  C   UNL     1       7.137   5.462  17.098  0.00  0.00    +0.000 C 
BRANCH  14  15
ATOM     15  C   UNL     1       7.355   6.953  16.852  0.00  0.00    +0.000 C 
BRANCH  15  17
ATOM     16  O   UNL     1       8.443   7.059  19.001  0.00  0.00    +0.000 OA
ATOM     17  C   UNL     1       8.055   7.644  17.996  0.00  0.00    +0.000 C 
ATOM     18  N   UNL     1       8.193   8.998  17.788  0.00  0.00    +0.000 N 
ATOM     19  H   UNL     1       7.816   9.423  16.951  0.00  0.00    +0.000 HD
BRANCH  18  20
ATOM     20  C   UNL     1       8.813   9.896  18.750  0.00  0.00    +0.000 C 
BRANCH  20  21
ATOM     21  C   UNL     1       9.627  11.004  18.071  0.00  0.00    +0.000 C 
ATOM     22  C   UNL     1      10.814  11.508  18.878  0.00  0.00    +0.000 C 
ATOM     23  C   UNL     1      10.949  12.928  18.387  0.00  0.00    +0.000 C 
ATOM     24  C   UNL     1       9.508  13.333  18.173  0.00  0.00    +0.000 C 
ATOM     25  O   UNL     1       8.785  12.148  17.811  0.00  0.00    +0.000 OA
ENDBRANCH  20  21
ENDBRANCH  18  20
ENDBRANCH  15  17
ENDBRANCH  14  15
ENDBRANCH   1  14
TORSDOF 6
ENDMDL
MODEL 3
REMARK VINA RESULT:      -7.8      1.347      1.577
REMARK  Name = 
REMARK  6 active torsions:
REMARK  status: ('A' for Active; 'I' for Inactive)
REMARK    1  A    between atoms: C_2  and  C_3
REMARK    2  A    between atoms: C_3  and  C_4
REMARK    3  A    between atoms: C_4  and  C_5
REMARK    4  A    between atoms: C_11  and  C_12
REMARK    5  A    between atoms: N_17  and  C_18
REMARK    6  A    between atoms: C_18  and  C_19
REMARK                            x       y       z     vdW  Elec       q    Type
REMARK                         _______ _______ _______ _____ _____    ______ ____
ROOT
ATOM      1  C   UNL     1       6.265   5.091  18.436  0.00  0.00    +0.000 C 
ATOM      2  O   UNL     1       6.200   4.915  19.649  0.00  0.00    +0.000 OA
ATOM      3  N   UNL     1       5.301   4.753  17.513  0.00  0.00    +0.000 N 
ATOM      4  C   UNL     1       4.079   4.194  17.813  0.00  0.00    +0.000 A 
ATOM      5  N   UNL     1       3.293   3.658  16.907  0.00  0.00    +0.000 NA
ATOM      6  N   UNL     1       2.132   3.143  17.457  0.00  0.00    +0.000 NA
ATOM      7  C   UNL     1       2.064   3.353  18.761  0.00  0.00    +0.000 A 
ATOM      8  S   UNL     1       3.421   4.201  19.386  0.00  0.00    +0.000 S 
ATOM      9  H   UNL     1       5.519   4.770  16.525  0.00  0.00    +0.000 HD
ENDROOT
BRANCH   7  10
ATOM     10  C   UNL     1       0.964   2.942  19.678  0.00  0.00    +0.000 C 
ATOM     11  F   UNL     1       0.340   3.998  20.265  0.00  0.00    +0.000 F 
ATOM     12  F   UNL     1      -0.007   2.236  19.035  0.00  0.00    +0.000 F 
ATOM     13  F   UNL     1       1.410   2.149  20.690  0.00  0.00    +0.000 F 
ENDBRANCH   7  10
BRANCH   1  14
ATOM     14  C   UNL     1       7.490   5.727  17.806  0.00  0.00    +0.000 C 
BRANCH  14  15
ATOM     15  C   UNL     1       8.116   6.724  18.778  0.00  0.00    +0.000 C 
BRANCH  15  17
ATOM     16  O   UNL     1       7.664   8.460  17.167  0.00  0.00    +0.000 OA
ATOM     17  C   UNL     1       8.193   8.125  18.220  0.00  0.00    +0.000 C 
ATOM     18  N   UNL     1       8.932   8.969  19.018  0.00  0.00    +0.000 N 
ATOM     19  H   UNL     1       9.373   8.617  19.857  0.00  0.00    +0.000 HD
BRANCH  18  20
ATOM     20  C   UNL     1       9.177  10.366  18.693  0.00  0.00    +0.000 C 
BRANCH  20  21
ATOM     21  C   UNL     1       9.897  11.109  19.824  0.00  0.00    +0.000 C 
ATOM     22  C   UNL     1       9.214  12.388  20.283  0.00  0.00    +0.000 C 
ATOM     23  C   UNL     1      10.377  13.204  20.788  0.00  0.00    +0.000 C 
ATOM     24  C   UNL     1      11.479  12.825  19.824  0.00  0.00    +0.000 C 
ATOM     25  O   UNL     1      11.230  11.476  19.407  0.00  0.00    +0.000 OA
ENDBRANCH  20  21
ENDBRANCH  18  20
ENDBRANCH  15  17
ENDBRANCH  14  15
ENDBRANCH   1  14
TORSDOF 6
ENDMDL
MODEL 4
REMARK VINA RESULT:      -7.8      4.198      6.519
REMARK  Name = 
REMARK  6 active torsions:
REMARK  status: ('A' for Active; 'I' for Inactive)
REMARK    1  A    between atoms: C_2  and  C_3
REMARK    2  A    between atoms: C_3  and  C_4
REMARK    3  A    between atoms: C_4  and  C_5
REMARK    4  A    between atoms: C_11  and  C_12
REMARK    5  A    between atoms: N_17  and  C_18
REMARK    6  A    between atoms: C_18  and  C_19
REMARK                            x       y       z     vdW  Elec       q    Type
REMARK                         _______ _______ _______ _____ _____    ______ ____
ROOT
ATOM      1  C   UNL     1       6.375   4.444  18.353  0.00  0.00    +0.000 C 
ATOM      2  O   UNL     1       6.289   4.977  19.456  0.00  0.00    +0.000 OA
ATOM      3  N   UNL     1       5.455   3.589  17.790  0.00  0.00    +0.000 N 
ATOM      4  C   UNL     1       4.259   3.223  18.364  0.00  0.00    +0.000 A 
ATOM      5  N   UNL     1       3.528   2.223  17.925  0.00  0.00    +0.000 NA
ATOM      6  N   UNL     1       2.383   2.038  18.681  0.00  0.00    +0.000 NA
ATOM      7  C   UNL     1       2.270   2.939  19.642  0.00  0.00    +0.000 A 
ATOM      8  S   UNL     1       3.562   4.072  19.669  0.00  0.00    +0.000 S 
ATOM      9  H   UNL     1       5.697   3.062  16.961  0.00  0.00    +0.000 HD
ENDROOT
BRANCH   7  10
ATOM     10  C   UNL     1       1.172   3.048  20.643  0.00  0.00    +0.000 C 
ATOM     11  F   UNL     1      -0.053   2.777  20.118  0.00  0.00    +0.000 F 
ATOM     12  F   UNL     1       1.338   2.190  21.687  0.00  0.00    +0.000 F 
ATOM     13  F   UNL     1       1.091   4.296  21.180  0.00  0.00    +0.000 F 
ENDBRANCH   7  10
BRANCH   1  14
ATOM     14  C   UNL     1       7.578   4.690  17.461  0.00  0.00    +0.000 C 
BRANCH  14  15
ATOM     15  C   UNL     1       7.416   6.017  16.723  0.00  0.00    +0.000 C 
BRANCH  15  17
ATOM     16  O   UNL     1       5.608   6.201  15.139  0.00  0.00    +0.000 OA
ATOM     17  C   UNL     1       6.763   5.864  15.371  0.00  0.00    +0.000 C 
ATOM     18  N   UNL     1       7.604   5.294  14.441  0.00  0.00    +0.000 N 
ATOM     19  H   UNL     1       8.536   5.004  14.711  0.00  0.00    +0.000 HD
BRANCH  18  20
ATOM     20  C   UNL     1       7.210   5.017  13.069  0.00  0.00    +0.000 C 
BRANCH  20  21
ATOM     21  C   UNL     1       6.437   3.700  12.940  0.00  0.00    +0.000 C 
ATOM     22  C   UNL     1       6.883   2.809  11.791  0.00  0.00    +0.000 C 
ATOM     23  C   UNL     1       5.619   2.053  11.468  0.00  0.00    +0.000 C 
ATOM     24  C   UNL     1       4.549   3.096  11.705  0.00  0.00    +0.000 C 
ATOM     25  O   UNL     1       5.032   3.968  12.737  0.00  0.00    +0.000 OA
ENDBRANCH  20  21
ENDBRANCH  18  20
ENDBRANCH  15  17
ENDBRANCH  14  15
ENDBRANCH   1  14
TORSDOF 6
ENDMDL
MODEL 5
REMARK VINA RESULT:      -7.6      1.799      1.886
REMARK  Name = 
REMARK  6 active torsions:
REMARK  status: ('A' for Active; 'I' for Inactive)
REMARK    1  A    between atoms: C_2  and  C_3
REMARK    2  A    between atoms: C_3  and  C_4
REMARK    3  A    between atoms: C_4  and  C_5
REMARK    4  A    between atoms: C_11  and  C_12
REMARK    5  A    between atoms: N_17  and  C_18
REMARK    6  A    between atoms: C_18  and  C_19
REMARK                            x       y       z     vdW  Elec       q    Type
REMARK                         _______ _______ _______ _____ _____    ______ ____
ROOT
ATOM      1  C   UNL     1       6.156   4.956  17.889  0.00  0.00    +0.000 C 
ATOM      2  O   UNL     1       6.248   4.785  19.102  0.00  0.00    +0.000 OA
ATOM      3  N   UNL     1       5.068   4.644  17.106  0.00  0.00    +0.000 N 
ATOM      4  C   UNL     1       3.882   4.121  17.569  0.00  0.00    +0.000 A 
ATOM      5  N   UNL     1       2.968   3.604  16.779  0.00  0.00    +0.000 NA
ATOM      6  N   UNL     1       1.877   3.124  17.482  0.00  0.00    +0.000 NA
ATOM      7  C   UNL     1       1.989   3.338  18.782  0.00  0.00    +0.000 A 
ATOM      8  S   UNL     1       3.440   4.149  19.216  0.00  0.00    +0.000 S 
ATOM      9  H   UNL     1       5.153   4.653  16.097  0.00  0.00    +0.000 HD
ENDROOT
BRANCH   7  10
ATOM     10  C   UNL     1       1.010   2.960  19.840  0.00  0.00    +0.000 C 
ATOM     11  F   UNL     1      -0.072   2.299  19.349  0.00  0.00    +0.000 F 
ATOM     12  F   UNL     1       1.559   2.146  20.783  0.00  0.00    +0.000 F 
ATOM     13  F   UNL     1       0.527   4.046  20.503  0.00  0.00    +0.000 F 
ENDBRANCH   7  10
BRANCH   1  14
ATOM     14  C   UNL     1       7.303   5.557  17.098  0.00  0.00    +0.000 C 
BRANCH  14  15
ATOM     15  C   UNL     1       7.178   7.079  17.075  0.00  0.00    +0.000 C 
BRANCH  15  17
ATOM     16  O   UNL     1       8.550   7.167  19.055  0.00  0.00    +0.000 OA
ATOM     17  C   UNL     1       8.041   7.758  18.110  0.00  0.00    +0.000 C 
ATOM     18  N   UNL     1       8.177   9.108  17.878  0.00  0.00    +0.000 N 
ATOM     19  H   UNL     1       7.698   9.539  17.098  0.00  0.00    +0.000 HD
BRANCH  18  20
ATOM     20  C   UNL     1       8.940   9.996  18.743  0.00  0.00    +0.000 C 
BRANCH  20  21
ATOM     21  C   UNL     1       9.675  11.085  17.954  0.00  0.00    +0.000 C 
ATOM     22  C   UNL     1      10.961  11.581  18.598  0.00  0.00    +0.000 C 
ATOM     23  C   UNL     1      11.050  12.994  18.079  0.00  0.00    +0.000 C 
ATOM     24  C   UNL     1       9.599  13.417  18.043  0.00  0.00    +0.000 C 
ATOM     25  O   UNL     1       8.822  12.239  17.788  0.00  0.00    +0.000 OA
ENDBRANCH  20  21
ENDBRANCH  18  20
ENDBRANCH  15  17
ENDBRANCH  14  15
ENDBRANCH   1  14
TORSDOF 6
ENDMDL
MODEL 6
REMARK VINA RESULT:      -7.4      5.861      7.426
REMARK  Name = 
REMARK  6 active torsions:
REMARK  status: ('A' for Active; 'I' for Inactive)
REMARK    1  A    between atoms: C_2  and  C_3
REMARK    2  A    between atoms: C_3  and  C_4
REMARK    3  A    between atoms: C_4  and  C_5
REMARK    4  A    between atoms: C_11  and  C_12
REMARK    5  A    between atoms: N_17  and  C_18
REMARK    6  A    between atoms: C_18  and  C_19
REMARK                            x       y       z     vdW  Elec       q    Type
REMARK                         _______ _______ _______ _____ _____    ______ ____
ROOT
ATOM      1  C   UNL     1       4.211   2.781  19.373  0.00  0.00    +0.000 C 
ATOM      2  O   UNL     1       3.658   2.200  18.443  0.00  0.00    +0.000 OA
ATOM      3  N   UNL     1       5.282   3.639  19.272  0.00  0.00    +0.000 N 
ATOM      4  C   UNL     1       5.885   4.019  18.095  0.00  0.00    +0.000 A 
ATOM      5  N   UNL     1       7.047   4.631  18.048  0.00  0.00    +0.000 NA
ATOM      6  N   UNL     1       7.454   4.888  16.750  0.00  0.00    +0.000 NA
ATOM      7  C   UNL     1       6.556   4.497  15.861  0.00  0.00    +0.000 A 
ATOM      8  S   UNL     1       5.156   3.797  16.569  0.00  0.00    +0.000 S 
ATOM      9  H   UNL     1       5.780   3.925  20.106  0.00  0.00    +0.000 HD
ENDROOT
BRANCH   7  10
ATOM     10  C   UNL     1       6.653   4.615  14.379  0.00  0.00    +0.000 C 
ATOM     11  F   UNL     1       6.592   3.413  13.746  0.00  0.00    +0.000 F 
ATOM     12  F   UNL     1       5.651   5.373  13.855  0.00  0.00    +0.000 F 
ATOM     13  F   UNL     1       7.820   5.196  13.986  0.00  0.00    +0.000 F 
ENDBRANCH   7  10
BRANCH   1  14
ATOM     14  C   UNL     1       3.740   2.587  20.802  0.00  0.00    +0.000 C 
BRANCH  14  15
ATOM     15  C   UNL     1       2.215   2.511  20.841  0.00  0.00    +0.000 C 
BRANCH  15  17
ATOM     16  O   UNL     1       0.722   3.780  19.436  0.00  0.00    +0.000 OA
ATOM     17  C   UNL     1       1.548   3.769  20.340  0.00  0.00    +0.000 C 
ATOM     18  N   UNL     1       1.984   4.895  21.003  0.00  0.00    +0.000 N 
ATOM     19  H   UNL     1       2.698   4.818  21.716  0.00  0.00    +0.000 HD
BRANCH  18  20
ATOM     20  C   UNL     1       1.515   6.237  20.696  0.00  0.00    +0.000 C 
BRANCH  20  21
ATOM     21  C   UNL     1       2.525   7.029  19.859  0.00  0.00    +0.000 C 
ATOM     22  C   UNL     1       1.917   8.121  18.991  0.00  0.00    +0.000 C 
ATOM     23  C   UNL     1       2.903   8.205  17.853  0.00  0.00    +0.000 C 
ATOM     24  C   UNL     1       3.320   6.761  17.680  0.00  0.00    +0.000 C 
ATOM     25  O   UNL     1       3.239   6.141  18.971  0.00  0.00    +0.000 OA
ENDBRANCH  20  21
ENDBRANCH  18  20
ENDBRANCH  15  17
ENDBRANCH  14  15
ENDBRANCH   1  14
TORSDOF 6
ENDMDL
MODEL 7
REMARK VINA RESULT:      -7.3      6.422      7.917
REMARK  Name = 
REMARK  6 active torsions:
REMARK  status: ('A' for Active; 'I' for Inactive)
REMARK    1  A    between atoms: C_2  and  C_3
REMARK    2  A    between atoms: C_3  and  C_4
REMARK    3  A    between atoms: C_4  and  C_5
REMARK    4  A    between atoms: C_11  and  C_12
REMARK    5  A    between atoms: N_17  and  C_18
REMARK    6  A    between atoms: C_18  and  C_19
REMARK                            x       y       z     vdW  Elec       q    Type
REMARK                         _______ _______ _______ _____ _____    ______ ____
ROOT
ATOM      1  C   UNL     1       5.246   4.356  17.794  0.00  0.00    +0.000 C 
ATOM      2  O   UNL     1       4.654   3.387  17.327  0.00  0.00    +0.000 OA
ATOM      3  N   UNL     1       6.166   5.140  17.135  0.00  0.00    +0.000 N 
ATOM      4  C   UNL     1       6.543   4.984  15.821  0.00  0.00    +0.000 A 
ATOM      5  N   UNL     1       7.593   5.579  15.300  0.00  0.00    +0.000 NA
ATOM      6  N   UNL     1       7.776   5.248  13.968  0.00  0.00    +0.000 NA
ATOM      7  C   UNL     1       6.826   4.447  13.519  0.00  0.00    +0.000 A 
ATOM      8  S   UNL     1       5.646   4.058  14.705  0.00  0.00    +0.000 S 
ATOM      9  H   UNL     1       6.732   5.799  17.655  0.00  0.00    +0.000 HD
ENDROOT
BRANCH   7  10
ATOM     10  C   UNL     1       6.699   3.891  12.142  0.00  0.00    +0.000 C 
ATOM     11  F   UNL     1       7.258   2.658  12.015  0.00  0.00    +0.000 F 
ATOM     12  F   UNL     1       5.400   3.762  11.756  0.00  0.00    +0.000 F 
ATOM     13  F   UNL     1       7.300   4.683  11.213  0.00  0.00    +0.000 F 
ENDBRANCH   7  10
BRANCH   1  14
ATOM     14  C   UNL     1       5.008   4.797  19.226  0.00  0.00    +0.000 C 
BRANCH  14  15
ATOM     15  C   UNL     1       3.872   3.982  19.840  0.00  0.00    +0.000 C 
BRANCH  15  17
ATOM     16  O   UNL     1       1.630   4.364  19.038  0.00  0.00    +0.000 OA
ATOM     17  C   UNL     1       2.541   4.693  19.789  0.00  0.00    +0.000 C 
ATOM     18  N   UNL     1       2.477   5.753  20.665  0.00  0.00    +0.000 N 
ATOM     19  H   UNL     1       3.282   5.993  21.230  0.00  0.00    +0.000 HD
BRANCH  18  20
ATOM     20  C   UNL     1       1.313   6.615  20.794  0.00  0.00    +0.000 C 
BRANCH  20  21
ATOM     21  C   UNL     1       1.645   8.087  20.523  0.00  0.00    +0.000 C 
ATOM     22  C   UNL     1       0.560   9.071  20.932  0.00  0.00    +0.000 C 
ATOM     23  C   UNL     1       0.790  10.212  19.972  0.00  0.00    +0.000 C 
ATOM     24  C   UNL     1       1.209   9.492  18.710  0.00  0.00    +0.000 C 
ATOM     25  O   UNL     1       1.881   8.290  19.112  0.00  0.00    +0.000 OA
ENDBRANCH  20  21
ENDBRANCH  18  20
ENDBRANCH  15  17
ENDBRANCH  14  15
ENDBRANCH   1  14
TORSDOF 6
ENDMDL
MODEL 8
REMARK VINA RESULT:      -7.3      6.116      7.477
REMARK  Name = 
REMARK  6 active torsions:
REMARK  status: ('A' for Active; 'I' for Inactive)
REMARK    1  A    between atoms: C_2  and  C_3
REMARK    2  A    between atoms: C_3  and  C_4
REMARK    3  A    between atoms: C_4  and  C_5
REMARK    4  A    between atoms: C_11  and  C_12
REMARK    5  A    between atoms: N_17  and  C_18
REMARK    6  A    between atoms: C_18  and  C_19
REMARK                            x       y       z     vdW  Elec       q    Type
REMARK                         _______ _______ _______ _____ _____    ______ ____
ROOT
ATOM      1  C   UNL     1       3.308   2.728  19.745  0.00  0.00    +0.000 C 
ATOM      2  O   UNL     1       2.795   2.228  18.748  0.00  0.00    +0.000 OA
ATOM      3  N   UNL     1       4.444   3.504  19.771  0.00  0.00    +0.000 N 
ATOM      4  C   UNL     1       5.172   3.880  18.665  0.00  0.00    +0.000 A 
ATOM      5  N   UNL     1       6.376   4.401  18.741  0.00  0.00    +0.000 NA
ATOM      6  N   UNL     1       6.909   4.674  17.493  0.00  0.00    +0.000 NA
ATOM      7  C   UNL     1       6.064   4.389  16.517  0.00  0.00    +0.000 A 
ATOM      8  S   UNL     1       4.561   3.773  17.076  0.00  0.00    +0.000 S 
ATOM      9  H   UNL     1       4.890   3.718  20.654  0.00  0.00    +0.000 HD
ENDROOT
BRANCH   7  10
ATOM     10  C   UNL     1       6.296   4.554  15.054  0.00  0.00    +0.000 C 
ATOM     11  F   UNL     1       5.459   5.461  14.484  0.00  0.00    +0.000 F 
ATOM     12  F   UNL     1       7.561   4.976  14.777  0.00  0.00    +0.000 F 
ATOM     13  F   UNL     1       6.121   3.389  14.373  0.00  0.00    +0.000 F 
ENDBRANCH   7  10
BRANCH   1  14
ATOM     14  C   UNL     1       2.703   2.517  21.121  0.00  0.00    +0.000 C 
BRANCH  14  15
ATOM     15  C   UNL     1       2.355   3.866  21.748  0.00  0.00    +0.000 C 
BRANCH  15  17
ATOM     16  O   UNL     1       0.681   4.540  20.149  0.00  0.00    +0.000 OA
ATOM     17  C   UNL     1       1.696   4.816  20.778  0.00  0.00    +0.000 C 
ATOM     18  N   UNL     1       2.370   6.011  20.672  0.00  0.00    +0.000 N 
ATOM     19  H   UNL     1       3.225   6.159  21.194  0.00  0.00    +0.000 HD
BRANCH  18  20
ATOM     20  C   UNL     1       1.954   7.089  19.788  0.00  0.00    +0.000 C 
BRANCH  20  21
ATOM     21  C   UNL     1       1.562   8.355  20.558  0.00  0.00    +0.000 C 
ATOM     22  C   UNL     1       0.411   8.175  21.536  0.00  0.00    +0.000 C 
ATOM     23  C   UNL     1      -0.190   9.557  21.574  0.00  0.00    +0.000 C 
ATOM     24  C   UNL     1      -0.018  10.024  20.145  0.00  0.00    +0.000 C 
ATOM     25  O   UNL     1       1.166   9.394  19.636  0.00  0.00    +0.000 OA
ENDBRANCH  20  21
ENDBRANCH  18  20
ENDBRANCH  15  17
ENDBRANCH  14  15
ENDBRANCH   1  14
TORSDOF 6
ENDMDL
MODEL 9
REMARK VINA RESULT:      -7.3      6.612      8.126
REMARK  Name = 
REMARK  6 active torsions:
REMARK  status: ('A' for Active; 'I' for Inactive)
REMARK    1  A    between atoms: C_2  and  C_3
REMARK    2  A    between atoms: C_3  and  C_4
REMARK    3  A    between atoms: C_4  and  C_5
REMARK    4  A    between atoms: C_11  and  C_12
REMARK    5  A    between atoms: N_17  and  C_18
REMARK    6  A    between atoms: C_18  and  C_19
REMARK                            x       y       z     vdW  Elec       q    Type
REMARK                         _______ _______ _______ _____ _____    ______ ____
ROOT
ATOM      1  C   UNL     1       4.875   4.075  17.806  0.00  0.00    +0.000 C 
ATOM      2  O   UNL     1       4.353   3.108  17.257  0.00  0.00    +0.000 OA
ATOM      3  N   UNL     1       5.807   4.920  17.247  0.00  0.00    +0.000 N 
ATOM      4  C   UNL     1       6.278   4.838  15.957  0.00  0.00    +0.000 A 
ATOM      5  N   UNL     1       7.338   5.492  15.537  0.00  0.00    +0.000 NA
ATOM      6  N   UNL     1       7.625   5.228  14.209  0.00  0.00    +0.000 NA
ATOM      7  C   UNL     1       6.738   4.415  13.660  0.00  0.00    +0.000 A 
ATOM      8  S   UNL     1       5.496   3.931  14.743  0.00  0.00    +0.000 S 
ATOM      9  H   UNL     1       6.310   5.574  17.833  0.00  0.00    +0.000 HD
ENDROOT
BRANCH   7  10
ATOM     10  C   UNL     1       6.728   3.918  12.255  0.00  0.00    +0.000 C 
ATOM     11  F   UNL     1       5.472   3.758  11.759  0.00  0.00    +0.000 F 
ATOM     12  F   UNL     1       7.369   4.765  11.404  0.00  0.00    +0.000 F 
ATOM     13  F   UNL     1       7.345   2.711  12.134  0.00  0.00    +0.000 F 
ENDBRANCH   7  10
BRANCH   1  14
ATOM     14  C   UNL     1       4.523   4.442  19.235  0.00  0.00    +0.000 C 
BRANCH  14  15
ATOM     15  C   UNL     1       3.900   5.836  19.276  0.00  0.00    +0.000 C 
BRANCH  15  17
ATOM     16  O   UNL     1       2.027   4.896  20.467  0.00  0.00    +0.000 OA
ATOM     17  C   UNL     1       2.633   5.893  20.094  0.00  0.00    +0.000 C 
ATOM     18  N   UNL     1       2.235   7.185  20.357  0.00  0.00    +0.000 N 
ATOM     19  H   UNL     1       2.763   7.964  19.986  0.00  0.00    +0.000 HD
BRANCH  18  20
ATOM     20  C   UNL     1       1.033   7.514  21.108  0.00  0.00    +0.000 C 
BRANCH  20  21
ATOM     21  C   UNL     1       0.968   8.999  21.479  0.00  0.00    +0.000 C 
ATOM     22  C   UNL     1       0.094   9.318  22.683  0.00  0.00    +0.000 C 
ATOM     23  C   UNL     1      -0.350  10.728  22.387  0.00  0.00    +0.000 C 
ATOM     24  C   UNL     1      -0.507  10.709  20.883  0.00  0.00    +0.000 C 
ATOM     25  O   UNL     1       0.444   9.765  20.372  0.00  0.00    +0.000 OA
ENDBRANCH  20  21
ENDBRANCH  18  20
ENDBRANCH  15  17
ENDBRANCH  14  15
ENDBRANCH   1  14
TORSDOF 6
ENDMDL
