MODEL 1
REMARK VINA RESULT:      -7.9      0.000      0.000
REMARK  Name = 
REMARK  8 active torsions:
REMARK  status: ('A' for Active; 'I' for Inactive)
REMARK    1  A    between atoms: C_1  and  C_2
REMARK    2  A    between atoms: C_7  and  S_8
REMARK    3  A    between atoms: S_8  and  N_11
REMARK    4  A    between atoms: C_12  and  C_13
REMARK    5  A    between atoms: C_20  and  C_21
REMARK    6  A    between atoms: C_21  and  O_23
REMARK    7  A    between atoms: C_25  and  C_26
REMARK    8  A    between atoms: C_26  and  C_27
REMARK                            x       y       z     vdW  Elec       q    Type
REMARK                         _______ _______ _______ _____ _____    ______ ____
ROOT
ATOM      1  N   UNL     1       0.591  10.149  20.091  0.00  0.00    +0.000 NA
ATOM      2  C   UNL     1       0.875  11.341  21.009  0.00  0.00    +0.000 C 
ATOM      3  C   UNL     1      -0.533  11.670  21.484  0.00  0.00    +0.000 C 
ATOM      4  C   UNL     1      -1.403  11.398  20.502  0.00  0.00    +0.000 C 
ATOM      5  C   UNL     1      -0.863  10.252  19.663  0.00  0.00    +0.000 C 
ENDROOT
BRANCH   2   6
ATOM      6  C   UNL     1       1.502  12.452  20.129  0.00  0.00    +0.000 A 
ATOM      7  C   UNL     1       1.928  12.224  18.808  0.00  0.00    +0.000 A 
ATOM      8  C   UNL     1       2.776  13.133  18.165  0.00  0.00    +0.000 A 
ATOM      9  C   UNL     1       3.157  14.306  18.808  0.00  0.00    +0.000 A 
ATOM     10 CL   UNL     1       4.308  15.352  18.073  0.00  0.00    +0.000 Cl
ATOM     11  C   UNL     1       2.635  14.617  20.058  0.00  0.00    +0.000 A 
ATOM     12  C   UNL     1       1.800  13.702  20.708  0.00  0.00    +0.000 A 
ENDBRANCH   2   6
BRANCH   1  13
ATOM     13  S   UNL     1       1.017   8.657  20.853  0.00  0.00    +0.000 S 
ATOM     14  O   UNL     1      -0.205   7.948  21.142  0.00  0.00    +0.000 OA
ATOM     15  O   UNL     1       1.940   8.945  21.932  0.00  0.00    +0.000 OA
BRANCH  13  22
ATOM     16  C   UNL     1       1.787   5.597  21.046  0.00  0.00    +0.000 C 
ATOM     17  C   UNL     1       2.241   6.357  19.833  0.00  0.00    +0.000 A 
ATOM     18  C   UNL     1       3.072   5.697  18.907  0.00  0.00    +0.000 A 
ATOM     19  C   UNL     1       3.554   6.360  17.779  0.00  0.00    +0.000 A 
ATOM     20  C   UNL     1       3.221   7.694  17.563  0.00  0.00    +0.000 A 
ATOM     21  C   UNL     1       2.395   8.369  18.470  0.00  0.00    +0.000 A 
ATOM     22  C   UNL     1       1.899   7.707  19.607  0.00  0.00    +0.000 A 
ENDBRANCH  13  22
ENDBRANCH   1  13
BRANCH   3  23
ATOM     23  C   UNL     1      -0.959  11.171  22.817  0.00  0.00    +0.000 C 
ATOM     24  O   UNL     1      -2.016  11.492  23.332  0.00  0.00    +0.000 OA
BRANCH  23  25
ATOM     25  O   UNL     1      -0.120  10.292  23.406  0.00  0.00    +0.000 OA
ATOM     26  H   UNL     1      -0.485   9.413  23.657  0.00  0.00    +0.000 HD
ENDBRANCH  23  25
ENDBRANCH   3  23
BRANCH   5  27
ATOM     27  C   UNL     1      -1.158  10.658  18.214  0.00  0.00    +0.000 C 
BRANCH  27  28
ATOM     28  C   UNL     1      -2.538  10.465  17.601  0.00  0.00    +0.000 C 
ATOM     29  C   UNL     1      -3.540  11.606  17.715  0.00  0.00    +0.000 C 
ATOM     30  C   UNL     1      -4.608  11.195  16.700  0.00  0.00    +0.000 C 
ATOM     31  C   UNL     1      -3.846  10.537  15.551  0.00  0.00    +0.000 C 
ATOM     32  C   UNL     1      -2.425  10.344  16.068  0.00  0.00    +0.000 C 
ENDBRANCH  27  28
ENDBRANCH   5  27
TORSDOF 7
ENDMDL
MODEL 2
REMARK VINA RESULT:      -7.8      5.828      8.603
REMARK  Name = 
REMARK  8 active torsions:
REMARK  status: ('A' for Active; 'I' for Inactive)
REMARK    1  A    between atoms: C_1  and  C_2
REMARK    2  A    between atoms: C_7  and  S_8
REMARK    3  A    between atoms: S_8  and  N_11
REMARK    4  A    between atoms: C_12  and  C_13
REMARK    5  A    between atoms: C_20  and  C_21
REMARK    6  A    between atoms: C_21  and  O_23
REMARK    7  A    between atoms: C_25  and  C_26
REMARK    8  A    between atoms: C_26  and  C_27
REMARK                            x       y       z     vdW  Elec       q    Type
REMARK                         _______ _______ _______ _____ _____    ______ ____
ROOT
ATOM      1  N   UNL     1       5.677   5.145  17.059  0.00  0.00    +0.000 NA
ATOM      2  C   UNL     1       5.675   6.308  18.054  0.00  0.00    +0.000 C 
ATOM      3  C   UNL     1       6.070   5.582  19.333  0.00  0.00    +0.000 C 
ATOM      4  C   UNL     1       5.570   4.340  19.305  0.00  0.00    +0.000 C 
ATOM      5  C   UNL     1       5.488   3.870  17.863  0.00  0.00    +0.000 C 
ENDROOT
BRANCH   2   6
ATOM      6  C   UNL     1       4.233   6.874  18.089  0.00  0.00    +0.000 A 
ATOM      7  C   UNL     1       3.737   7.751  17.107  0.00  0.00    +0.000 A 
ATOM      8  C   UNL     1       2.574   8.493  17.334  0.00  0.00    +0.000 A 
ATOM      9  C   UNL     1       1.859   8.323  18.516  0.00  0.00    +0.000 A 
ATOM     10 CL   UNL     1       0.509   9.335  18.854  0.00  0.00    +0.000 Cl
ATOM     11  C   UNL     1       2.253   7.361  19.437  0.00  0.00    +0.000 A 
ATOM     12  C   UNL     1       3.425   6.629  19.218  0.00  0.00    +0.000 A 
ENDBRANCH   2   6
BRANCH   1  13
ATOM     13  S   UNL     1       7.093   5.172  16.067  0.00  0.00    +0.000 S 
ATOM     14  O   UNL     1       8.047   4.257  16.642  0.00  0.00    +0.000 OA
ATOM     15  O   UNL     1       7.475   6.553  15.858  0.00  0.00    +0.000 OA
BRANCH  13  22
ATOM     16  C   UNL     1       8.648   5.479  13.332  0.00  0.00    +0.000 C 
ATOM     17  C   UNL     1       7.339   4.744  13.313  0.00  0.00    +0.000 A 
ATOM     18  C   UNL     1       6.826   4.331  12.069  0.00  0.00    +0.000 A 
ATOM     19  C   UNL     1       5.597   3.676  11.982  0.00  0.00    +0.000 A 
ATOM     20  C   UNL     1       4.859   3.431  13.136  0.00  0.00    +0.000 A 
ATOM     21  C   UNL     1       5.351   3.832  14.385  0.00  0.00    +0.000 A 
ATOM     22  C   UNL     1       6.591   4.487  14.482  0.00  0.00    +0.000 A 
ENDBRANCH  13  22
ENDBRANCH   1  13
BRANCH   3  23
ATOM     23  C   UNL     1       7.489   5.648  19.769  0.00  0.00    +0.000 C 
ATOM     24  O   UNL     1       7.891   5.103  20.781  0.00  0.00    +0.000 OA
BRANCH  23  25
ATOM     25  O   UNL     1       8.323   6.312  18.939  0.00  0.00    +0.000 OA
ATOM     26  H   UNL     1       7.960   6.609  18.072  0.00  0.00    +0.000 HD
ENDBRANCH  23  25
ENDBRANCH   3  23
BRANCH   5  27
ATOM     27  C   UNL     1       4.135   3.153  17.763  0.00  0.00    +0.000 C 
BRANCH  27  28
ATOM     28  C   UNL     1       3.013   3.436  18.753  0.00  0.00    +0.000 C 
ATOM     29  C   UNL     1       1.592   3.544  18.215  0.00  0.00    +0.000 C 
ATOM     30  C   UNL     1       0.759   3.454  19.495  0.00  0.00    +0.000 C 
ATOM     31  C   UNL     1       1.502   2.468  20.396  0.00  0.00    +0.000 C 
ATOM     32  C   UNL     1       2.854   2.251  19.726  0.00  0.00    +0.000 C 
ENDBRANCH  27  28
ENDBRANCH   5  27
TORSDOF 7
ENDMDL
MODEL 3
REMARK VINA RESULT:      -7.5      5.217      8.448
REMARK  Name = 
REMARK  8 active torsions:
REMARK  status: ('A' for Active; 'I' for Inactive)
REMARK    1  A    between atoms: C_1  and  C_2
REMARK    2  A    between atoms: C_7  and  S_8
REMARK    3  A    between atoms: S_8  and  N_11
REMARK    4  A    between atoms: C_12  and  C_13
REMARK    5  A    between atoms: C_20  and  C_21
REMARK    6  A    between atoms: C_21  and  O_23
REMARK    7  A    between atoms: C_25  and  C_26
REMARK    8  A    between atoms: C_26  and  C_27
REMARK                            x       y       z     vdW  Elec       q    Type
REMARK                         _______ _______ _______ _____ _____    ______ ____
ROOT
ATOM      1  N   UNL     1       4.966   4.998  17.855  0.00  0.00    +0.000 NA
ATOM      2  C   UNL     1       6.341   4.828  17.204  0.00  0.00    +0.000 C 
ATOM      3  C   UNL     1       6.994   6.151  17.579  0.00  0.00    +0.000 C 
ATOM      4  C   UNL     1       6.058   7.109  17.613  0.00  0.00    +0.000 C 
ATOM      5  C   UNL     1       4.729   6.490  18.012  0.00  0.00    +0.000 C 
ENDROOT
BRANCH   2   6
ATOM      6  C   UNL     1       6.105   4.670  15.680  0.00  0.00    +0.000 A 
ATOM      7  C   UNL     1       4.911   4.150  15.147  0.00  0.00    +0.000 A 
ATOM      8  C   UNL     1       4.853   3.715  13.818  0.00  0.00    +0.000 A 
ATOM      9  C   UNL     1       5.964   3.851  12.992  0.00  0.00    +0.000 A 
ATOM     10 CL   UNL     1       5.937   3.189  11.404  0.00  0.00    +0.000 Cl
ATOM     11  C   UNL     1       7.107   4.489  13.458  0.00  0.00    +0.000 A 
ATOM     12  C   UNL     1       7.172   4.910  14.790  0.00  0.00    +0.000 A 
ENDBRANCH   2   6
BRANCH   1  13
ATOM     13  S   UNL     1       4.851   4.088  19.321  0.00  0.00    +0.000 S 
ATOM     14  O   UNL     1       5.176   4.973  20.412  0.00  0.00    +0.000 OA
ATOM     15  O   UNL     1       5.604   2.863  19.155  0.00  0.00    +0.000 OA
BRANCH  13  22
ATOM     16  C   UNL     1       3.291   1.949  17.595  0.00  0.00    +0.000 C 
ATOM     17  C   UNL     1       2.511   2.725  18.618  0.00  0.00    +0.000 A 
ATOM     18  C   UNL     1       1.117   2.536  18.675  0.00  0.00    +0.000 A 
ATOM     19  C   UNL     1       0.334   3.254  19.579  0.00  0.00    +0.000 A 
ATOM     20  C   UNL     1       0.931   4.177  20.433  0.00  0.00    +0.000 A 
ATOM     21  C   UNL     1       2.316   4.379  20.394  0.00  0.00    +0.000 A 
ATOM     22  C   UNL     1       3.114   3.655  19.491  0.00  0.00    +0.000 A 
ENDBRANCH  13  22
ENDBRANCH   1  13
BRANCH   3  23
ATOM     23  C   UNL     1       7.917   6.173  18.743  0.00  0.00    +0.000 C 
ATOM     24  O   UNL     1       8.162   5.181  19.406  0.00  0.00    +0.000 OA
BRANCH  23  25
ATOM     25  O   UNL     1       8.514   7.359  18.991  0.00  0.00    +0.000 OA
ATOM     26  H   UNL     1       8.577   7.649  19.930  0.00  0.00    +0.000 HD
ENDBRANCH  23  25
ENDBRANCH   3  23
BRANCH   5  27
ATOM     27  C   UNL     1       3.698   7.155  17.091  0.00  0.00    +0.000 C 
BRANCH  27  28
ATOM     28  C   UNL     1       2.451   7.826  17.650  0.00  0.00    +0.000 C 
ATOM     29  C   UNL     1       2.205   7.748  19.151  0.00  0.00    +0.000 C 
ATOM     30  C   UNL     1       1.122   8.810  19.352  0.00  0.00    +0.000 C 
ATOM     31  C   UNL     1       1.462   9.929  18.370  0.00  0.00    +0.000 C 
ATOM     32  C   UNL     1       2.542   9.354  17.460  0.00  0.00    +0.000 C 
ENDBRANCH  27  28
ENDBRANCH   5  27
TORSDOF 7
ENDMDL
MODEL 4
REMARK VINA RESULT:      -7.4      1.135      1.674
REMARK  Name = 
REMARK  8 active torsions:
REMARK  status: ('A' for Active; 'I' for Inactive)
REMARK    1  A    between atoms: C_1  and  C_2
REMARK    2  A    between atoms: C_7  and  S_8
REMARK    3  A    between atoms: S_8  and  N_11
REMARK    4  A    between atoms: C_12  and  C_13
REMARK    5  A    between atoms: C_20  and  C_21
REMARK    6  A    between atoms: C_21  and  O_23
REMARK    7  A    between atoms: C_25  and  C_26
REMARK    8  A    between atoms: C_26  and  C_27
REMARK                            x       y       z     vdW  Elec       q    Type
REMARK                         _______ _______ _______ _____ _____    ______ ____
ROOT
ATOM      1  N   UNL     1       0.277  11.210  20.437  0.00  0.00    +0.000 NA
ATOM      2  C   UNL     1       0.407  12.222  21.578  0.00  0.00    +0.000 C 
ATOM      3  C   UNL     1      -1.060  12.505  21.871  0.00  0.00    +0.000 C 
ATOM      4  C   UNL     1      -1.759  12.425  20.730  0.00  0.00    +0.000 C 
ATOM      5  C   UNL     1      -1.089  11.423  19.806  0.00  0.00    +0.000 C 
ENDROOT
BRANCH   2   6
ATOM      6  C   UNL     1       1.168  13.448  21.012  0.00  0.00    +0.000 A 
ATOM      7  C   UNL     1       0.876  14.769  21.400  0.00  0.00    +0.000 A 
ATOM      8  C   UNL     1       1.336  15.853  20.645  0.00  0.00    +0.000 A 
ATOM      9  C   UNL     1       2.142  15.635  19.532  0.00  0.00    +0.000 A 
ATOM     10 CL   UNL     1       2.590  16.956  18.526  0.00  0.00    +0.000 Cl
ATOM     11  C   UNL     1       2.557  14.347  19.213  0.00  0.00    +0.000 A 
ATOM     12  C   UNL     1       2.085  13.261  19.958  0.00  0.00    +0.000 A 
ENDBRANCH   2   6
BRANCH   1  13
ATOM     13  S   UNL     1       0.574   9.599  20.992  0.00  0.00    +0.000 S 
ATOM     14  O   UNL     1      -0.703   8.950  21.156  0.00  0.00    +0.000 OA
ATOM     15  O   UNL     1       1.483   9.668  22.118  0.00  0.00    +0.000 OA
BRANCH  13  22
ATOM     16  C   UNL     1       1.675   6.637  21.033  0.00  0.00    +0.000 C 
ATOM     17  C   UNL     1       1.923   7.458  19.800  0.00  0.00    +0.000 A 
ATOM     18  C   UNL     1       2.722   6.904  18.782  0.00  0.00    +0.000 A 
ATOM     19  C   UNL     1       3.018   7.631  17.629  0.00  0.00    +0.000 A 
ATOM     20  C   UNL     1       2.528   8.925  17.480  0.00  0.00    +0.000 A 
ATOM     21  C   UNL     1       1.730   9.495  18.479  0.00  0.00    +0.000 A 
ATOM     22  C   UNL     1       1.421   8.767  19.642  0.00  0.00    +0.000 A 
ENDBRANCH  13  22
ENDBRANCH   1  13
BRANCH   3  23
ATOM     23  C   UNL     1      -1.696  11.800  23.014  0.00  0.00    +0.000 C 
ATOM     24  O   UNL     1      -2.792  12.109  23.448  0.00  0.00    +0.000 OA
BRANCH  23  25
ATOM     25  O   UNL     1      -1.002  10.755  23.514  0.00  0.00    +0.000 OA
ATOM     26  H   UNL     1      -0.112  10.576  23.131  0.00  0.00    +0.000 HD
ENDBRANCH  23  25
ENDBRANCH   3  23
BRANCH   5  27
ATOM     27  C   UNL     1      -1.145  12.074  18.418  0.00  0.00    +0.000 C 
BRANCH  27  28
ATOM     28  C   UNL     1      -1.953  11.458  17.285  0.00  0.00    +0.000 C 
ATOM     29  C   UNL     1      -1.832   9.958  17.050  0.00  0.00    +0.000 C 
ATOM     30  C   UNL     1      -3.022   9.683  16.129  0.00  0.00    +0.000 C 
ATOM     31  C   UNL     1      -4.133  10.615  16.609  0.00  0.00    +0.000 C 
ATOM     32  C   UNL     1      -3.461  11.573  17.586  0.00  0.00    +0.000 C 
ENDBRANCH  27  28
ENDBRANCH   5  27
TORSDOF 7
ENDMDL
MODEL 5
REMARK VINA RESULT:      -7.4      5.181      8.396
REMARK  Name = 
REMARK  8 active torsions:
REMARK  status: ('A' for Active; 'I' for Inactive)
REMARK    1  A    between atoms: C_1  and  C_2
REMARK    2  A    between atoms: C_7  and  S_8
REMARK    3  A    between atoms: S_8  and  N_11
REMARK    4  A    between atoms: C_12  and  C_13
REMARK    5  A    between atoms: C_20  and  C_21
REMARK    6  A    between atoms: C_21  and  O_23
REMARK    7  A    between atoms: C_25  and  C_26
REMARK    8  A    between atoms: C_26  and  C_27
REMARK                            x       y       z     vdW  Elec       q    Type
REMARK                         _______ _______ _______ _____ _____    ______ ____
ROOT
ATOM      1  N   UNL     1       5.025   5.160  17.779  0.00  0.00    +0.000 NA
ATOM      2  C   UNL     1       6.423   4.894  17.215  0.00  0.00    +0.000 C 
ATOM      3  C   UNL     1       7.145   6.163  17.645  0.00  0.00    +0.000 C 
ATOM      4  C   UNL     1       6.281   7.187  17.630  0.00  0.00    +0.000 C 
ATOM      5  C   UNL     1       4.887   6.665  17.937  0.00  0.00    +0.000 C 
ENDROOT
BRANCH   2   6
ATOM      6  C   UNL     1       6.275   4.763  15.677  0.00  0.00    +0.000 A 
ATOM      7  C   UNL     1       5.161   4.154  15.071  0.00  0.00    +0.000 A 
ATOM      8  C   UNL     1       5.206   3.757  13.730  0.00  0.00    +0.000 A 
ATOM      9  C   UNL     1       6.337   4.020  12.964  0.00  0.00    +0.000 A 
ATOM     10 CL   UNL     1       6.446   3.409  11.360  0.00  0.00    +0.000 Cl
ATOM     11  C   UNL     1       7.393   4.745  13.504  0.00  0.00    +0.000 A 
ATOM     12  C   UNL     1       7.355   5.127  14.849  0.00  0.00    +0.000 A 
ENDBRANCH   2   6
BRANCH   1  13
ATOM     13  S   UNL     1       4.749   4.252  19.224  0.00  0.00    +0.000 S 
ATOM     14  O   UNL     1       4.886   5.155  20.340  0.00  0.00    +0.000 OA
ATOM     15  O   UNL     1       5.570   3.060  19.174  0.00  0.00    +0.000 OA
BRANCH  13  22
ATOM     16  C   UNL     1       3.253   2.478  21.369  0.00  0.00    +0.000 C 
ATOM     17  C   UNL     1       2.483   2.898  20.150  0.00  0.00    +0.000 A 
ATOM     18  C   UNL     1       1.181   2.391  19.977  0.00  0.00    +0.000 A 
ATOM     19  C   UNL     1       0.430   2.717  18.848  0.00  0.00    +0.000 A 
ATOM     20  C   UNL     1       0.971   3.546  17.871  0.00  0.00    +0.000 A 
ATOM     21  C   UNL     1       2.263   4.063  18.023  0.00  0.00    +0.000 A 
ATOM     22  C   UNL     1       3.026   3.746  19.161  0.00  0.00    +0.000 A 
ENDBRANCH  13  22
ENDBRANCH   1  13
BRANCH   3  23
ATOM     23  C   UNL     1       7.991   6.111  18.866  0.00  0.00    +0.000 C 
ATOM     24  O   UNL     1       8.149   5.090  19.512  0.00  0.00    +0.000 OA
BRANCH  23  25
ATOM     25  O   UNL     1       8.620   7.261  19.189  0.00  0.00    +0.000 OA
ATOM     26  H   UNL     1       9.566   7.202  19.456  0.00  0.00    +0.000 HD
ENDBRANCH  23  25
ENDBRANCH   3  23
BRANCH   5  27
ATOM     27  C   UNL     1       3.969   7.409  16.959  0.00  0.00    +0.000 C 
BRANCH  27  28
ATOM     28  C   UNL     1       2.654   8.025  17.418  0.00  0.00    +0.000 C 
ATOM     29  C   UNL     1       2.200   7.765  18.848  0.00  0.00    +0.000 C 
ATOM     30  C   UNL     1       1.098   8.810  19.028  0.00  0.00    +0.000 C 
ATOM     31  C   UNL     1       1.569  10.037  18.250  0.00  0.00    +0.000 C 
ATOM     32  C   UNL     1       2.767   9.562  17.435  0.00  0.00    +0.000 C 
ENDBRANCH  27  28
ENDBRANCH   5  27
TORSDOF 7
ENDMDL
MODEL 6
REMARK VINA RESULT:      -7.3      3.367      5.966
REMARK  Name = 
REMARK  8 active torsions:
REMARK  status: ('A' for Active; 'I' for Inactive)
REMARK    1  A    between atoms: C_1  and  C_2
REMARK    2  A    between atoms: C_7  and  S_8
REMARK    3  A    between atoms: S_8  and  N_11
REMARK    4  A    between atoms: C_12  and  C_13
REMARK    5  A    between atoms: C_20  and  C_21
REMARK    6  A    between atoms: C_21  and  O_23
REMARK    7  A    between atoms: C_25  and  C_26
REMARK    8  A    between atoms: C_26  and  C_27
REMARK                            x       y       z     vdW  Elec       q    Type
REMARK                         _______ _______ _______ _____ _____    ______ ____
ROOT
ATOM      1  N   UNL     1      -0.058  12.438  20.290  0.00  0.00    +0.000 NA
ATOM      2  C   UNL     1      -0.116  11.933  21.734  0.00  0.00    +0.000 C 
ATOM      3  C   UNL     1      -0.203  10.432  21.503  0.00  0.00    +0.000 C 
ATOM      4  C   UNL     1      -0.887  10.199  20.375  0.00  0.00    +0.000 C 
ATOM      5  C   UNL     1      -0.671  11.357  19.415  0.00  0.00    +0.000 C 
ENDROOT
BRANCH   2   6
ATOM      6  C   UNL     1      -1.396  12.532  22.372  0.00  0.00    +0.000 A 
ATOM      7  C   UNL     1      -2.166  11.838  23.323  0.00  0.00    +0.000 A 
ATOM      8  C   UNL     1      -3.467  12.252  23.627  0.00  0.00    +0.000 A 
ATOM      9  C   UNL     1      -3.991  13.396  23.033  0.00  0.00    +0.000 A 
ATOM     10 CL   UNL     1      -5.635  13.824  23.300  0.00  0.00    +0.000 Cl
ATOM     11  C   UNL     1      -3.198  14.174  22.199  0.00  0.00    +0.000 A 
ATOM     12  C   UNL     1      -1.902  13.753  21.882  0.00  0.00    +0.000 A 
ENDBRANCH   2   6
BRANCH   1  13
ATOM     13  S   UNL     1       1.551  12.898  19.851  0.00  0.00    +0.000 S 
ATOM     14  O   UNL     1       2.012  11.971  18.848  0.00  0.00    +0.000 OA
ATOM     15  O   UNL     1       2.321  13.066  21.066  0.00  0.00    +0.000 OA
BRANCH  13  22
ATOM     16  C   UNL     1       3.920  14.606  18.644  0.00  0.00    +0.000 C 
ATOM     17  C   UNL     1       2.542  15.201  18.612  0.00  0.00    +0.000 A 
ATOM     18  C   UNL     1       2.400  16.524  18.150  0.00  0.00    +0.000 A 
ATOM     19  C   UNL     1       1.151  17.144  18.130  0.00  0.00    +0.000 A 
ATOM     20  C   UNL     1       0.028  16.457  18.580  0.00  0.00    +0.000 A 
ATOM     21  C   UNL     1       0.146  15.141  19.042  0.00  0.00    +0.000 A 
ATOM     22  C   UNL     1       1.400  14.505  19.060  0.00  0.00    +0.000 A 
ENDBRANCH  13  22
ENDBRANCH   1  13
BRANCH   3  23
ATOM     23  C   UNL     1       1.042   9.629  21.625  0.00  0.00    +0.000 C 
ATOM     24  O   UNL     1       1.736   9.642  22.626  0.00  0.00    +0.000 OA
BRANCH  23  25
ATOM     25  O   UNL     1       1.331   8.839  20.569  0.00  0.00    +0.000 OA
ATOM     26  H   UNL     1       0.731   8.884  19.789  0.00  0.00    +0.000 HD
ENDBRANCH  23  25
ENDBRANCH   3  23
BRANCH   5  27
ATOM     27  C   UNL     1      -2.054  11.624  18.808  0.00  0.00    +0.000 C 
BRANCH  27  28
ATOM     28  C   UNL     1      -2.345  11.339  17.341  0.00  0.00    +0.000 C 
ATOM     29  C   UNL     1      -2.063   9.938  16.813  0.00  0.00    +0.000 C 
ATOM     30  C   UNL     1      -2.805   9.947  15.475  0.00  0.00    +0.000 C 
ATOM     31  C   UNL     1      -4.064  10.778  15.713  0.00  0.00    +0.000 C 
ATOM     32  C   UNL     1      -3.860  11.439  17.072  0.00  0.00    +0.000 C 
ENDBRANCH  27  28
ENDBRANCH   5  27
TORSDOF 7
ENDMDL
MODEL 7
REMARK VINA RESULT:      -7.3      3.397      6.219
REMARK  Name = 
REMARK  8 active torsions:
REMARK  status: ('A' for Active; 'I' for Inactive)
REMARK    1  A    between atoms: C_1  and  C_2
REMARK    2  A    between atoms: C_7  and  S_8
REMARK    3  A    between atoms: S_8  and  N_11
REMARK    4  A    between atoms: C_12  and  C_13
REMARK    5  A    between atoms: C_20  and  C_21
REMARK    6  A    between atoms: C_21  and  O_23
REMARK    7  A    between atoms: C_25  and  C_26
REMARK    8  A    between atoms: C_26  and  C_27
REMARK                            x       y       z     vdW  Elec       q    Type
REMARK                         _______ _______ _______ _____ _____    ______ ____
ROOT
ATOM      1  N   UNL     1      -0.658  12.730  20.602  0.00  0.00    +0.000 NA
ATOM      2  C   UNL     1       0.758  12.436  20.100  0.00  0.00    +0.000 C 
ATOM      3  C   UNL     1       0.738  13.162  18.763  0.00  0.00    +0.000 C 
ATOM      4  C   UNL     1      -0.497  13.099  18.247  0.00  0.00    +0.000 C 
ATOM      5  C   UNL     1      -1.506  13.045  19.381  0.00  0.00    +0.000 C 
ENDROOT
BRANCH   2   6
ATOM      6  C   UNL     1       0.881  10.897  19.962  0.00  0.00    +0.000 A 
ATOM      7  C   UNL     1       0.806  10.028  21.066  0.00  0.00    +0.000 A 
ATOM      8  C   UNL     1       1.243   8.703  20.962  0.00  0.00    +0.000 A 
ATOM      9  C   UNL     1       1.702   8.215  19.742  0.00  0.00    +0.000 A 
ATOM     10 CL   UNL     1       2.368   6.631  19.649  0.00  0.00    +0.000 Cl
ATOM     11  C   UNL     1       1.653   9.015  18.607  0.00  0.00    +0.000 A 
ATOM     12  C   UNL     1       1.230  10.344  18.714  0.00  0.00    +0.000 A 
ENDBRANCH   2   6
BRANCH   1  13
ATOM     13  S   UNL     1      -0.650  13.962  21.815  0.00  0.00    +0.000 S 
ATOM     14  O   UNL     1      -0.811  15.231  21.151  0.00  0.00    +0.000 OA
ATOM     15  O   UNL     1       0.502  13.751  22.668  0.00  0.00    +0.000 OA
BRANCH  13  22
ATOM     16  C   UNL     1      -1.510  11.233  23.157  0.00  0.00    +0.000 C 
ATOM     17  C   UNL     1      -2.440  12.404  23.297  0.00  0.00    +0.000 A 
ATOM     18  C   UNL     1      -3.685  12.194  23.919  0.00  0.00    +0.000 A 
ATOM     19  C   UNL     1      -4.606  13.234  24.046  0.00  0.00    +0.000 A 
ATOM     20  C   UNL     1      -4.300  14.496  23.546  0.00  0.00    +0.000 A 
ATOM     21  C   UNL     1      -3.067  14.728  22.926  0.00  0.00    +0.000 A 
ATOM     22  C   UNL     1      -2.130  13.687  22.798  0.00  0.00    +0.000 A 
ENDBRANCH  13  22
ENDBRANCH   1  13
BRANCH   3  23
ATOM     23  C   UNL     1       1.351  14.514  18.688  0.00  0.00    +0.000 C 
ATOM     24  O   UNL     1       2.556  14.687  18.643  0.00  0.00    +0.000 OA
BRANCH  23  25
ATOM     25  O   UNL     1       0.481  15.544  18.620  0.00  0.00    +0.000 OA
ATOM     26  H   UNL     1      -0.387  15.437  19.073  0.00  0.00    +0.000 HD
ENDBRANCH  23  25
ENDBRANCH   3  23
BRANCH   5  27
ATOM     27  C   UNL     1      -2.538  12.000  18.935  0.00  0.00    +0.000 C 
BRANCH  27  28
ATOM     28  C   UNL     1      -2.534  11.436  17.521  0.00  0.00    +0.000 C 
ATOM     29  C   UNL     1      -2.228   9.955  17.340  0.00  0.00    +0.000 C 
ATOM     30  C   UNL     1      -2.675   9.712  15.898  0.00  0.00    +0.000 C 
ATOM     31  C   UNL     1      -3.908  10.592  15.699  0.00  0.00    +0.000 C 
ATOM     32  C   UNL     1      -3.953  11.504  16.920  0.00  0.00    +0.000 C 
ENDBRANCH  27  28
ENDBRANCH   5  27
TORSDOF 7
ENDMDL
MODEL 8
REMARK VINA RESULT:      -7.2      1.179      1.552
REMARK  Name = 
REMARK  8 active torsions:
REMARK  status: ('A' for Active; 'I' for Inactive)
REMARK    1  A    between atoms: C_1  and  C_2
REMARK    2  A    between atoms: C_7  and  S_8
REMARK    3  A    between atoms: S_8  and  N_11
REMARK    4  A    between atoms: C_12  and  C_13
REMARK    5  A    between atoms: C_20  and  C_21
REMARK    6  A    between atoms: C_21  and  O_23
REMARK    7  A    between atoms: C_25  and  C_26
REMARK    8  A    between atoms: C_26  and  C_27
REMARK                            x       y       z     vdW  Elec       q    Type
REMARK                         _______ _______ _______ _____ _____    ______ ____
ROOT
ATOM      1  N   UNL     1       0.216  11.221  20.487  0.00  0.00    +0.000 NA
ATOM      2  C   UNL     1       0.334  12.216  21.645  0.00  0.00    +0.000 C 
ATOM      3  C   UNL     1      -1.136  12.473  21.944  0.00  0.00    +0.000 C 
ATOM      4  C   UNL     1      -1.835  12.404  20.804  0.00  0.00    +0.000 C 
ATOM      5  C   UNL     1      -1.153  11.426  19.862  0.00  0.00    +0.000 C 
ENDROOT
BRANCH   2   6
ATOM      6  C   UNL     1       1.078  13.461  21.098  0.00  0.00    +0.000 A 
ATOM      7  C   UNL     1       1.979  13.395  20.020  0.00  0.00    +0.000 A 
ATOM      8  C   UNL     1       2.868  14.445  19.768  0.00  0.00    +0.000 A 
ATOM      9  C   UNL     1       2.827  15.596  20.548  0.00  0.00    +0.000 A 
ATOM     10 CL   UNL     1       4.010  16.825  20.327  0.00  0.00    +0.000 Cl
ATOM     11  C   UNL     1       1.852  15.739  21.528  0.00  0.00    +0.000 A 
ATOM     12  C   UNL     1       0.972  14.684  21.792  0.00  0.00    +0.000 A 
ENDBRANCH   2   6
BRANCH   1  13
ATOM     13  S   UNL     1       0.536   9.605  21.015  0.00  0.00    +0.000 S 
ATOM     14  O   UNL     1      -0.732   8.938  21.174  0.00  0.00    +0.000 OA
ATOM     15  O   UNL     1       1.450   9.667  22.137  0.00  0.00    +0.000 OA
BRANCH  13  22
ATOM     16  C   UNL     1       1.645   6.646  20.990  0.00  0.00    +0.000 C 
ATOM     17  C   UNL     1       1.892   7.495  19.777  0.00  0.00    +0.000 A 
ATOM     18  C   UNL     1       2.694   6.966  18.747  0.00  0.00    +0.000 A 
ATOM     19  C   UNL     1       2.990   7.720  17.611  0.00  0.00    +0.000 A 
ATOM     20  C   UNL     1       2.496   9.015  17.491  0.00  0.00    +0.000 A 
ATOM     21  C   UNL     1       1.695   9.561  18.502  0.00  0.00    +0.000 A 
ATOM     22  C   UNL     1       1.387   8.806  19.648  0.00  0.00    +0.000 A 
ENDBRANCH  13  22
ENDBRANCH   1  13
BRANCH   3  23
ATOM     23  C   UNL     1      -1.761  11.741  23.076  0.00  0.00    +0.000 C 
ATOM     24  O   UNL     1      -2.856  12.034  23.522  0.00  0.00    +0.000 OA
BRANCH  23  25
ATOM     25  O   UNL     1      -1.057  10.691  23.550  0.00  0.00    +0.000 OA
ATOM     26  H   UNL     1      -0.142  10.565  23.208  0.00  0.00    +0.000 HD
ENDBRANCH  23  25
ENDBRANCH   3  23
BRANCH   5  27
ATOM     27  C   UNL     1      -1.220  12.100  18.485  0.00  0.00    +0.000 C 
BRANCH  27  28
ATOM     28  C   UNL     1      -1.976  11.464  17.327  0.00  0.00    +0.000 C 
ATOM     29  C   UNL     1      -1.816   9.967  17.101  0.00  0.00    +0.000 C 
ATOM     30  C   UNL     1      -2.968   9.664  16.141  0.00  0.00    +0.000 C 
ATOM     31  C   UNL     1      -4.113  10.574  16.580  0.00  0.00    +0.000 C 
ATOM     32  C   UNL     1      -3.495  11.549  17.576  0.00  0.00    +0.000 C 
ENDBRANCH  27  28
ENDBRANCH   5  27
TORSDOF 7
ENDMDL
MODEL 9
REMARK VINA RESULT:      -7.1      3.291      5.999
REMARK  Name = 
REMARK  8 active torsions:
REMARK  status: ('A' for Active; 'I' for Inactive)
REMARK    1  A    between atoms: C_1  and  C_2
REMARK    2  A    between atoms: C_7  and  S_8
REMARK    3  A    between atoms: S_8  and  N_11
REMARK    4  A    between atoms: C_12  and  C_13
REMARK    5  A    between atoms: C_20  and  C_21
REMARK    6  A    between atoms: C_21  and  O_23
REMARK    7  A    between atoms: C_25  and  C_26
REMARK    8  A    between atoms: C_26  and  C_27
REMARK                            x       y       z     vdW  Elec       q    Type
REMARK                         _______ _______ _______ _____ _____    ______ ____
ROOT
ATOM      1  N   UNL     1       0.142  12.671  20.074  0.00  0.00    +0.000 NA
ATOM      2  C   UNL     1       0.059  11.888  21.387  0.00  0.00    +0.000 C 
ATOM      3  C   UNL     1      -0.236  10.490  20.861  0.00  0.00    +0.000 C 
ATOM      4  C   UNL     1      -0.978  10.587  19.750  0.00  0.00    +0.000 C 
ATOM      5  C   UNL     1      -0.636  11.883  19.035  0.00  0.00    +0.000 C 
ENDROOT
BRANCH   2   6
ATOM      6  C   UNL     1      -1.109  12.496  22.205  0.00  0.00    +0.000 A 
ATOM      7  C   UNL     1      -1.958  11.716  23.012  0.00  0.00    +0.000 A 
ATOM      8  C   UNL     1      -3.179  12.225  23.464  0.00  0.00    +0.000 A 
ATOM      9  C   UNL     1      -3.539  13.536  23.169  0.00  0.00    +0.000 A 
ATOM     10 CL   UNL     1      -5.099  14.116  23.605  0.00  0.00    +0.000 Cl
ATOM     11  C   UNL     1      -2.654  14.368  22.493  0.00  0.00    +0.000 A 
ATOM     12  C   UNL     1      -1.439  13.855  22.027  0.00  0.00    +0.000 A 
ENDBRANCH   2   6
BRANCH   1  13
ATOM     13  S   UNL     1       1.784  13.007  19.648  0.00  0.00    +0.000 S 
ATOM     14  O   UNL     1       2.178  12.052  18.643  0.00  0.00    +0.000 OA
ATOM     15  O   UNL     1       2.557  13.110  20.868  0.00  0.00    +0.000 OA
BRANCH  13  22
ATOM     16  C   UNL     1       4.241  14.433  18.263  0.00  0.00    +0.000 C 
ATOM     17  C   UNL     1       2.942  15.185  18.330  0.00  0.00    +0.000 A 
ATOM     18  C   UNL     1       2.921  16.517  17.874  0.00  0.00    +0.000 A 
ATOM     19  C   UNL     1       1.755  17.279  17.943  0.00  0.00    +0.000 A 
ATOM     20  C   UNL     1       0.595  16.725  18.477  0.00  0.00    +0.000 A 
ATOM     21  C   UNL     1       0.593  15.401  18.935  0.00  0.00    +0.000 A 
ATOM     22  C   UNL     1       1.763  14.624  18.863  0.00  0.00    +0.000 A 
ENDBRANCH  13  22
ENDBRANCH   1  13
BRANCH   3  23
ATOM     23  C   UNL     1       0.892   9.530  20.747  0.00  0.00    +0.000 C 
ATOM     24  O   UNL     1       1.382   8.975  21.714  0.00  0.00    +0.000 OA
BRANCH  23  25
ATOM     25  O   UNL     1       1.311   9.271  19.489  0.00  0.00    +0.000 OA
ATOM     26  H   UNL     1       1.969   8.548  19.369  0.00  0.00    +0.000 HD
ENDBRANCH  23  25
ENDBRANCH   3  23
BRANCH   5  27
ATOM     27  C   UNL     1      -1.989  12.442  18.574  0.00  0.00    +0.000 C 
BRANCH  27  28
ATOM     28  C   UNL     1      -3.299  11.770  18.963  0.00  0.00    +0.000 C 
ATOM     29  C   UNL     1      -4.329  12.593  19.725  0.00  0.00    +0.000 C 
ATOM     30  C   UNL     1      -5.585  11.730  19.597  0.00  0.00    +0.000 C 
ATOM     31  C   UNL     1      -5.514  11.112  18.202  0.00  0.00    +0.000 C 
ATOM     32  C   UNL     1      -4.106  11.413  17.699  0.00  0.00    +0.000 C 
ENDBRANCH  27  28
ENDBRANCH   5  27
TORSDOF 7
ENDMDL
