MODEL 1
REMARK VINA RESULT:      -6.6      0.000      0.000
REMARK  Name = 
REMARK  6 active torsions:
REMARK  status: ('A' for Active; 'I' for Inactive)
REMARK    1  A    between atoms: C_1  and  O_2
REMARK    2  A    between atoms: O_2  and  C_3
REMARK    3  A    between atoms: C_7  and  C_8
REMARK    4  A    between atoms: C_8  and  C_9
REMARK    5  A    between atoms: C_9  and  C_10
REMARK    6  A    between atoms: C_9  and  N_11
REMARK                            x       y       z     vdW  Elec       q    Type
REMARK                         _______ _______ _______ _____ _____    ______ ____
ROOT
ATOM      1  C   UNL     1       6.466   6.124  17.120  0.00  0.00    +0.000 A 
ATOM      2  C   UNL     1       5.211   6.331  16.552  0.00  0.00    +0.000 A 
ATOM      3  C   UNL     1       4.110   5.557  16.942  0.00  0.00    +0.000 A 
ATOM      4  C   UNL     1       4.271   4.565  17.929  0.00  0.00    +0.000 A 
ATOM      5  C   UNL     1       3.367   3.711  18.638  0.00  0.00    +0.000 A 
ATOM      6  C   UNL     1       4.143   2.895  19.444  0.00  0.00    +0.000 A 
ATOM      7  N   UNL     1       5.449   3.280  19.309  0.00  0.00    +0.000 N 
ATOM      8  C   UNL     1       5.547   4.330  18.431  0.00  0.00    +0.000 A 
ATOM      9  C   UNL     1       6.659   5.095  18.053  0.00  0.00    +0.000 A 
ATOM     10  H   UNL     1       6.231   2.871  19.805  0.00  0.00    +0.000 HD
ENDROOT
BRANCH   1  12
ATOM     11  C   UNL     1       7.783   8.038  17.620  0.00  0.00    +0.000 C 
ATOM     12  O   UNL     1       7.591   6.858  16.847  0.00  0.00    +0.000 OA
ENDBRANCH   1  12
BRANCH   5  13
ATOM     13  C   UNL     1       1.870   3.723  18.556  0.00  0.00    +0.000 C 
BRANCH  13  14
ATOM     14  C   UNL     1       1.161   4.169  19.862  0.00  0.00    +0.000 C 
ATOM     15  C   UNL     1       1.925   5.253  20.625  0.00  0.00    +0.000 C 
BRANCH  14  16
ATOM     16  N   UNL     1       0.883   3.055  20.783  0.00  0.00    +0.000 NA
ATOM     17  H   UNL     1       0.508   2.276  20.237  0.00  0.00    +0.000 HD
ATOM     18  H   UNL     1       0.130   3.323  21.414  0.00  0.00    +0.000 HD
ENDBRANCH  14  16
ENDBRANCH  13  14
ENDBRANCH   5  13
TORSDOF 4
ENDMDL
MODEL 2
REMARK VINA RESULT:      -6.6      2.926      5.522
REMARK  Name = 
REMARK  6 active torsions:
REMARK  status: ('A' for Active; 'I' for Inactive)
REMARK    1  A    between atoms: C_1  and  O_2
REMARK    2  A    between atoms: O_2  and  C_3
REMARK    3  A    between atoms: C_7  and  C_8
REMARK    4  A    between atoms: C_8  and  C_9
REMARK    5  A    between atoms: C_9  and  C_10
REMARK    6  A    between atoms: C_9  and  N_11
REMARK                            x       y       z     vdW  Elec       q    Type
REMARK                         _______ _______ _______ _____ _____    ______ ____
ROOT
ATOM      1  C   UNL     1       2.380   3.121  19.413  0.00  0.00    +0.000 A 
ATOM      2  C   UNL     1       1.915   3.967  18.408  0.00  0.00    +0.000 A 
ATOM      3  C   UNL     1       2.807   4.726  17.638  0.00  0.00    +0.000 A 
ATOM      4  C   UNL     1       4.192   4.624  17.875  0.00  0.00    +0.000 A 
ATOM      5  C   UNL     1       5.354   5.135  17.214  0.00  0.00    +0.000 A 
ATOM      6  C   UNL     1       6.445   4.742  17.972  0.00  0.00    +0.000 A 
ATOM      7  N   UNL     1       5.992   3.957  18.997  0.00  0.00    +0.000 N 
ATOM      8  C   UNL     1       4.627   3.828  18.930  0.00  0.00    +0.000 A 
ATOM      9  C   UNL     1       3.749   3.062  19.709  0.00  0.00    +0.000 A 
ATOM     10  H   UNL     1       6.578   3.510  19.691  0.00  0.00    +0.000 HD
ENDROOT
BRANCH   1  12
ATOM     11  C   UNL     1       1.477   2.652  21.560  0.00  0.00    +0.000 C 
ATOM     12  O   UNL     1       1.598   2.302  20.185  0.00  0.00    +0.000 OA
ENDBRANCH   1  12
BRANCH   5  13
ATOM     13  C   UNL     1       5.390   5.909  15.931  0.00  0.00    +0.000 C 
BRANCH  13  14
ATOM     14  C   UNL     1       6.134   5.195  14.773  0.00  0.00    +0.000 C 
ATOM     15  C   UNL     1       5.881   3.686  14.731  0.00  0.00    +0.000 C 
BRANCH  14  16
ATOM     16  N   UNL     1       7.587   5.427  14.784  0.00  0.00    +0.000 NA
ATOM     17  H   UNL     1       7.770   6.325  14.332  0.00  0.00    +0.000 HD
ATOM     18  H   UNL     1       8.041   4.734  14.191  0.00  0.00    +0.000 HD
ENDBRANCH  14  16
ENDBRANCH  13  14
ENDBRANCH   5  13
TORSDOF 4
ENDMDL
MODEL 3
REMARK VINA RESULT:      -6.5      3.307      5.962
REMARK  Name = 
REMARK  6 active torsions:
REMARK  status: ('A' for Active; 'I' for Inactive)
REMARK    1  A    between atoms: C_1  and  O_2
REMARK    2  A    between atoms: O_2  and  C_3
REMARK    3  A    between atoms: C_7  and  C_8
REMARK    4  A    between atoms: C_8  and  C_9
REMARK    5  A    between atoms: C_9  and  C_10
REMARK    6  A    between atoms: C_9  and  N_11
REMARK                            x       y       z     vdW  Elec       q    Type
REMARK                         _______ _______ _______ _____ _____    ______ ____
ROOT
ATOM      1  C   UNL     1       1.723   3.472  19.258  0.00  0.00    +0.000 A 
ATOM      2  C   UNL     1       2.229   2.449  18.458  0.00  0.00    +0.000 A 
ATOM      3  C   UNL     1       3.211   2.711  17.494  0.00  0.00    +0.000 A 
ATOM      4  C   UNL     1       3.702   4.022  17.338  0.00  0.00    +0.000 A 
ATOM      5  C   UNL     1       4.761   4.602  16.570  0.00  0.00    +0.000 A 
ATOM      6  C   UNL     1       4.706   5.969  16.789  0.00  0.00    +0.000 A 
ATOM      7  N   UNL     1       3.724   6.214  17.709  0.00  0.00    +0.000 N 
ATOM      8  C   UNL     1       3.132   5.038  18.098  0.00  0.00    +0.000 A 
ATOM      9  C   UNL     1       2.149   4.794  19.067  0.00  0.00    +0.000 A 
ATOM     10  H   UNL     1       3.483   7.126  18.076  0.00  0.00    +0.000 HD
ENDROOT
BRANCH   1  12
ATOM     11  C   UNL     1       1.305   2.892  21.523  0.00  0.00    +0.000 C 
ATOM     12  O   UNL     1       0.802   3.313  20.260  0.00  0.00    +0.000 OA
ENDBRANCH   1  12
BRANCH   5  13
ATOM     13  C   UNL     1       5.762   3.873  15.726  0.00  0.00    +0.000 C 
BRANCH  13  14
ATOM     14  C   UNL     1       6.211   4.642  14.456  0.00  0.00    +0.000 C 
ATOM     15  C   UNL     1       6.225   3.775  13.195  0.00  0.00    +0.000 C 
BRANCH  14  16
ATOM     16  N   UNL     1       7.529   5.282  14.599  0.00  0.00    +0.000 NA
ATOM     17  H   UNL     1       7.421   6.281  14.411  0.00  0.00    +0.000 HD
ATOM     18  H   UNL     1       8.148   4.940  13.867  0.00  0.00    +0.000 HD
ENDBRANCH  14  16
ENDBRANCH  13  14
ENDBRANCH   5  13
TORSDOF 4
ENDMDL
MODEL 4
REMARK VINA RESULT:      -6.4      3.177      5.680
REMARK  Name = 
REMARK  6 active torsions:
REMARK  status: ('A' for Active; 'I' for Inactive)
REMARK    1  A    between atoms: C_1  and  O_2
REMARK    2  A    between atoms: O_2  and  C_3
REMARK    3  A    between atoms: C_7  and  C_8
REMARK    4  A    between atoms: C_8  and  C_9
REMARK    5  A    between atoms: C_9  and  C_10
REMARK    6  A    between atoms: C_9  and  N_11
REMARK                            x       y       z     vdW  Elec       q    Type
REMARK                         _______ _______ _______ _____ _____    ______ ____
ROOT
ATOM      1  C   UNL     1       2.366   2.934  19.382  0.00  0.00    +0.000 A 
ATOM      2  C   UNL     1       1.855   3.311  18.142  0.00  0.00    +0.000 A 
ATOM      3  C   UNL     1       2.691   3.846  17.153  0.00  0.00    +0.000 A 
ATOM      4  C   UNL     1       4.068   3.994  17.410  0.00  0.00    +0.000 A 
ATOM      5  C   UNL     1       5.195   4.368  16.611  0.00  0.00    +0.000 A 
ATOM      6  C   UNL     1       6.290   4.395  17.459  0.00  0.00    +0.000 A 
ATOM      7  N   UNL     1       5.882   3.977  18.696  0.00  0.00    +0.000 N 
ATOM      8  C   UNL     1       4.543   3.677  18.679  0.00  0.00    +0.000 A 
ATOM      9  C   UNL     1       3.721   3.140  19.679  0.00  0.00    +0.000 A 
ATOM     10  H   UNL     1       6.484   3.874  19.504  0.00  0.00    +0.000 HD
ENDROOT
BRANCH   1  12
ATOM     11  C   UNL     1       1.933   2.807  21.714  0.00  0.00    +0.000 C 
ATOM     12  O   UNL     1       1.646   2.356  20.394  0.00  0.00    +0.000 OA
ENDBRANCH   1  12
BRANCH   5  13
ATOM     13  C   UNL     1       5.200   4.638  15.137  0.00  0.00    +0.000 C 
BRANCH  13  14
ATOM     14  C   UNL     1       6.421   4.052  14.382  0.00  0.00    +0.000 C 
ATOM     15  C   UNL     1       7.422   5.118  13.930  0.00  0.00    +0.000 C 
BRANCH  14  16
ATOM     16  N   UNL     1       6.048   3.235  13.216  0.00  0.00    +0.000 NA
ATOM     17  H   UNL     1       5.789   3.865  12.455  0.00  0.00    +0.000 HD
ATOM     18  H   UNL     1       5.199   2.715  13.431  0.00  0.00    +0.000 HD
ENDBRANCH  14  16
ENDBRANCH  13  14
ENDBRANCH   5  13
TORSDOF 4
ENDMDL
MODEL 5
REMARK VINA RESULT:      -6.4      0.840      1.192
REMARK  Name = 
REMARK  6 active torsions:
REMARK  status: ('A' for Active; 'I' for Inactive)
REMARK    1  A    between atoms: C_1  and  O_2
REMARK    2  A    between atoms: O_2  and  C_3
REMARK    3  A    between atoms: C_7  and  C_8
REMARK    4  A    between atoms: C_8  and  C_9
REMARK    5  A    between atoms: C_9  and  C_10
REMARK    6  A    between atoms: C_9  and  N_11
REMARK                            x       y       z     vdW  Elec       q    Type
REMARK                         _______ _______ _______ _____ _____    ______ ____
ROOT
ATOM      1  C   UNL     1       6.571   6.761  17.217  0.00  0.00    +0.000 A 
ATOM      2  C   UNL     1       5.251   7.089  16.915  0.00  0.00    +0.000 A 
ATOM      3  C   UNL     1       4.192   6.286  17.358  0.00  0.00    +0.000 A 
ATOM      4  C   UNL     1       4.463   5.138  18.128  0.00  0.00    +0.000 A 
ATOM      5  C   UNL     1       3.646   4.198  18.834  0.00  0.00    +0.000 A 
ATOM      6  C   UNL     1       4.503   3.239  19.351  0.00  0.00    +0.000 A 
ATOM      7  N   UNL     1       5.786   3.612  19.058  0.00  0.00    +0.000 N 
ATOM      8  C   UNL     1       5.791   4.793  18.358  0.00  0.00    +0.000 A 
ATOM      9  C   UNL     1       6.863   5.585  17.923  0.00  0.00    +0.000 A 
ATOM     10  H   UNL     1       6.618   3.107  19.338  0.00  0.00    +0.000 HD
ENDROOT
BRANCH   1  12
ATOM     11  C   UNL     1       8.028   8.555  17.769  0.00  0.00    +0.000 C 
ATOM     12  O   UNL     1       7.671   7.504  16.877  0.00  0.00    +0.000 OA
ENDBRANCH   1  12
BRANCH   5  13
ATOM     13  C   UNL     1       2.160   4.258  19.014  0.00  0.00    +0.000 C 
BRANCH  13  14
ATOM     14  C   UNL     1       1.539   2.984  19.645  0.00  0.00    +0.000 C 
ATOM     15  C   UNL     1       0.600   2.235  18.698  0.00  0.00    +0.000 C 
BRANCH  14  16
ATOM     16  N   UNL     1       0.823   3.248  20.904  0.00  0.00    +0.000 NA
ATOM     17  H   UNL     1       0.142   2.498  21.047  0.00  0.00    +0.000 HD
ATOM     18  H   UNL     1       0.267   4.095  20.800  0.00  0.00    +0.000 HD
ENDBRANCH  14  16
ENDBRANCH  13  14
ENDBRANCH   5  13
TORSDOF 4
ENDMDL
MODEL 6
REMARK VINA RESULT:      -6.4      2.064      2.715
REMARK  Name = 
REMARK  6 active torsions:
REMARK  status: ('A' for Active; 'I' for Inactive)
REMARK    1  A    between atoms: C_1  and  O_2
REMARK    2  A    between atoms: O_2  and  C_3
REMARK    3  A    between atoms: C_7  and  C_8
REMARK    4  A    between atoms: C_8  and  C_9
REMARK    5  A    between atoms: C_9  and  C_10
REMARK    6  A    between atoms: C_9  and  N_11
REMARK                            x       y       z     vdW  Elec       q    Type
REMARK                         _______ _______ _______ _____ _____    ______ ____
ROOT
ATOM      1  C   UNL     1       6.227   5.244  15.857  0.00  0.00    +0.000 A 
ATOM      2  C   UNL     1       5.649   3.993  16.064  0.00  0.00    +0.000 A 
ATOM      3  C   UNL     1       4.456   3.863  16.787  0.00  0.00    +0.000 A 
ATOM      4  C   UNL     1       3.825   5.013  17.301  0.00  0.00    +0.000 A 
ATOM      5  C   UNL     1       2.571   5.254  17.949  0.00  0.00    +0.000 A 
ATOM      6  C   UNL     1       2.549   6.599  18.281  0.00  0.00    +0.000 A 
ATOM      7  N   UNL     1       3.687   7.178  17.788  0.00  0.00    +0.000 N 
ATOM      8  C   UNL     1       4.456   6.243  17.142  0.00  0.00    +0.000 A 
ATOM      9  C   UNL     1       5.649   6.390  16.422  0.00  0.00    +0.000 A 
ATOM     10  H   UNL     1       3.920   8.161  17.862  0.00  0.00    +0.000 HD
ENDROOT
BRANCH   1  12
ATOM     11  C   UNL     1       7.372   4.980  13.793  0.00  0.00    +0.000 C 
ATOM     12  O   UNL     1       7.360   5.483  15.125  0.00  0.00    +0.000 OA
ENDBRANCH   1  12
BRANCH   5  13
ATOM     13  C   UNL     1       1.477   4.258  18.187  0.00  0.00    +0.000 C 
BRANCH  13  14
ATOM     14  C   UNL     1       1.695   3.350  19.425  0.00  0.00    +0.000 C 
ATOM     15  C   UNL     1       2.066   1.910  19.062  0.00  0.00    +0.000 C 
BRANCH  14  16
ATOM     16  N   UNL     1       0.540   3.321  20.337  0.00  0.00    +0.000 NA
ATOM     17  H   UNL     1      -0.178   3.944  19.961  0.00  0.00    +0.000 HD
ATOM     18  H   UNL     1       0.808   3.732  21.229  0.00  0.00    +0.000 HD
ENDBRANCH  14  16
ENDBRANCH  13  14
ENDBRANCH   5  13
TORSDOF 4
ENDMDL
MODEL 7
REMARK VINA RESULT:      -6.3      1.063      1.168
REMARK  Name = 
REMARK  6 active torsions:
REMARK  status: ('A' for Active; 'I' for Inactive)
REMARK    1  A    between atoms: C_1  and  O_2
REMARK    2  A    between atoms: O_2  and  C_3
REMARK    3  A    between atoms: C_7  and  C_8
REMARK    4  A    between atoms: C_8  and  C_9
REMARK    5  A    between atoms: C_9  and  C_10
REMARK    6  A    between atoms: C_9  and  N_11
REMARK                            x       y       z     vdW  Elec       q    Type
REMARK                         _______ _______ _______ _____ _____    ______ ____
ROOT
ATOM      1  C   UNL     1       6.770   6.032  16.773  0.00  0.00    +0.000 A 
ATOM      2  C   UNL     1       5.841   5.649  15.808  0.00  0.00    +0.000 A 
ATOM      3  C   UNL     1       4.873   4.676  16.090  0.00  0.00    +0.000 A 
ATOM      4  C   UNL     1       4.829   4.086  17.368  0.00  0.00    +0.000 A 
ATOM      5  C   UNL     1       3.924   3.189  18.020  0.00  0.00    +0.000 A 
ATOM      6  C   UNL     1       4.462   2.920  19.268  0.00  0.00    +0.000 A 
ATOM      7  N   UNL     1       5.593   3.676  19.416  0.00  0.00    +0.000 N 
ATOM      8  C   UNL     1       5.810   4.434  18.292  0.00  0.00    +0.000 A 
ATOM      9  C   UNL     1       6.785   5.405  18.027  0.00  0.00    +0.000 A 
ATOM     10  H   UNL     1       6.175   3.698  20.244  0.00  0.00    +0.000 HD
ENDROOT
BRANCH   1  12
ATOM     11  C   UNL     1       7.690   8.080  17.551  0.00  0.00    +0.000 C 
ATOM     12  O   UNL     1       7.721   7.006  16.616  0.00  0.00    +0.000 OA
ENDBRANCH   1  12
BRANCH   5  13
ATOM     13  C   UNL     1       2.625   2.673  17.477  0.00  0.00    +0.000 C 
BRANCH  13  14
ATOM     14  C   UNL     1       1.366   3.348  18.080  0.00  0.00    +0.000 C 
ATOM     15  C   UNL     1       1.582   4.818  18.444  0.00  0.00    +0.000 C 
BRANCH  14  16
ATOM     16  N   UNL     1       0.839   2.645  19.262  0.00  0.00    +0.000 NA
ATOM     17  H   UNL     1       0.032   3.168  19.610  0.00  0.00    +0.000 HD
ATOM     18  H   UNL     1       1.527   2.690  20.011  0.00  0.00    +0.000 HD
ENDBRANCH  14  16
ENDBRANCH  13  14
ENDBRANCH   5  13
TORSDOF 4
ENDMDL
MODEL 8
REMARK VINA RESULT:      -6.3      1.001      1.001
REMARK  Name = 
REMARK  6 active torsions:
REMARK  status: ('A' for Active; 'I' for Inactive)
REMARK    1  A    between atoms: C_1  and  O_2
REMARK    2  A    between atoms: O_2  and  C_3
REMARK    3  A    between atoms: C_7  and  C_8
REMARK    4  A    between atoms: C_8  and  C_9
REMARK    5  A    between atoms: C_9  and  C_10
REMARK    6  A    between atoms: C_9  and  N_11
REMARK                            x       y       z     vdW  Elec       q    Type
REMARK                         _______ _______ _______ _____ _____    ______ ____
ROOT
ATOM      1  C   UNL     1       6.190   6.056  16.994  0.00  0.00    +0.000 A 
ATOM      2  C   UNL     1       5.013   6.791  17.120  0.00  0.00    +0.000 A 
ATOM      3  C   UNL     1       3.793   6.153  17.382  0.00  0.00    +0.000 A 
ATOM      4  C   UNL     1       3.757   4.753  17.532  0.00  0.00    +0.000 A 
ATOM      5  C   UNL     1       2.744   3.820  17.922  0.00  0.00    +0.000 A 
ATOM      6  C   UNL     1       3.305   2.558  17.813  0.00  0.00    +0.000 A 
ATOM      7  N   UNL     1       4.619   2.705  17.460  0.00  0.00    +0.000 N 
ATOM      8  C   UNL     1       4.932   4.035  17.333  0.00  0.00    +0.000 A 
ATOM      9  C   UNL     1       6.161   4.656  17.071  0.00  0.00    +0.000 A 
ATOM     10  H   UNL     1       5.277   1.945  17.336  0.00  0.00    +0.000 HD
ENDROOT
BRANCH   1  12
ATOM     11  C   UNL     1       7.760   7.756  17.534  0.00  0.00    +0.000 C 
ATOM     12  O   UNL     1       7.438   6.585  16.790  0.00  0.00    +0.000 OA
ENDBRANCH   1  12
BRANCH   5  13
ATOM     13  C   UNL     1       1.360   4.144  18.396  0.00  0.00    +0.000 C 
BRANCH  13  14
ATOM     14  C   UNL     1       1.218   4.246  19.937  0.00  0.00    +0.000 C 
ATOM     15  C   UNL     1       2.497   4.716  20.633  0.00  0.00    +0.000 C 
BRANCH  14  16
ATOM     16  N   UNL     1       0.776   2.990  20.566  0.00  0.00    +0.000 NA
ATOM     17  H   UNL     1       0.211   2.476  19.887  0.00  0.00    +0.000 HD
ATOM     18  H   UNL     1       0.141   3.206  21.331  0.00  0.00    +0.000 HD
ENDBRANCH  14  16
ENDBRANCH  13  14
ENDBRANCH   5  13
TORSDOF 4
ENDMDL
MODEL 9
REMARK VINA RESULT:      -6.3      1.009      1.101
REMARK  Name = 
REMARK  6 active torsions:
REMARK  status: ('A' for Active; 'I' for Inactive)
REMARK    1  A    between atoms: C_1  and  O_2
REMARK    2  A    between atoms: O_2  and  C_3
REMARK    3  A    between atoms: C_7  and  C_8
REMARK    4  A    between atoms: C_8  and  C_9
REMARK    5  A    between atoms: C_9  and  C_10
REMARK    6  A    between atoms: C_9  and  N_11
REMARK                            x       y       z     vdW  Elec       q    Type
REMARK                         _______ _______ _______ _____ _____    ______ ____
ROOT
ATOM      1  C   UNL     1       5.333   6.106  17.547  0.00  0.00    +0.000 A 
ATOM      2  C   UNL     1       3.971   6.113  17.257  0.00  0.00    +0.000 A 
ATOM      3  C   UNL     1       3.136   5.079  17.701  0.00  0.00    +0.000 A 
ATOM      4  C   UNL     1       3.678   4.025  18.461  0.00  0.00    +0.000 A 
ATOM      5  C   UNL     1       3.115   2.913  19.166  0.00  0.00    +0.000 A 
ATOM      6  C   UNL     1       4.178   2.183  19.670  0.00  0.00    +0.000 A 
ATOM      7  N   UNL     1       5.334   2.851  19.370  0.00  0.00    +0.000 N 
ATOM      8  C   UNL     1       5.053   4.003  18.679  0.00  0.00    +0.000 A 
ATOM      9  C   UNL     1       5.901   5.029  18.242  0.00  0.00    +0.000 A 
ATOM     10  H   UNL     1       6.264   2.557  19.641  0.00  0.00    +0.000 HD
ENDROOT
BRANCH   1  12
ATOM     11  C   UNL     1       7.552   6.942  17.690  0.00  0.00    +0.000 C 
ATOM     12  O   UNL     1       6.222   7.091  17.204  0.00  0.00    +0.000 OA
ENDBRANCH   1  12
BRANCH   5  13
ATOM     13  C   UNL     1       1.658   2.617  19.357  0.00  0.00    +0.000 C 
BRANCH  13  14
ATOM     14  C   UNL     1       1.035   3.260  20.624  0.00  0.00    +0.000 C 
ATOM     15  C   UNL     1       1.197   4.781  20.673  0.00  0.00    +0.000 C 
BRANCH  14  16
ATOM     16  N   UNL     1       1.554   2.693  21.879  0.00  0.00    +0.000 NA
ATOM     17  H   UNL     1       1.019   3.092  22.654  0.00  0.00    +0.000 HD
ATOM     18  H   UNL     1       2.509   3.015  22.022  0.00  0.00    +0.000 HD
ENDBRANCH  14  16
ENDBRANCH  13  14
ENDBRANCH   5  13
TORSDOF 4
ENDMDL
