MODEL 1
REMARK VINA RESULT:      -8.1      0.000      0.000
REMARK  Name = 
REMARK  7 active torsions:
REMARK  status: ('A' for Active; 'I' for Inactive)
REMARK    1  A    between atoms: C_1  and  O_2
REMARK    2  A    between atoms: O_2  and  C_3
REMARK    3  A    between atoms: C_3  and  C_5
REMARK    4  A    between atoms: C_7  and  O_8
REMARK    5  A    between atoms: O_8  and  C_9
REMARK    6  A    between atoms: C_9  and  C_10
REMARK    7  A    between atoms: N_12  and  C_13
REMARK                            x       y       z     vdW  Elec       q    Type
REMARK                         _______ _______ _______ _____ _____    ______ ____
ROOT
ATOM      1  C   UNL     1       5.592   5.120  17.466  0.00  0.00    +0.000 A 
ATOM      2  C   UNL     1       4.673   6.159  17.525  0.00  0.00    +0.000 A 
ATOM      3  C   UNL     1       3.339   5.833  17.747  0.00  0.00    +0.000 A 
ATOM      4  C   UNL     1       2.970   4.478  17.935  0.00  0.00    +0.000 A 
ATOM      5  C   UNL     1       1.649   4.057  18.199  0.00  0.00    +0.000 A 
ATOM      6  C   UNL     1       1.372   2.721  18.456  0.00  0.00    +0.000 A 
ATOM      7  F   UNL     1       0.119   2.348  18.753  0.00  0.00    +0.000 F 
ATOM      8  C   UNL     1       2.378   1.772  18.425  0.00  0.00    +0.000 A 
ATOM      9  C   UNL     1       3.676   2.172  18.110  0.00  0.00    +0.000 A 
ATOM     10  C   UNL     1       3.990   3.504  17.874  0.00  0.00    +0.000 A 
ATOM     11  N   UNL     1       5.261   3.812  17.630  0.00  0.00    +0.000 NA
ENDROOT
BRANCH   1  12
ATOM     12  C   UNL     1       7.033   5.413  17.218  0.00  0.00    +0.000 C 
ATOM     13  O   UNL     1       7.451   6.060  16.264  0.00  0.00    +0.000 OA
BRANCH  12  15
ATOM     14  C   UNL     1       7.917   5.649  19.373  0.00  0.00    +0.000 C 
ATOM     15  O   UNL     1       7.788   4.857  18.201  0.00  0.00    +0.000 OA
ENDBRANCH  12  15
ENDBRANCH   1  12
BRANCH   3  16
ATOM     16  O   UNL     1       2.313   6.743  17.827  0.00  0.00    +0.000 OA
BRANCH  16  17
ATOM     17  C   UNL     1       2.629   8.112  18.070  0.00  0.00    +0.000 C 
BRANCH  17  18
ATOM     18  C   UNL     1       1.656   8.677  19.114  0.00  0.00    +0.000 C 
ATOM     19  O   UNL     1       1.658   8.270  20.274  0.00  0.00    +0.000 OA
ATOM     20  N   UNL     1       0.848   9.714  18.676  0.00  0.00    +0.000 N 
ATOM     21  H   UNL     1       0.727   9.817  17.675  0.00  0.00    +0.000 HD
BRANCH  20  22
ATOM     22  C   UNL     1      -0.118  10.318  19.589  0.00  0.00    +0.000 C 
ATOM     23  C   UNL     1       0.461  11.517  20.351  0.00  0.00    +0.000 C 
ATOM     24  C   UNL     1       0.518  12.803  19.532  0.00  0.00    +0.000 C 
ATOM     25  C   UNL     1      -0.821  13.118  18.875  0.00  0.00    +0.000 C 
ATOM     26  C   UNL     1      -1.310  11.946  18.033  0.00  0.00    +0.000 C 
ATOM     27  C   UNL     1      -1.425  10.673  18.870  0.00  0.00    +0.000 C 
ENDBRANCH  20  22
ENDBRANCH  17  18
ENDBRANCH  16  17
ENDBRANCH   3  16
TORSDOF 6
ENDMDL
MODEL 2
REMARK VINA RESULT:      -8.1      0.937      1.028
REMARK  Name = 
REMARK  7 active torsions:
REMARK  status: ('A' for Active; 'I' for Inactive)
REMARK    1  A    between atoms: C_1  and  O_2
REMARK    2  A    between atoms: O_2  and  C_3
REMARK    3  A    between atoms: C_3  and  C_5
REMARK    4  A    between atoms: C_7  and  O_8
REMARK    5  A    between atoms: O_8  and  C_9
REMARK    6  A    between atoms: C_9  and  C_10
REMARK    7  A    between atoms: N_12  and  C_13
REMARK                            x       y       z     vdW  Elec       q    Type
REMARK                         _______ _______ _______ _____ _____    ______ ____
ROOT
ATOM      1  C   UNL     1       5.476   5.661  17.210  0.00  0.00    +0.000 A 
ATOM      2  C   UNL     1       4.508   6.619  17.477  0.00  0.00    +0.000 A 
ATOM      3  C   UNL     1       3.224   6.177  17.781  0.00  0.00    +0.000 A 
ATOM      4  C   UNL     1       2.958   4.786  17.841  0.00  0.00    +0.000 A 
ATOM      5  C   UNL     1       1.698   4.245  18.175  0.00  0.00    +0.000 A 
ATOM      6  C   UNL     1       1.528   2.873  18.297  0.00  0.00    +0.000 A 
ATOM      7  F   UNL     1       0.337   2.381  18.662  0.00  0.00    +0.000 F 
ATOM      8  C   UNL     1       2.582   2.007  18.061  0.00  0.00    +0.000 A 
ATOM      9  C   UNL     1       3.815   2.531  17.676  0.00  0.00    +0.000 A 
ATOM     10  C   UNL     1       4.024   3.900  17.571  0.00  0.00    +0.000 A 
ATOM     11  N   UNL     1       5.242   4.323  17.249  0.00  0.00    +0.000 NA
ENDROOT
BRANCH   1  12
ATOM     12  C   UNL     1       6.866   6.082  16.866  0.00  0.00    +0.000 C 
ATOM     13  O   UNL     1       7.414   5.841  15.796  0.00  0.00    +0.000 OA
BRANCH  12  15
ATOM     14  C   UNL     1       7.808   8.091  17.613  0.00  0.00    +0.000 C 
ATOM     15  O   UNL     1       7.409   6.761  17.910  0.00  0.00    +0.000 OA
ENDBRANCH  12  15
ENDBRANCH   1  12
BRANCH   3  16
ATOM     16  O   UNL     1       2.158   6.997  18.063  0.00  0.00    +0.000 OA
BRANCH  16  17
ATOM     17  C   UNL     1       2.281   8.393  17.800  0.00  0.00    +0.000 C 
BRANCH  17  18
ATOM     18  C   UNL     1       1.624   9.180  18.941  0.00  0.00    +0.000 C 
ATOM     19  O   UNL     1       1.390   8.654  20.028  0.00  0.00    +0.000 OA
ATOM     20  N   UNL     1       1.393  10.522  18.684  0.00  0.00    +0.000 N 
ATOM     21  H   UNL     1       1.376  10.812  17.713  0.00  0.00    +0.000 HD
BRANCH  20  22
ATOM     22  C   UNL     1       0.765  11.360  19.702  0.00  0.00    +0.000 C 
ATOM     23  C   UNL     1       1.500  12.689  19.907  0.00  0.00    +0.000 C 
ATOM     24  C   UNL     1       1.201  13.735  18.837  0.00  0.00    +0.000 C 
ATOM     25  C   UNL     1      -0.297  13.921  18.628  0.00  0.00    +0.000 C 
ATOM     26  C   UNL     1      -0.978  12.594  18.313  0.00  0.00    +0.000 C 
ATOM     27  C   UNL     1      -0.727  11.569  19.416  0.00  0.00    +0.000 C 
ENDBRANCH  20  22
ENDBRANCH  17  18
ENDBRANCH  16  17
ENDBRANCH   3  16
TORSDOF 6
ENDMDL
MODEL 3
REMARK VINA RESULT:      -8.1      1.104      1.636
REMARK  Name = 
REMARK  7 active torsions:
REMARK  status: ('A' for Active; 'I' for Inactive)
REMARK    1  A    between atoms: C_1  and  O_2
REMARK    2  A    between atoms: O_2  and  C_3
REMARK    3  A    between atoms: C_3  and  C_5
REMARK    4  A    between atoms: C_7  and  O_8
REMARK    5  A    between atoms: O_8  and  C_9
REMARK    6  A    between atoms: C_9  and  C_10
REMARK    7  A    between atoms: N_12  and  C_13
REMARK                            x       y       z     vdW  Elec       q    Type
REMARK                         _______ _______ _______ _____ _____    ______ ____
ROOT
ATOM      1  C   UNL     1       5.482   5.197  17.258  0.00  0.00    +0.000 A 
ATOM      2  C   UNL     1       4.559   6.227  17.393  0.00  0.00    +0.000 A 
ATOM      3  C   UNL     1       3.248   5.885  17.709  0.00  0.00    +0.000 A 
ATOM      4  C   UNL     1       2.908   4.524  17.913  0.00  0.00    +0.000 A 
ATOM      5  C   UNL     1       1.615   4.087  18.270  0.00  0.00    +0.000 A 
ATOM      6  C   UNL     1       1.370   2.746  18.536  0.00  0.00    +0.000 A 
ATOM      7  F   UNL     1       0.147   2.358  18.921  0.00  0.00    +0.000 F 
ATOM      8  C   UNL     1       2.382   1.808  18.423  0.00  0.00    +0.000 A 
ATOM      9  C   UNL     1       3.649   2.225  18.017  0.00  0.00    +0.000 A 
ATOM     10  C   UNL     1       3.931   3.561  17.769  0.00  0.00    +0.000 A 
ATOM     11  N   UNL     1       5.177   3.885  17.435  0.00  0.00    +0.000 NA
ENDROOT
BRANCH   1  12
ATOM     12  C   UNL     1       6.898   5.508  16.906  0.00  0.00    +0.000 C 
ATOM     13  O   UNL     1       7.791   4.671  16.837  0.00  0.00    +0.000 OA
BRANCH  12  15
ATOM     14  C   UNL     1       7.754   7.547  17.678  0.00  0.00    +0.000 C 
ATOM     15  O   UNL     1       7.030   6.840  16.680  0.00  0.00    +0.000 OA
ENDBRANCH  12  15
ENDBRANCH   1  12
BRANCH   3  16
ATOM     16  O   UNL     1       2.222   6.783  17.872  0.00  0.00    +0.000 OA
BRANCH  16  17
ATOM     17  C   UNL     1       2.308   7.737  18.929  0.00  0.00    +0.000 C 
BRANCH  17  18
ATOM     18  C   UNL     1       1.789   9.092  18.429  0.00  0.00    +0.000 C 
ATOM     19  O   UNL     1       2.073   9.509  17.308  0.00  0.00    +0.000 OA
ATOM     20  N   UNL     1       0.930   9.756  19.290  0.00  0.00    +0.000 N 
ATOM     21  H   UNL     1       0.948   9.481  20.265  0.00  0.00    +0.000 HD
BRANCH  20  22
ATOM     22  C   UNL     1       0.385  11.057  18.913  0.00  0.00    +0.000 C 
ATOM     23  C   UNL     1      -1.015  11.298  19.487  0.00  0.00    +0.000 C 
ATOM     24  C   UNL     1      -1.021  11.703  20.959  0.00  0.00    +0.000 C 
ATOM     25  C   UNL     1      -0.069  12.861  21.233  0.00  0.00    +0.000 C 
ATOM     26  C   UNL     1       1.341  12.539  20.751  0.00  0.00    +0.000 C 
ATOM     27  C   UNL     1       1.352  12.194  19.263  0.00  0.00    +0.000 C 
ENDBRANCH  20  22
ENDBRANCH  17  18
ENDBRANCH  16  17
ENDBRANCH   3  16
TORSDOF 6
ENDMDL
MODEL 4
REMARK VINA RESULT:      -8.0      4.748      6.543
REMARK  Name = 
REMARK  7 active torsions:
REMARK  status: ('A' for Active; 'I' for Inactive)
REMARK    1  A    between atoms: C_1  and  O_2
REMARK    2  A    between atoms: O_2  and  C_3
REMARK    3  A    between atoms: C_3  and  C_5
REMARK    4  A    between atoms: C_7  and  O_8
REMARK    5  A    between atoms: O_8  and  C_9
REMARK    6  A    between atoms: C_9  and  C_10
REMARK    7  A    between atoms: N_12  and  C_13
REMARK                            x       y       z     vdW  Elec       q    Type
REMARK                         _______ _______ _______ _____ _____    ______ ____
ROOT
ATOM      1  C   UNL     1       6.320   4.945  15.589  0.00  0.00    +0.000 A 
ATOM      2  C   UNL     1       7.030   5.708  16.506  0.00  0.00    +0.000 A 
ATOM      3  C   UNL     1       6.455   5.922  17.755  0.00  0.00    +0.000 A 
ATOM      4  C   UNL     1       5.201   5.337  18.059  0.00  0.00    +0.000 A 
ATOM      5  C   UNL     1       4.558   5.470  19.308  0.00  0.00    +0.000 A 
ATOM      6  C   UNL     1       3.369   4.801  19.566  0.00  0.00    +0.000 A 
ATOM      7  F   UNL     1       2.800   4.901  20.774  0.00  0.00    +0.000 F 
ATOM      8  C   UNL     1       2.774   4.018  18.592  0.00  0.00    +0.000 A 
ATOM      9  C   UNL     1       3.374   3.927  17.337  0.00  0.00    +0.000 A 
ATOM     10  C   UNL     1       4.576   4.563  17.056  0.00  0.00    +0.000 A 
ATOM     11  N   UNL     1       5.110   4.385  15.852  0.00  0.00    +0.000 NA
ENDROOT
BRANCH   1  12
ATOM     12  C   UNL     1       6.885   4.697  14.230  0.00  0.00    +0.000 C 
ATOM     13  O   UNL     1       7.724   5.410  13.691  0.00  0.00    +0.000 OA
BRANCH  12  15
ATOM     14  C   UNL     1       6.322   3.522  12.284  0.00  0.00    +0.000 C 
ATOM     15  O   UNL     1       6.329   3.575  13.704  0.00  0.00    +0.000 OA
ENDBRANCH  12  15
ENDBRANCH   1  12
BRANCH   3  16
ATOM     16  O   UNL     1       7.028   6.655  18.766  0.00  0.00    +0.000 OA
BRANCH  16  17
ATOM     17  C   UNL     1       8.350   7.156  18.584  0.00  0.00    +0.000 C 
BRANCH  17  18
ATOM     18  C   UNL     1       8.282   8.656  18.268  0.00  0.00    +0.000 C 
ATOM     19  O   UNL     1       7.513   9.094  17.415  0.00  0.00    +0.000 OA
ATOM     20  N   UNL     1       9.081   9.469  19.057  0.00  0.00    +0.000 N 
ATOM     21  H   UNL     1       9.851   9.027  19.546  0.00  0.00    +0.000 HD
BRANCH  20  22
ATOM     22  C   UNL     1       9.095  10.911  18.833  0.00  0.00    +0.000 C 
ATOM     23  C   UNL     1       9.112  11.711  20.141  0.00  0.00    +0.000 C 
ATOM     24  C   UNL     1      10.483  11.782  20.807  0.00  0.00    +0.000 C 
ATOM     25  C   UNL     1      11.565  12.233  19.833  0.00  0.00    +0.000 C 
ATOM     26  C   UNL     1      11.595  11.345  18.595  0.00  0.00    +0.000 C 
ATOM     27  C   UNL     1      10.237  11.324  17.896  0.00  0.00    +0.000 C 
ENDBRANCH  20  22
ENDBRANCH  17  18
ENDBRANCH  16  17
ENDBRANCH   3  16
TORSDOF 6
ENDMDL
MODEL 5
REMARK VINA RESULT:      -8.0      0.760      1.139
REMARK  Name = 
REMARK  7 active torsions:
REMARK  status: ('A' for Active; 'I' for Inactive)
REMARK    1  A    between atoms: C_1  and  O_2
REMARK    2  A    between atoms: O_2  and  C_3
REMARK    3  A    between atoms: C_3  and  C_5
REMARK    4  A    between atoms: C_7  and  O_8
REMARK    5  A    between atoms: O_8  and  C_9
REMARK    6  A    between atoms: C_9  and  C_10
REMARK    7  A    between atoms: N_12  and  C_13
REMARK                            x       y       z     vdW  Elec       q    Type
REMARK                         _______ _______ _______ _____ _____    ______ ____
ROOT
ATOM      1  C   UNL     1       5.530   5.264  17.141  0.00  0.00    +0.000 A 
ATOM      2  C   UNL     1       4.611   6.290  17.320  0.00  0.00    +0.000 A 
ATOM      3  C   UNL     1       3.308   5.942  17.662  0.00  0.00    +0.000 A 
ATOM      4  C   UNL     1       2.973   4.578  17.847  0.00  0.00    +0.000 A 
ATOM      5  C   UNL     1       1.689   4.134  18.227  0.00  0.00    +0.000 A 
ATOM      6  C   UNL     1       1.450   2.788  18.473  0.00  0.00    +0.000 A 
ATOM      7  F   UNL     1       0.237   2.392  18.880  0.00  0.00    +0.000 F 
ATOM      8  C   UNL     1       2.458   1.852  18.316  0.00  0.00    +0.000 A 
ATOM      9  C   UNL     1       3.715   2.277  17.887  0.00  0.00    +0.000 A 
ATOM     10  C   UNL     1       3.991   3.618  17.659  0.00  0.00    +0.000 A 
ATOM     11  N   UNL     1       5.229   3.949  17.300  0.00  0.00    +0.000 NA
ENDROOT
BRANCH   1  12
ATOM     12  C   UNL     1       6.937   5.581  16.761  0.00  0.00    +0.000 C 
ATOM     13  O   UNL     1       7.567   6.543  17.188  0.00  0.00    +0.000 OA
BRANCH  12  15
ATOM     14  C   UNL     1       7.020   4.868  14.532  0.00  0.00    +0.000 C 
ATOM     15  O   UNL     1       7.394   4.649  15.885  0.00  0.00    +0.000 OA
ENDBRANCH  12  15
ENDBRANCH   1  12
BRANCH   3  16
ATOM     16  O   UNL     1       2.287   6.837  17.868  0.00  0.00    +0.000 OA
BRANCH  16  17
ATOM     17  C   UNL     1       2.608   8.218  18.028  0.00  0.00    +0.000 C 
BRANCH  17  18
ATOM     18  C   UNL     1       1.706   8.822  19.113  0.00  0.00    +0.000 C 
ATOM     19  O   UNL     1       1.609   8.303  20.224  0.00  0.00    +0.000 OA
ATOM     20  N   UNL     1       1.086  10.015  18.777  0.00  0.00    +0.000 N 
ATOM     21  H   UNL     1       1.013  10.237  17.792  0.00  0.00    +0.000 HD
BRANCH  20  22
ATOM     22  C   UNL     1       0.202  10.670  19.737  0.00  0.00    +0.000 C 
ATOM     23  C   UNL     1       0.832  11.920  20.362  0.00  0.00    +0.000 C 
ATOM     24  C   UNL     1       0.794  13.150  19.460  0.00  0.00    +0.000 C 
ATOM     25  C   UNL     1      -0.604  13.411  18.913  0.00  0.00    +0.000 C 
ATOM     26  C   UNL     1      -1.153  12.182  18.199  0.00  0.00    +0.000 C 
ATOM     27  C   UNL     1      -1.172  10.967  19.123  0.00  0.00    +0.000 C 
ENDBRANCH  20  22
ENDBRANCH  17  18
ENDBRANCH  16  17
ENDBRANCH   3  16
TORSDOF 6
ENDMDL
MODEL 6
REMARK VINA RESULT:      -7.9      0.818      1.082
REMARK  Name = 
REMARK  7 active torsions:
REMARK  status: ('A' for Active; 'I' for Inactive)
REMARK    1  A    between atoms: C_1  and  O_2
REMARK    2  A    between atoms: O_2  and  C_3
REMARK    3  A    between atoms: C_3  and  C_5
REMARK    4  A    between atoms: C_7  and  O_8
REMARK    5  A    between atoms: O_8  and  C_9
REMARK    6  A    between atoms: C_9  and  C_10
REMARK    7  A    between atoms: N_12  and  C_13
REMARK                            x       y       z     vdW  Elec       q    Type
REMARK                         _______ _______ _______ _____ _____    ______ ____
ROOT
ATOM      1  C   UNL     1       5.767   5.250  18.589  0.00  0.00    +0.000 A 
ATOM      2  C   UNL     1       4.838   6.219  18.231  0.00  0.00    +0.000 A 
ATOM      3  C   UNL     1       3.509   5.827  18.102  0.00  0.00    +0.000 A 
ATOM      4  C   UNL     1       3.146   4.483  18.367  0.00  0.00    +0.000 A 
ATOM      5  C   UNL     1       1.821   4.003  18.296  0.00  0.00    +0.000 A 
ATOM      6  C   UNL     1       1.524   2.694  18.649  0.00  0.00    +0.000 A 
ATOM      7  F   UNL     1       0.253   2.271  18.622  0.00  0.00    +0.000 F 
ATOM      8  C   UNL     1       2.525   1.824  19.046  0.00  0.00    +0.000 A 
ATOM      9  C   UNL     1       3.844   2.276  19.065  0.00  0.00    +0.000 A 
ATOM     10  C   UNL     1       4.170   3.586  18.743  0.00  0.00    +0.000 A 
ATOM     11  N   UNL     1       5.445   3.953  18.835  0.00  0.00    +0.000 NA
ENDROOT
BRANCH   1  12
ATOM     12  C   UNL     1       7.207   5.614  18.728  0.00  0.00    +0.000 C 
ATOM     13  O   UNL     1       7.879   5.398  19.730  0.00  0.00    +0.000 OA
BRANCH  12  15
ATOM     14  C   UNL     1       7.785   7.620  17.666  0.00  0.00    +0.000 C 
ATOM     15  O   UNL     1       7.639   6.209  17.586  0.00  0.00    +0.000 OA
ENDBRANCH  12  15
ENDBRANCH   1  12
BRANCH   3  16
ATOM     16  O   UNL     1       2.476   6.662  17.753  0.00  0.00    +0.000 OA
BRANCH  16  17
ATOM     17  C   UNL     1       2.666   8.071  17.868  0.00  0.00    +0.000 C 
BRANCH  17  18
ATOM     18  C   UNL     1       1.733   8.618  18.956  0.00  0.00    +0.000 C 
ATOM     19  O   UNL     1       1.729   8.144  20.091  0.00  0.00    +0.000 OA
ATOM     20  N   UNL     1       0.970   9.715  18.591  0.00  0.00    +0.000 N 
ATOM     21  H   UNL     1       0.843   9.882  17.600  0.00  0.00    +0.000 HD
BRANCH  20  22
ATOM     22  C   UNL     1       0.044  10.309  19.552  0.00  0.00    +0.000 C 
ATOM     23  C   UNL     1       0.606  11.577  20.206  0.00  0.00    +0.000 C 
ATOM     24  C   UNL     1       0.517  12.820  19.325  0.00  0.00    +0.000 C 
ATOM     25  C   UNL     1      -0.886  13.022  18.767  0.00  0.00    +0.000 C 
ATOM     26  C   UNL     1      -1.367  11.781  18.025  0.00  0.00    +0.000 C 
ATOM     27  C   UNL     1      -1.336  10.549  18.927  0.00  0.00    +0.000 C 
ENDBRANCH  20  22
ENDBRANCH  17  18
ENDBRANCH  16  17
ENDBRANCH   3  16
TORSDOF 6
ENDMDL
MODEL 7
REMARK VINA RESULT:      -7.9      1.311      1.534
REMARK  Name = 
REMARK  7 active torsions:
REMARK  status: ('A' for Active; 'I' for Inactive)
REMARK    1  A    between atoms: C_1  and  O_2
REMARK    2  A    between atoms: O_2  and  C_3
REMARK    3  A    between atoms: C_3  and  C_5
REMARK    4  A    between atoms: C_7  and  O_8
REMARK    5  A    between atoms: O_8  and  C_9
REMARK    6  A    between atoms: C_9  and  C_10
REMARK    7  A    between atoms: N_12  and  C_13
REMARK                            x       y       z     vdW  Elec       q    Type
REMARK                         _______ _______ _______ _____ _____    ______ ____
ROOT
ATOM      1  C   UNL     1       5.676   5.618  17.439  0.00  0.00    +0.000 A 
ATOM      2  C   UNL     1       4.630   6.520  17.301  0.00  0.00    +0.000 A 
ATOM      3  C   UNL     1       3.427   6.221  17.933  0.00  0.00    +0.000 A 
ATOM      4  C   UNL     1       3.319   5.042  18.712  0.00  0.00    +0.000 A 
ATOM      5  C   UNL     1       2.152   4.675  19.416  0.00  0.00    +0.000 A 
ATOM      6  C   UNL     1       2.142   3.549  20.229  0.00  0.00    +0.000 A 
ATOM      7  F   UNL     1       1.041   3.244  20.927  0.00  0.00    +0.000 F 
ATOM      8  C   UNL     1       3.265   2.746  20.337  0.00  0.00    +0.000 A 
ATOM      9  C   UNL     1       4.403   3.072  19.601  0.00  0.00    +0.000 A 
ATOM     10  C   UNL     1       4.453   4.206  18.801  0.00  0.00    +0.000 A 
ATOM     11  N   UNL     1       5.592   4.475  18.170  0.00  0.00    +0.000 NA
ENDROOT
BRANCH   1  12
ATOM     12  C   UNL     1       6.983   5.884  16.771  0.00  0.00    +0.000 C 
ATOM     13  O   UNL     1       7.584   6.951  16.830  0.00  0.00    +0.000 OA
BRANCH  12  15
ATOM     14  C   UNL     1       6.904   4.668  14.771  0.00  0.00    +0.000 C 
ATOM     15  O   UNL     1       7.388   4.773  16.103  0.00  0.00    +0.000 OA
ENDBRANCH  12  15
ENDBRANCH   1  12
BRANCH   3  16
ATOM     16  O   UNL     1       2.301   7.007  17.888  0.00  0.00    +0.000 OA
BRANCH  16  17
ATOM     17  C   UNL     1       2.456   8.425  17.875  0.00  0.00    +0.000 C 
BRANCH  17  18
ATOM     18  C   UNL     1       1.570   9.039  18.967  0.00  0.00    +0.000 C 
ATOM     19  O   UNL     1       1.432   8.492  20.059  0.00  0.00    +0.000 OA
ATOM     20  N   UNL     1       1.013  10.270  18.660  0.00  0.00    +0.000 N 
ATOM     21  H   UNL     1       0.964  10.526  17.681  0.00  0.00    +0.000 HD
BRANCH  20  22
ATOM     22  C   UNL     1       0.148  10.938  19.629  0.00  0.00    +0.000 C 
ATOM     23  C   UNL     1       0.907  11.944  20.502  0.00  0.00    +0.000 C 
ATOM     24  C   UNL     1       1.190  13.275  19.811  0.00  0.00    +0.000 C 
ATOM     25  C   UNL     1      -0.066  13.871  19.189  0.00  0.00    +0.000 C 
ATOM     26  C   UNL     1      -0.732  12.883  18.238  0.00  0.00    +0.000 C 
ATOM     27  C   UNL     1      -1.071  11.574  18.948  0.00  0.00    +0.000 C 
ENDBRANCH  20  22
ENDBRANCH  17  18
ENDBRANCH  16  17
ENDBRANCH   3  16
TORSDOF 6
ENDMDL
MODEL 8
REMARK VINA RESULT:      -7.7      3.095      8.257
REMARK  Name = 
REMARK  7 active torsions:
REMARK  status: ('A' for Active; 'I' for Inactive)
REMARK    1  A    between atoms: C_1  and  O_2
REMARK    2  A    between atoms: O_2  and  C_3
REMARK    3  A    between atoms: C_3  and  C_5
REMARK    4  A    between atoms: C_7  and  O_8
REMARK    5  A    between atoms: O_8  and  C_9
REMARK    6  A    between atoms: C_9  and  C_10
REMARK    7  A    between atoms: N_12  and  C_13
REMARK                            x       y       z     vdW  Elec       q    Type
REMARK                         _______ _______ _______ _____ _____    ______ ____
ROOT
ATOM      1  C   UNL     1      -0.403  11.345  20.457  0.00  0.00    +0.000 A 
ATOM      2  C   UNL     1       0.459  10.443  19.847  0.00  0.00    +0.000 A 
ATOM      3  C   UNL     1       0.055   9.873  18.643  0.00  0.00    +0.000 A 
ATOM      4  C   UNL     1      -1.186  10.248  18.071  0.00  0.00    +0.000 A 
ATOM      5  C   UNL     1      -1.661   9.750  16.840  0.00  0.00    +0.000 A 
ATOM      6  C   UNL     1      -2.848  10.224  16.296  0.00  0.00    +0.000 A 
ATOM      7  F   UNL     1      -3.258   9.774  15.103  0.00  0.00    +0.000 F 
ATOM      8  C   UNL     1      -3.604  11.169  16.967  0.00  0.00    +0.000 A 
ATOM      9  C   UNL     1      -3.168  11.625  18.211  0.00  0.00    +0.000 A 
ATOM     10  C   UNL     1      -1.974  11.190  18.768  0.00  0.00    +0.000 A 
ATOM     11  N   UNL     1      -1.603  11.711  19.934  0.00  0.00    +0.000 NA
ENDROOT
BRANCH   1  12
ATOM     12  C   UNL     1      -0.024  11.975  21.755  0.00  0.00    +0.000 C 
ATOM     13  O   UNL     1       0.134  13.180  21.916  0.00  0.00    +0.000 OA
BRANCH  12  15
ATOM     14  C   UNL     1      -1.112  10.519  23.231  0.00  0.00    +0.000 C 
ATOM     15  O   UNL     1       0.111  11.015  22.706  0.00  0.00    +0.000 OA
ENDBRANCH  12  15
ENDBRANCH   1  12
BRANCH   3  16
ATOM     16  O   UNL     1       0.790   8.963  17.922  0.00  0.00    +0.000 OA
BRANCH  16  17
ATOM     17  C   UNL     1       2.186   9.195  17.748  0.00  0.00    +0.000 C 
BRANCH  17  18
ATOM     18  C   UNL     1       2.946   7.879  17.959  0.00  0.00    +0.000 C 
ATOM     19  O   UNL     1       4.049   7.690  17.450  0.00  0.00    +0.000 OA
ATOM     20  N   UNL     1       2.340   6.971  18.813  0.00  0.00    +0.000 N 
ATOM     21  H   UNL     1       1.348   7.086  18.983  0.00  0.00    +0.000 HD
BRANCH  20  22
ATOM     22  C   UNL     1       2.977   5.684  19.077  0.00  0.00    +0.000 C 
ATOM     23  C   UNL     1       2.539   5.072  20.412  0.00  0.00    +0.000 C 
ATOM     24  C   UNL     1       1.167   4.404  20.368  0.00  0.00    +0.000 C 
ATOM     25  C   UNL     1       1.051   3.422  19.208  0.00  0.00    +0.000 C 
ATOM     26  C   UNL     1       1.383   4.096  17.882  0.00  0.00    +0.000 C 
ATOM     27  C   UNL     1       2.781   4.710  17.908  0.00  0.00    +0.000 C 
ENDBRANCH  20  22
ENDBRANCH  17  18
ENDBRANCH  16  17
ENDBRANCH   3  16
TORSDOF 6
ENDMDL
MODEL 9
REMARK VINA RESULT:      -7.7      1.438      1.884
REMARK  Name = 
REMARK  7 active torsions:
REMARK  status: ('A' for Active; 'I' for Inactive)
REMARK    1  A    between atoms: C_1  and  O_2
REMARK    2  A    between atoms: O_2  and  C_3
REMARK    3  A    between atoms: C_3  and  C_5
REMARK    4  A    between atoms: C_7  and  O_8
REMARK    5  A    between atoms: O_8  and  C_9
REMARK    6  A    between atoms: C_9  and  C_10
REMARK    7  A    between atoms: N_12  and  C_13
REMARK                            x       y       z     vdW  Elec       q    Type
REMARK                         _______ _______ _______ _____ _____    ______ ____
ROOT
ATOM      1  C   UNL     1       5.030   5.185  16.292  0.00  0.00    +0.000 A 
ATOM      2  C   UNL     1       4.669   6.348  16.959  0.00  0.00    +0.000 A 
ATOM      3  C   UNL     1       3.626   6.272  17.877  0.00  0.00    +0.000 A 
ATOM      4  C   UNL     1       2.998   5.026  18.122  0.00  0.00    +0.000 A 
ATOM      5  C   UNL     1       1.957   4.847  19.058  0.00  0.00    +0.000 A 
ATOM      6  C   UNL     1       1.442   3.582  19.309  0.00  0.00    +0.000 A 
ATOM      7  F   UNL     1       0.488   3.425  20.236  0.00  0.00    +0.000 F 
ATOM      8  C   UNL     1       1.917   2.477  18.622  0.00  0.00    +0.000 A 
ATOM      9  C   UNL     1       2.906   2.656  17.656  0.00  0.00    +0.000 A 
ATOM     10  C   UNL     1       3.459   3.903  17.401  0.00  0.00    +0.000 A 
ATOM     11  N   UNL     1       4.434   3.982  16.501  0.00  0.00    +0.000 NA
ENDROOT
BRANCH   1  12
ATOM     12  C   UNL     1       6.134   5.214  15.288  0.00  0.00    +0.000 C 
ATOM     13  O   UNL     1       7.296   5.504  15.549  0.00  0.00    +0.000 OA
BRANCH  12  15
ATOM     14  C   UNL     1       6.309   3.779  13.446  0.00  0.00    +0.000 C 
ATOM     15  O   UNL     1       5.648   4.872  14.067  0.00  0.00    +0.000 OA
ENDBRANCH  12  15
ENDBRANCH   1  12
BRANCH   3  16
ATOM     16  O   UNL     1       3.150   7.331  18.611  0.00  0.00    +0.000 OA
BRANCH  16  17
ATOM     17  C   UNL     1       2.219   8.223  18.002  0.00  0.00    +0.000 C 
BRANCH  17  18
ATOM     18  C   UNL     1       1.534   9.059  19.092  0.00  0.00    +0.000 C 
ATOM     19  O   UNL     1       1.304   8.590  20.205  0.00  0.00    +0.000 OA
ATOM     20  N   UNL     1       1.273  10.378  18.756  0.00  0.00    +0.000 N 
ATOM     21  H   UNL     1       1.256  10.610  17.770  0.00  0.00    +0.000 HD
BRANCH  20  22
ATOM     22  C   UNL     1       0.617  11.256  19.720  0.00  0.00    +0.000 C 
ATOM     23  C   UNL     1       1.368  12.578  19.919  0.00  0.00    +0.000 C 
ATOM     24  C   UNL     1       1.136  13.597  18.806  0.00  0.00    +0.000 C 
ATOM     25  C   UNL     1      -0.347  13.803  18.525  0.00  0.00    +0.000 C 
ATOM     26  C   UNL     1      -1.038  12.480  18.219  0.00  0.00    +0.000 C 
ATOM     27  C   UNL     1      -0.857  11.483  19.362  0.00  0.00    +0.000 C 
ENDBRANCH  20  22
ENDBRANCH  17  18
ENDBRANCH  16  17
ENDBRANCH   3  16
TORSDOF 6
ENDMDL
