MODEL 1
REMARK VINA RESULT:      -8.7      0.000      0.000
REMARK  Name = 
REMARK  7 active torsions:
REMARK  status: ('A' for Active; 'I' for Inactive)
REMARK    1  A    between atoms: C_1  and  C_2
REMARK    2  A    between atoms: C_5  and  N_6
REMARK    3  A    between atoms: N_6  and  S_7
REMARK    4  A    between atoms: S_7  and  C_10
REMARK    5  A    between atoms: C_15  and  C_16
REMARK    6  A    between atoms: C_19  and  C_20
REMARK    7  A    between atoms: C_28  and  C_29
REMARK                            x       y       z     vdW  Elec       q    Type
REMARK                         _______ _______ _______ _____ _____    ______ ____
ROOT
ATOM      1  C   UNL     1       4.030   4.012  18.534  0.00  0.00    +0.000 A 
ATOM      2  C   UNL     1       4.206   2.660  18.168  0.00  0.00    +0.000 A 
ATOM      3  C   UNL     1       3.127   1.794  18.049  0.00  0.00    +0.000 A 
ATOM      4  C   UNL     1       1.853   2.265  18.291  0.00  0.00    +0.000 A 
ATOM      5  C   UNL     1       1.661   3.606  18.635  0.00  0.00    +0.000 A 
ATOM      6  C   UNL     1       2.727   4.538  18.748  0.00  0.00    +0.000 A 
ENDROOT
BRANCH   6   7
ATOM      7  C   UNL     1       2.358   5.962  19.017  0.00  0.00    +0.000 A 
ATOM      8  C   UNL     1       2.449   6.980  18.066  0.00  0.00    +0.000 A 
ATOM      9  C   UNL     1       2.022   8.291  18.323  0.00  0.00    +0.000 A 
ATOM     10  C   UNL     1       1.578   8.681  19.592  0.00  0.00    +0.000 A 
ATOM     11  C   UNL     1       1.588   7.701  20.590  0.00  0.00    +0.000 A 
ATOM     12  C   UNL     1       1.941   6.371  20.302  0.00  0.00    +0.000 A 
BRANCH  10  13
ATOM     13  C   UNL     1       1.163  10.065  19.870  0.00  0.00    +0.000 A 
ATOM     14  C   UNL     1       0.945  10.551  21.162  0.00  0.00    +0.000 A 
ATOM     15  N   UNL     1       0.507  11.808  21.428  0.00  0.00    +0.000 NA
ATOM     16  C   UNL     1       0.297  12.579  20.343  0.00  0.00    +0.000 A 
ATOM     17  C   UNL     1       0.526  12.124  19.056  0.00  0.00    +0.000 A 
ATOM     18  N   UNL     1       0.966  10.871  18.792  0.00  0.00    +0.000 NA
ENDBRANCH  10  13
ENDBRANCH   6   7
BRANCH   1  19
ATOM     19  S   UNL     1       5.516   4.990  18.679  0.00  0.00    +0.000 S 
ATOM     20  O   UNL     1       6.674   4.160  18.431  0.00  0.00    +0.000 OA
ATOM     21  O   UNL     1       5.407   5.781  19.887  0.00  0.00    +0.000 OA
BRANCH  19  22
ATOM     22  N   UNL     1       5.454   6.143  17.416  0.00  0.00    +0.000 N 
ATOM     23  H   UNL     1       5.773   7.027  17.810  0.00  0.00    +0.000 HD
BRANCH  22  28
ATOM     24  C   UNL     1       6.787   3.986  13.066  0.00  0.00    +0.000 C 
ATOM     25  C   UNL     1       6.717   4.738  14.341  0.00  0.00    +0.000 A 
ATOM     26  N   UNL     1       7.747   5.504  14.714  0.00  0.00    +0.000 NA
ATOM     27  O   UNL     1       7.354   6.108  15.886  0.00  0.00    +0.000 OA
ATOM     28  C   UNL     1       6.107   5.686  16.235  0.00  0.00    +0.000 A 
ATOM     29  C   UNL     1       5.645   4.801  15.281  0.00  0.00    +0.000 A 
ATOM     30  C   UNL     1       4.326   4.139  15.160  0.00  0.00    +0.000 C 
ENDBRANCH  22  28
ENDBRANCH  19  22
ENDBRANCH   1  19
TORSDOF 5
ENDMDL
MODEL 2
REMARK VINA RESULT:      -8.6      1.050      1.230
REMARK  Name = 
REMARK  7 active torsions:
REMARK  status: ('A' for Active; 'I' for Inactive)
REMARK    1  A    between atoms: C_1  and  C_2
REMARK    2  A    between atoms: C_5  and  N_6
REMARK    3  A    between atoms: N_6  and  S_7
REMARK    4  A    between atoms: S_7  and  C_10
REMARK    5  A    between atoms: C_15  and  C_16
REMARK    6  A    between atoms: C_19  and  C_20
REMARK    7  A    between atoms: C_28  and  C_29
REMARK                            x       y       z     vdW  Elec       q    Type
REMARK                         _______ _______ _______ _____ _____    ______ ____
ROOT
ATOM      1  C   UNL     1       3.689   4.360  17.806  0.00  0.00    +0.000 A 
ATOM      2  C   UNL     1       3.768   2.985  17.494  0.00  0.00    +0.000 A 
ATOM      3  C   UNL     1       2.730   2.111  17.790  0.00  0.00    +0.000 A 
ATOM      4  C   UNL     1       1.592   2.597  18.400  0.00  0.00    +0.000 A 
ATOM      5  C   UNL     1       1.491   3.960  18.698  0.00  0.00    +0.000 A 
ATOM      6  C   UNL     1       2.513   4.898  18.397  0.00  0.00    +0.000 A 
ENDROOT
BRANCH   6   7
ATOM      7  C   UNL     1       2.217   6.337  18.676  0.00  0.00    +0.000 A 
ATOM      8  C   UNL     1       2.155   7.322  17.687  0.00  0.00    +0.000 A 
ATOM      9  C   UNL     1       1.798   8.649  17.969  0.00  0.00    +0.000 A 
ATOM     10  C   UNL     1       1.589   9.088  19.281  0.00  0.00    +0.000 A 
ATOM     11  C   UNL     1       1.760   8.141  20.296  0.00  0.00    +0.000 A 
ATOM     12  C   UNL     1       2.038   6.796  19.999  0.00  0.00    +0.000 A 
BRANCH  10  13
ATOM     13  C   UNL     1       1.249  10.489  19.578  0.00  0.00    +0.000 A 
ATOM     14  C   UNL     1       0.662  10.893  20.781  0.00  0.00    +0.000 A 
ATOM     15  N   UNL     1       0.291  12.172  21.044  0.00  0.00    +0.000 NA
ATOM     16  C   UNL     1       0.537  13.051  20.052  0.00  0.00    +0.000 A 
ATOM     17  C   UNL     1       1.136  12.675  18.862  0.00  0.00    +0.000 A 
ATOM     18  N   UNL     1       1.508  11.400  18.603  0.00  0.00    +0.000 NA
ENDBRANCH  10  13
ENDBRANCH   6   7
BRANCH   1  19
ATOM     19  S   UNL     1       5.117   5.346  17.395  0.00  0.00    +0.000 S 
ATOM     20  O   UNL     1       5.649   5.960  18.591  0.00  0.00    +0.000 OA
ATOM     21  O   UNL     1       4.784   6.141  16.231  0.00  0.00    +0.000 OA
BRANCH  19  22
ATOM     22  N   UNL     1       6.306   4.252  16.829  0.00  0.00    +0.000 N 
ATOM     23  H   UNL     1       5.911   3.318  16.919  0.00  0.00    +0.000 HD
BRANCH  22  28
ATOM     24  C   UNL     1       7.274   4.890  11.929  0.00  0.00    +0.000 C 
ATOM     25  C   UNL     1       7.265   4.902  13.411  0.00  0.00    +0.000 A 
ATOM     26  N   UNL     1       8.124   5.685  14.071  0.00  0.00    +0.000 NA
ATOM     27  O   UNL     1       7.825   5.521  15.404  0.00  0.00    +0.000 OA
ATOM     28  C   UNL     1       6.814   4.622  15.550  0.00  0.00    +0.000 A 
ATOM     29  C   UNL     1       6.412   4.186  14.303  0.00  0.00    +0.000 A 
ATOM     30  C   UNL     1       5.302   3.282  13.925  0.00  0.00    +0.000 C 
ENDBRANCH  22  28
ENDBRANCH  19  22
ENDBRANCH   1  19
TORSDOF 5
ENDMDL
MODEL 3
REMARK VINA RESULT:      -8.4      0.974      1.286
REMARK  Name = 
REMARK  7 active torsions:
REMARK  status: ('A' for Active; 'I' for Inactive)
REMARK    1  A    between atoms: C_1  and  C_2
REMARK    2  A    between atoms: C_5  and  N_6
REMARK    3  A    between atoms: N_6  and  S_7
REMARK    4  A    between atoms: S_7  and  C_10
REMARK    5  A    between atoms: C_15  and  C_16
REMARK    6  A    between atoms: C_19  and  C_20
REMARK    7  A    between atoms: C_28  and  C_29
REMARK                            x       y       z     vdW  Elec       q    Type
REMARK                         _______ _______ _______ _____ _____    ______ ____
ROOT
ATOM      1  C   UNL     1       3.821   4.281  18.443  0.00  0.00    +0.000 A 
ATOM      2  C   UNL     1       3.959   2.910  18.136  0.00  0.00    +0.000 A 
ATOM      3  C   UNL     1       2.874   2.044  18.172  0.00  0.00    +0.000 A 
ATOM      4  C   UNL     1       1.630   2.534  18.514  0.00  0.00    +0.000 A 
ATOM      5  C   UNL     1       1.474   3.893  18.803  0.00  0.00    +0.000 A 
ATOM      6  C   UNL     1       2.546   4.824  18.758  0.00  0.00    +0.000 A 
ENDROOT
BRANCH   6   7
ATOM      7  C   UNL     1       2.204   6.263  18.984  0.00  0.00    +0.000 A 
ATOM      8  C   UNL     1       2.222   7.232  17.978  0.00  0.00    +0.000 A 
ATOM      9  C   UNL     1       1.822   8.557  18.204  0.00  0.00    +0.000 A 
ATOM     10  C   UNL     1       1.485   9.013  19.483  0.00  0.00    +0.000 A 
ATOM     11  C   UNL     1       1.572   8.083  20.525  0.00  0.00    +0.000 A 
ATOM     12  C   UNL     1       1.895   6.738  20.277  0.00  0.00    +0.000 A 
BRANCH  10  13
ATOM     13  C   UNL     1       1.099  10.413  19.724  0.00  0.00    +0.000 A 
ATOM     14  C   UNL     1       1.243  11.419  18.765  0.00  0.00    +0.000 A 
ATOM     15  N   UNL     1       0.945  12.724  18.994  0.00  0.00    +0.000 NA
ATOM     16  C   UNL     1       0.484  12.993  20.232  0.00  0.00    +0.000 A 
ATOM     17  C   UNL     1       0.315  12.007  21.189  0.00  0.00    +0.000 A 
ATOM     18  N   UNL     1       0.609  10.707  20.958  0.00  0.00    +0.000 NA
ENDBRANCH  10  13
ENDBRANCH   6   7
BRANCH   1  19
ATOM     19  S   UNL     1       5.313   5.257  18.385  0.00  0.00    +0.000 S 
ATOM     20  O   UNL     1       5.721   5.607  19.728  0.00  0.00    +0.000 OA
ATOM     21  O   UNL     1       5.137   6.272  17.367  0.00  0.00    +0.000 OA
BRANCH  19  22
ATOM     22  N   UNL     1       6.529   4.233  17.750  0.00  0.00    +0.000 N 
ATOM     23  H   UNL     1       6.256   3.278  17.976  0.00  0.00    +0.000 HD
BRANCH  22  28
ATOM     24  C   UNL     1       6.759   4.461  12.725  0.00  0.00    +0.000 C 
ATOM     25  C   UNL     1       6.944   4.625  14.186  0.00  0.00    +0.000 A 
ATOM     26  N   UNL     1       7.785   5.557  14.645  0.00  0.00    +0.000 NA
ATOM     27  O   UNL     1       7.687   5.500  16.017  0.00  0.00    +0.000 OA
ATOM     28  C   UNL     1       6.816   4.520  16.384  0.00  0.00    +0.000 A 
ATOM     29  C   UNL     1       6.307   3.919  15.251  0.00  0.00    +0.000 A 
ATOM     30  C   UNL     1       5.270   2.870  15.116  0.00  0.00    +0.000 C 
ENDBRANCH  22  28
ENDBRANCH  19  22
ENDBRANCH   1  19
TORSDOF 5
ENDMDL
MODEL 4
REMARK VINA RESULT:      -8.2      0.877      1.322
REMARK  Name = 
REMARK  7 active torsions:
REMARK  status: ('A' for Active; 'I' for Inactive)
REMARK    1  A    between atoms: C_1  and  C_2
REMARK    2  A    between atoms: C_5  and  N_6
REMARK    3  A    between atoms: N_6  and  S_7
REMARK    4  A    between atoms: S_7  and  C_10
REMARK    5  A    between atoms: C_15  and  C_16
REMARK    6  A    between atoms: C_19  and  C_20
REMARK    7  A    between atoms: C_28  and  C_29
REMARK                            x       y       z     vdW  Elec       q    Type
REMARK                         _______ _______ _______ _____ _____    ______ ____
ROOT
ATOM      1  C   UNL     1       3.717   4.171  18.368  0.00  0.00    +0.000 A 
ATOM      2  C   UNL     1       3.866   2.812  18.016  0.00  0.00    +0.000 A 
ATOM      3  C   UNL     1       2.849   1.890  18.230  0.00  0.00    +0.000 A 
ATOM      4  C   UNL     1       1.664   2.312  18.798  0.00  0.00    +0.000 A 
ATOM      5  C   UNL     1       1.495   3.658  19.134  0.00  0.00    +0.000 A 
ATOM      6  C   UNL     1       2.494   4.644  18.915  0.00  0.00    +0.000 A 
ENDROOT
BRANCH   6   7
ATOM      7  C   UNL     1       2.128   6.061  19.225  0.00  0.00    +0.000 A 
ATOM      8  C   UNL     1       1.680   6.490  20.477  0.00  0.00    +0.000 A 
ATOM      9  C   UNL     1       1.418   7.839  20.759  0.00  0.00    +0.000 A 
ATOM     10  C   UNL     1       1.487   8.822  19.766  0.00  0.00    +0.000 A 
ATOM     11  C   UNL     1       1.823   8.393  18.478  0.00  0.00    +0.000 A 
ATOM     12  C   UNL     1       2.162   7.053  18.222  0.00  0.00    +0.000 A 
BRANCH  10  13
ATOM     13  C   UNL     1       1.178  10.232  20.057  0.00  0.00    +0.000 A 
ATOM     14  C   UNL     1       0.781  10.681  21.320  0.00  0.00    +0.000 A 
ATOM     15  N   UNL     1       0.438  11.967  21.586  0.00  0.00    +0.000 NA
ATOM     16  C   UNL     1       0.513  12.806  20.533  0.00  0.00    +0.000 A 
ATOM     17  C   UNL     1       0.924  12.385  19.280  0.00  0.00    +0.000 A 
ATOM     18  N   UNL     1       1.268  11.103  19.017  0.00  0.00    +0.000 NA
ENDBRANCH  10  13
ENDBRANCH   6   7
BRANCH   1  19
ATOM     19  S   UNL     1       5.124   5.223  18.062  0.00  0.00    +0.000 S 
ATOM     20  O   UNL     1       5.594   5.788  19.308  0.00  0.00    +0.000 OA
ATOM     21  O   UNL     1       4.805   6.069  16.930  0.00  0.00    +0.000 OA
BRANCH  19  22
ATOM     22  N   UNL     1       6.369   4.201  17.482  0.00  0.00    +0.000 N 
ATOM     23  H   UNL     1       6.074   3.244  17.671  0.00  0.00    +0.000 HD
BRANCH  22  28
ATOM     24  C   UNL     1       6.877   4.567  12.486  0.00  0.00    +0.000 C 
ATOM     25  C   UNL     1       6.993   4.676  13.959  0.00  0.00    +0.000 A 
ATOM     26  N   UNL     1       7.857   5.546  14.492  0.00  0.00    +0.000 NA
ATOM     27  O   UNL     1       7.683   5.454  15.854  0.00  0.00    +0.000 OA
ATOM     28  C   UNL     1       6.743   4.513  16.144  0.00  0.00    +0.000 A 
ATOM     29  C   UNL     1       6.264   3.974  14.966  0.00  0.00    +0.000 A 
ATOM     30  C   UNL     1       5.181   2.988  14.743  0.00  0.00    +0.000 C 
ENDBRANCH  22  28
ENDBRANCH  19  22
ENDBRANCH   1  19
TORSDOF 5
ENDMDL
MODEL 5
REMARK VINA RESULT:      -8.2      1.198      1.554
REMARK  Name = 
REMARK  7 active torsions:
REMARK  status: ('A' for Active; 'I' for Inactive)
REMARK    1  A    between atoms: C_1  and  C_2
REMARK    2  A    between atoms: C_5  and  N_6
REMARK    3  A    between atoms: N_6  and  S_7
REMARK    4  A    between atoms: S_7  and  C_10
REMARK    5  A    between atoms: C_15  and  C_16
REMARK    6  A    between atoms: C_19  and  C_20
REMARK    7  A    between atoms: C_28  and  C_29
REMARK                            x       y       z     vdW  Elec       q    Type
REMARK                         _______ _______ _______ _____ _____    ______ ____
ROOT
ATOM      1  C   UNL     1       3.954   4.284  18.950  0.00  0.00    +0.000 A 
ATOM      2  C   UNL     1       4.127   2.883  18.904  0.00  0.00    +0.000 A 
ATOM      3  C   UNL     1       3.066   2.013  19.119  0.00  0.00    +0.000 A 
ATOM      4  C   UNL     1       1.813   2.528  19.382  0.00  0.00    +0.000 A 
ATOM      5  C   UNL     1       1.623   3.913  19.412  0.00  0.00    +0.000 A 
ATOM      6  C   UNL     1       2.668   4.844  19.176  0.00  0.00    +0.000 A 
ENDROOT
BRANCH   6   7
ATOM      7  C   UNL     1       2.290   6.291  19.133  0.00  0.00    +0.000 A 
ATOM      8  C   UNL     1       1.927   7.032  20.260  0.00  0.00    +0.000 A 
ATOM      9  C   UNL     1       1.653   8.406  20.200  0.00  0.00    +0.000 A 
ATOM     10  C   UNL     1       1.621   9.094  18.982  0.00  0.00    +0.000 A 
ATOM     11  C   UNL     1       1.869   8.343  17.829  0.00  0.00    +0.000 A 
ATOM     12  C   UNL     1       2.222   6.985  17.906  0.00  0.00    +0.000 A 
BRANCH  10  13
ATOM     13  C   UNL     1       1.298  10.529  18.917  0.00  0.00    +0.000 A 
ATOM     14  C   UNL     1       0.084  11.059  19.364  0.00  0.00    +0.000 A 
ATOM     15  N   UNL     1      -0.248  12.371  19.257  0.00  0.00    +0.000 NA
ATOM     16  C   UNL     1       0.692  13.151  18.686  0.00  0.00    +0.000 A 
ATOM     17  C   UNL     1       1.908  12.649  18.256  0.00  0.00    +0.000 A 
ATOM     18  N   UNL     1       2.239  11.342  18.366  0.00  0.00    +0.000 NA
ENDBRANCH  10  13
ENDBRANCH   6   7
BRANCH   1  19
ATOM     19  S   UNL     1       5.419   5.268  18.686  0.00  0.00    +0.000 S 
ATOM     20  O   UNL     1       5.936   5.726  19.956  0.00  0.00    +0.000 OA
ATOM     21  O   UNL     1       5.136   6.200  17.613  0.00  0.00    +0.000 OA
BRANCH  19  22
ATOM     22  N   UNL     1       6.592   4.211  18.025  0.00  0.00    +0.000 N 
ATOM     23  H   UNL     1       6.345   3.271  18.331  0.00  0.00    +0.000 HD
BRANCH  22  28
ATOM     24  C   UNL     1       6.334   4.236  12.997  0.00  0.00    +0.000 C 
ATOM     25  C   UNL     1       6.687   4.424  14.424  0.00  0.00    +0.000 A 
ATOM     26  N   UNL     1       7.680   5.254  14.755  0.00  0.00    +0.000 NA
ATOM     27  O   UNL     1       7.716   5.258  16.131  0.00  0.00    +0.000 OA
ATOM     28  C   UNL     1       6.772   4.412  16.627  0.00  0.00    +0.000 A 
ATOM     29  C   UNL     1       6.079   3.843  15.577  0.00  0.00    +0.000 A 
ATOM     30  C   UNL     1       4.910   2.933  15.593  0.00  0.00    +0.000 C 
ENDBRANCH  22  28
ENDBRANCH  19  22
ENDBRANCH   1  19
TORSDOF 5
ENDMDL
MODEL 6
REMARK VINA RESULT:      -8.1      2.023      4.188
REMARK  Name = 
REMARK  7 active torsions:
REMARK  status: ('A' for Active; 'I' for Inactive)
REMARK    1  A    between atoms: C_1  and  C_2
REMARK    2  A    between atoms: C_5  and  N_6
REMARK    3  A    between atoms: N_6  and  S_7
REMARK    4  A    between atoms: S_7  and  C_10
REMARK    5  A    between atoms: C_15  and  C_16
REMARK    6  A    between atoms: C_19  and  C_20
REMARK    7  A    between atoms: C_28  and  C_29
REMARK                            x       y       z     vdW  Elec       q    Type
REMARK                         _______ _______ _______ _____ _____    ______ ____
ROOT
ATOM      1  C   UNL     1       5.859   5.050  17.391  0.00  0.00    +0.000 A 
ATOM      2  C   UNL     1       6.886   4.387  16.685  0.00  0.00    +0.000 A 
ATOM      3  C   UNL     1       6.981   4.462  15.301  0.00  0.00    +0.000 A 
ATOM      4  C   UNL     1       6.053   5.203  14.599  0.00  0.00    +0.000 A 
ATOM      5  C   UNL     1       5.041   5.881  15.287  0.00  0.00    +0.000 A 
ATOM      6  C   UNL     1       4.913   5.855  16.701  0.00  0.00    +0.000 A 
ENDROOT
BRANCH   6   7
ATOM      7  C   UNL     1       3.848   6.717  17.301  0.00  0.00    +0.000 A 
ATOM      8  C   UNL     1       2.697   6.215  17.913  0.00  0.00    +0.000 A 
ATOM      9  C   UNL     1       1.753   7.045  18.535  0.00  0.00    +0.000 A 
ATOM     10  C   UNL     1       1.856   8.439  18.483  0.00  0.00    +0.000 A 
ATOM     11  C   UNL     1       2.943   8.963  17.775  0.00  0.00    +0.000 A 
ATOM     12  C   UNL     1       3.927   8.124  17.223  0.00  0.00    +0.000 A 
BRANCH  10  13
ATOM     13  C   UNL     1       0.846   9.310  19.107  0.00  0.00    +0.000 A 
ATOM     14  C   UNL     1       0.013  10.159  18.372  0.00  0.00    +0.000 A 
ATOM     15  N   UNL     1      -0.882  11.008  18.939  0.00  0.00    +0.000 NA
ATOM     16  C   UNL     1      -0.923  10.975  20.286  0.00  0.00    +0.000 A 
ATOM     17  C   UNL     1      -0.122  10.126  21.030  0.00  0.00    +0.000 A 
ATOM     18  N   UNL     1       0.768   9.278  20.464  0.00  0.00    +0.000 NA
ENDBRANCH  10  13
ENDBRANCH   6   7
BRANCH   1  19
ATOM     19  S   UNL     1       5.851   4.831  19.162  0.00  0.00    +0.000 S 
ATOM     20  O   UNL     1       4.833   5.669  19.755  0.00  0.00    +0.000 OA
ATOM     21  O   UNL     1       7.225   4.884  19.619  0.00  0.00    +0.000 OA
BRANCH  19  22
ATOM     22  N   UNL     1       5.379   3.208  19.440  0.00  0.00    +0.000 N 
ATOM     23  H   UNL     1       5.570   3.012  20.421  0.00  0.00    +0.000 HD
BRANCH  22  28
ATOM     24  C   UNL     1       0.433   2.479  18.842  0.00  0.00    +0.000 C 
ATOM     25  C   UNL     1       1.902   2.602  18.688  0.00  0.00    +0.000 A 
ATOM     26  N   UNL     1       2.455   2.451  17.480  0.00  0.00    +0.000 NA
ATOM     27  O   UNL     1       3.800   2.684  17.657  0.00  0.00    +0.000 OA
ATOM     28  C   UNL     1       4.062   2.942  18.968  0.00  0.00    +0.000 A 
ATOM     29  C   UNL     1       2.881   2.901  19.683  0.00  0.00    +0.000 A 
ATOM     30  C   UNL     1       2.625   3.196  21.111  0.00  0.00    +0.000 C 
ENDBRANCH  22  28
ENDBRANCH  19  22
ENDBRANCH   1  19
TORSDOF 5
ENDMDL
MODEL 7
REMARK VINA RESULT:      -8.0      2.070      4.297
REMARK  Name = 
REMARK  7 active torsions:
REMARK  status: ('A' for Active; 'I' for Inactive)
REMARK    1  A    between atoms: C_1  and  C_2
REMARK    2  A    between atoms: C_5  and  N_6
REMARK    3  A    between atoms: N_6  and  S_7
REMARK    4  A    between atoms: S_7  and  C_10
REMARK    5  A    between atoms: C_15  and  C_16
REMARK    6  A    between atoms: C_19  and  C_20
REMARK    7  A    between atoms: C_28  and  C_29
REMARK                            x       y       z     vdW  Elec       q    Type
REMARK                         _______ _______ _______ _____ _____    ______ ____
ROOT
ATOM      1  C   UNL     1       5.782   5.045  17.507  0.00  0.00    +0.000 A 
ATOM      2  C   UNL     1       6.816   4.366  16.827  0.00  0.00    +0.000 A 
ATOM      3  C   UNL     1       6.951   4.444  15.447  0.00  0.00    +0.000 A 
ATOM      4  C   UNL     1       6.057   5.205  14.722  0.00  0.00    +0.000 A 
ATOM      5  C   UNL     1       5.039   5.898  15.384  0.00  0.00    +0.000 A 
ATOM      6  C   UNL     1       4.870   5.870  16.794  0.00  0.00    +0.000 A 
ENDROOT
BRANCH   6   7
ATOM      7  C   UNL     1       3.804   6.749  17.367  0.00  0.00    +0.000 A 
ATOM      8  C   UNL     1       2.647   6.265  17.981  0.00  0.00    +0.000 A 
ATOM      9  C   UNL     1       1.702   7.113  18.578  0.00  0.00    +0.000 A 
ATOM     10  C   UNL     1       1.812   8.505  18.497  0.00  0.00    +0.000 A 
ATOM     11  C   UNL     1       2.906   9.009  17.786  0.00  0.00    +0.000 A 
ATOM     12  C   UNL     1       3.891   8.154  17.260  0.00  0.00    +0.000 A 
BRANCH  10  13
ATOM     13  C   UNL     1       0.801   9.393  19.094  0.00  0.00    +0.000 A 
ATOM     14  C   UNL     1      -0.057  10.192  18.333  0.00  0.00    +0.000 A 
ATOM     15  N   UNL     1      -0.953  11.057  18.873  0.00  0.00    +0.000 NA
ATOM     16  C   UNL     1      -0.969  11.093  20.220  0.00  0.00    +0.000 A 
ATOM     17  C   UNL     1      -0.142  10.296  20.992  0.00  0.00    +0.000 A 
ATOM     18  N   UNL     1       0.749   9.431  20.452  0.00  0.00    +0.000 NA
ENDBRANCH  10  13
ENDBRANCH   6   7
BRANCH   1  19
ATOM     19  S   UNL     1       5.719   4.819  19.276  0.00  0.00    +0.000 S 
ATOM     20  O   UNL     1       4.617   5.575  19.828  0.00  0.00    +0.000 OA
ATOM     21  O   UNL     1       7.066   4.976  19.788  0.00  0.00    +0.000 OA
BRANCH  19  22
ATOM     22  N   UNL     1       5.364   3.165  19.534  0.00  0.00    +0.000 N 
ATOM     23  H   UNL     1       5.969   2.850  20.290  0.00  0.00    +0.000 HD
BRANCH  22  28
ATOM     24  C   UNL     1       0.452   2.240  18.926  0.00  0.00    +0.000 C 
ATOM     25  C   UNL     1       1.810   2.543  19.435  0.00  0.00    +0.000 A 
ATOM     26  N   UNL     1       2.016   2.636  20.752  0.00  0.00    +0.000 NA
ATOM     27  O   UNL     1       3.367   2.858  20.900  0.00  0.00    +0.000 OA
ATOM     28  C   UNL     1       3.966   2.931  19.680  0.00  0.00    +0.000 A 
ATOM     29  C   UNL     1       3.016   2.738  18.697  0.00  0.00    +0.000 A 
ATOM     30  C   UNL     1       3.176   2.639  17.228  0.00  0.00    +0.000 C 
ENDBRANCH  22  28
ENDBRANCH  19  22
ENDBRANCH   1  19
TORSDOF 5
ENDMDL
MODEL 8
REMARK VINA RESULT:      -7.9      1.546      1.732
REMARK  Name = 
REMARK  7 active torsions:
REMARK  status: ('A' for Active; 'I' for Inactive)
REMARK    1  A    between atoms: C_1  and  C_2
REMARK    2  A    between atoms: C_5  and  N_6
REMARK    3  A    between atoms: N_6  and  S_7
REMARK    4  A    between atoms: S_7  and  C_10
REMARK    5  A    between atoms: C_15  and  C_16
REMARK    6  A    between atoms: C_19  and  C_20
REMARK    7  A    between atoms: C_28  and  C_29
REMARK                            x       y       z     vdW  Elec       q    Type
REMARK                         _______ _______ _______ _____ _____    ______ ____
ROOT
ATOM      1  C   UNL     1       4.071   4.676  19.004  0.00  0.00    +0.000 A 
ATOM      2  C   UNL     1       4.381   3.326  19.275  0.00  0.00    +0.000 A 
ATOM      3  C   UNL     1       3.664   2.589  20.209  0.00  0.00    +0.000 A 
ATOM      4  C   UNL     1       2.623   3.189  20.887  0.00  0.00    +0.000 A 
ATOM      5  C   UNL     1       2.292   4.520  20.615  0.00  0.00    +0.000 A 
ATOM      6  C   UNL     1       2.978   5.309  19.655  0.00  0.00    +0.000 A 
ENDROOT
BRANCH   6   7
ATOM      7  C   UNL     1       2.440   6.681  19.395  0.00  0.00    +0.000 A 
ATOM      8  C   UNL     1       2.426   7.283  18.135  0.00  0.00    +0.000 A 
ATOM      9  C   UNL     1       1.845   8.540  17.909  0.00  0.00    +0.000 A 
ATOM     10  C   UNL     1       1.341   9.313  18.960  0.00  0.00    +0.000 A 
ATOM     11  C   UNL     1       1.450   8.775  20.246  0.00  0.00    +0.000 A 
ATOM     12  C   UNL     1       1.961   7.482  20.454  0.00  0.00    +0.000 A 
BRANCH  10  13
ATOM     13  C   UNL     1       0.763  10.647  18.725  0.00  0.00    +0.000 A 
ATOM     14  C   UNL     1       1.510  11.825  18.799  0.00  0.00    +0.000 A 
ATOM     15  N   UNL     1       0.978  13.064  18.642  0.00  0.00    +0.000 NA
ATOM     16  C   UNL     1      -0.348  13.086  18.396  0.00  0.00    +0.000 A 
ATOM     17  C   UNL     1      -1.102  11.930  18.299  0.00  0.00    +0.000 A 
ATOM     18  N   UNL     1      -0.569  10.695  18.453  0.00  0.00    +0.000 NA
ENDBRANCH  10  13
ENDBRANCH   6   7
BRANCH   1  19
ATOM     19  S   UNL     1       5.105   5.497  17.804  0.00  0.00    +0.000 S 
ATOM     20  O   UNL     1       5.866   6.544  18.447  0.00  0.00    +0.000 OA
ATOM     21  O   UNL     1       4.292   5.771  16.636  0.00  0.00    +0.000 OA
BRANCH  19  22
ATOM     22  N   UNL     1       6.231   4.326  17.263  0.00  0.00    +0.000 N 
ATOM     23  H   UNL     1       5.809   3.415  17.430  0.00  0.00    +0.000 HD
BRANCH  22  28
ATOM     24  C   UNL     1       7.067   4.553  12.303  0.00  0.00    +0.000 C 
ATOM     25  C   UNL     1       7.091   4.697  13.778  0.00  0.00    +0.000 A 
ATOM     26  N   UNL     1       7.940   5.561  14.344  0.00  0.00    +0.000 NA
ATOM     27  O   UNL     1       7.676   5.508  15.693  0.00  0.00    +0.000 OA
ATOM     28  C   UNL     1       6.698   4.596  15.945  0.00  0.00    +0.000 A 
ATOM     29  C   UNL     1       6.282   4.038  14.752  0.00  0.00    +0.000 A 
ATOM     30  C   UNL     1       5.192   3.071  14.484  0.00  0.00    +0.000 C 
ENDBRANCH  22  28
ENDBRANCH  19  22
ENDBRANCH   1  19
TORSDOF 5
ENDMDL
MODEL 9
REMARK VINA RESULT:      -7.7      4.324      6.722
REMARK  Name = 
REMARK  7 active torsions:
REMARK  status: ('A' for Active; 'I' for Inactive)
REMARK    1  A    between atoms: C_1  and  C_2
REMARK    2  A    between atoms: C_5  and  N_6
REMARK    3  A    between atoms: N_6  and  S_7
REMARK    4  A    between atoms: S_7  and  C_10
REMARK    5  A    between atoms: C_15  and  C_16
REMARK    6  A    between atoms: C_19  and  C_20
REMARK    7  A    between atoms: C_28  and  C_29
REMARK                            x       y       z     vdW  Elec       q    Type
REMARK                         _______ _______ _______ _____ _____    ______ ____
ROOT
ATOM      1  C   UNL     1       5.275   5.398  16.842  0.00  0.00    +0.000 A 
ATOM      2  C   UNL     1       4.807   4.274  16.126  0.00  0.00    +0.000 A 
ATOM      3  C   UNL     1       5.571   3.675  15.134  0.00  0.00    +0.000 A 
ATOM      4  C   UNL     1       6.819   4.186  14.841  0.00  0.00    +0.000 A 
ATOM      5  C   UNL     1       7.304   5.287  15.554  0.00  0.00    +0.000 A 
ATOM      6  C   UNL     1       6.573   5.922  16.593  0.00  0.00    +0.000 A 
ENDROOT
BRANCH   6   7
ATOM      7  C   UNL     1       7.266   7.017  17.339  0.00  0.00    +0.000 A 
ATOM      8  C   UNL     1       8.014   6.812  18.500  0.00  0.00    +0.000 A 
ATOM      9  C   UNL     1       8.717   7.847  19.135  0.00  0.00    +0.000 A 
ATOM     10  C   UNL     1       8.619   9.173  18.698  0.00  0.00    +0.000 A 
ATOM     11  C   UNL     1       7.783   9.416  17.604  0.00  0.00    +0.000 A 
ATOM     12  C   UNL     1       7.146   8.362  16.926  0.00  0.00    +0.000 A 
BRANCH  10  13
ATOM     13  C   UNL     1       9.330  10.263  19.386  0.00  0.00    +0.000 A 
ATOM     14  C   UNL     1       9.053  10.643  20.703  0.00  0.00    +0.000 A 
ATOM     15  N   UNL     1       9.661  11.683  21.329  0.00  0.00    +0.000 NA
ATOM     16  C   UNL     1      10.575  12.338  20.585  0.00  0.00    +0.000 A 
ATOM     17  C   UNL     1      10.878  11.965  19.287  0.00  0.00    +0.000 A 
ATOM     18  N   UNL     1      10.274  10.926  18.666  0.00  0.00    +0.000 NA
ENDBRANCH  10  13
ENDBRANCH   6   7
BRANCH   1  19
ATOM     19  S   UNL     1       4.163   6.075  18.061  0.00  0.00    +0.000 S 
ATOM     20  O   UNL     1       3.953   7.483  17.804  0.00  0.00    +0.000 OA
ATOM     21  O   UNL     1       4.599   5.609  19.362  0.00  0.00    +0.000 OA
BRANCH  19  22
ATOM     22  N   UNL     1       2.658   5.297  17.820  0.00  0.00    +0.000 N 
ATOM     23  H   UNL     1       2.621   5.029  16.838  0.00  0.00    +0.000 HD
BRANCH  22  28
ATOM     24  C   UNL     1       1.416   2.535  21.843  0.00  0.00    +0.000 C 
ATOM     25  C   UNL     1       1.899   3.048  20.539  0.00  0.00    +0.000 A 
ATOM     26  N   UNL     1       2.356   2.193  19.620  0.00  0.00    +0.000 NA
ATOM     27  O   UNL     1       2.661   2.960  18.519  0.00  0.00    +0.000 OA
ATOM     28  C   UNL     1       2.420   4.274  18.782  0.00  0.00    +0.000 A 
ATOM     29  C   UNL     1       1.930   4.395  20.068  0.00  0.00    +0.000 A 
ATOM     30  C   UNL     1       1.439   5.593  20.788  0.00  0.00    +0.000 C 
ENDBRANCH  22  28
ENDBRANCH  19  22
ENDBRANCH   1  19
TORSDOF 5
ENDMDL
