MODEL 1
REMARK VINA RESULT:      -8.1      0.000      0.000
REMARK  Name = 
REMARK  9 active torsions:
REMARK  status: ('A' for Active; 'I' for Inactive)
REMARK    1  A    between atoms: C_1  and  C_2
REMARK    2  A    between atoms: C_2  and  O_4
REMARK    3  A    between atoms: O_4  and  C_5
REMARK    4  A    between atoms: C_10  and  C_11
REMARK    5  A    between atoms: C_11  and  C_12
REMARK    6  A    between atoms: C_18  and  C_19
REMARK    7  A    between atoms: C_20  and  O_21
REMARK    8  A    between atoms: O_21  and  C_22
REMARK    9  A    between atoms: C_22  and  C_23
REMARK                            x       y       z     vdW  Elec       q    Type
REMARK                         _______ _______ _______ _____ _____    ______ ____
ROOT
ATOM      1  C   UNL     1       3.746   4.632  18.075  0.00  0.00    +0.000 A 
ATOM      2  C   UNL     1       2.939   4.824  19.206  0.00  0.00    +0.000 A 
ATOM      3  C   UNL     1       2.450   6.092  19.543  0.00  0.00    +0.000 A 
ATOM      4  C   UNL     1       2.814   7.193  18.758  0.00  0.00    +0.000 A 
ATOM      5  C   UNL     1       3.676   6.989  17.659  0.00  0.00    +0.000 A 
ATOM      6  C   UNL     1       4.143   5.713  17.290  0.00  0.00    +0.000 A 
ATOM      7  C   UNL     1       2.354   8.590  19.149  0.00  0.00    +0.000 C 
ATOM      8  C   UNL     1       2.222   9.559  17.954  0.00  0.00    +0.000 C 
ATOM      9  C   UNL     1       1.727  10.951  18.352  0.00  0.00    +0.000 C 
ATOM     10  C   UNL     1       0.431  10.890  19.167  0.00  0.00    +0.000 C 
ATOM     11  C   UNL     1      -0.729  10.419  18.254  0.00  0.00    +0.000 C 
ATOM     12  C   UNL     1       0.047  12.210  19.876  0.00  0.00    +0.000 C 
ATOM     13  C   UNL     1      -0.864  11.730  21.032  0.00  0.00    +0.000 C 
ATOM     14  C   UNL     1      -0.530  10.246  21.279  0.00  0.00    +0.000 C 
ATOM     15  C   UNL     1       0.687   9.989  20.398  0.00  0.00    +0.000 C 
ATOM     16  C   UNL     1       1.046   8.552  19.999  0.00  0.00    +0.000 C 
ATOM     17  C   UNL     1       1.263   7.619  21.196  0.00  0.00    +0.000 C 
ATOM     18  C   UNL     1       1.491   6.191  20.702  0.00  0.00    +0.000 C 
ENDROOT
BRANCH   6  19
ATOM     19  C   UNL     1       5.021   5.583  16.066  0.00  0.00    +0.000 C 
ATOM     20  C   UNL     1       6.495   5.482  16.435  0.00  0.00    +0.000 C 
ATOM     21  F   UNL     1       4.723   4.460  15.337  0.00  0.00    +0.000 F 
ATOM     22  F   UNL     1       4.876   6.614  15.182  0.00  0.00    +0.000 F 
ENDBRANCH   6  19
BRANCH   1  23
ATOM     23  O   UNL     1       4.263   3.349  17.824  0.00  0.00    +0.000 OA
BRANCH  23  25
ATOM     24  C   UNL     1       3.825   1.197  18.698  0.00  0.00    +0.000 C 
ATOM     25  C   UNL     1       3.344   2.304  17.809  0.00  0.00    +0.000 C 
ATOM     26  O   UNL     1       2.287   2.276  17.196  0.00  0.00    +0.000 OA
ENDBRANCH  23  25
ENDBRANCH   1  23
BRANCH  12  27
ATOM     27  O   UNL     1      -0.680  13.136  19.055  0.00  0.00    +0.000 OA
BRANCH  27  28
ATOM     28  C   UNL     1      -0.411  14.456  19.233  0.00  0.00    +0.000 C 
ATOM     29  C   UNL     1       0.972  14.789  18.757  0.00  0.00    +0.000 C 
ATOM     30  O   UNL     1      -1.184  15.290  19.687  0.00  0.00    +0.000 OA
ENDBRANCH  27  28
ENDBRANCH  12  27
TORSDOF 5
ENDMDL
MODEL 2
REMARK VINA RESULT:      -8.1      2.834      8.339
REMARK  Name = 
REMARK  9 active torsions:
REMARK  status: ('A' for Active; 'I' for Inactive)
REMARK    1  A    between atoms: C_1  and  C_2
REMARK    2  A    between atoms: C_2  and  O_4
REMARK    3  A    between atoms: O_4  and  C_5
REMARK    4  A    between atoms: C_10  and  C_11
REMARK    5  A    between atoms: C_11  and  C_12
REMARK    6  A    between atoms: C_18  and  C_19
REMARK    7  A    between atoms: C_20  and  O_21
REMARK    8  A    between atoms: O_21  and  C_22
REMARK    9  A    between atoms: C_22  and  C_23
REMARK                            x       y       z     vdW  Elec       q    Type
REMARK                         _______ _______ _______ _____ _____    ______ ____
ROOT
ATOM      1  C   UNL     1       0.667  10.163  20.721  0.00  0.00    +0.000 A 
ATOM      2  C   UNL     1       0.674   8.813  21.106  0.00  0.00    +0.000 A 
ATOM      3  C   UNL     1       1.330   7.842  20.341  0.00  0.00    +0.000 A 
ATOM      4  C   UNL     1       1.951   8.223  19.145  0.00  0.00    +0.000 A 
ATOM      5  C   UNL     1       1.882   9.575  18.744  0.00  0.00    +0.000 A 
ATOM      6  C   UNL     1       1.257  10.564  19.524  0.00  0.00    +0.000 A 
ATOM      7  C   UNL     1       2.606   7.171  18.261  0.00  0.00    +0.000 C 
ATOM      8  C   UNL     1       3.768   7.716  17.401  0.00  0.00    +0.000 C 
ATOM      9  C   UNL     1       4.441   6.645  16.541  0.00  0.00    +0.000 C 
ATOM     10  C   UNL     1       4.881   5.434  17.369  0.00  0.00    +0.000 C 
ATOM     11  C   UNL     1       6.053   5.843  18.296  0.00  0.00    +0.000 C 
ATOM     12  C   UNL     1       5.268   4.187  16.541  0.00  0.00    +0.000 C 
ATOM     13  C   UNL     1       5.072   3.027  17.547  0.00  0.00    +0.000 C 
ATOM     14  C   UNL     1       4.106   3.537  18.636  0.00  0.00    +0.000 C 
ATOM     15  C   UNL     1       3.637   4.889  18.109  0.00  0.00    +0.000 C 
ATOM     16  C   UNL     1       3.043   5.917  19.080  0.00  0.00    +0.000 C 
ATOM     17  C   UNL     1       1.834   5.395  19.864  0.00  0.00    +0.000 C 
ATOM     18  C   UNL     1       1.393   6.439  20.889  0.00  0.00    +0.000 C 
ENDROOT
BRANCH   6  19
ATOM     19  C   UNL     1       1.277  11.997  19.039  0.00  0.00    +0.000 C 
ATOM     20  C   UNL     1      -0.105  12.468  18.607  0.00  0.00    +0.000 C 
ATOM     21  F   UNL     1       1.698  12.863  20.015  0.00  0.00    +0.000 F 
ATOM     22  F   UNL     1       2.138  12.206  18.001  0.00  0.00    +0.000 F 
ENDBRANCH   6  19
BRANCH   1  23
ATOM     23  O   UNL     1      -0.064  11.082  21.493  0.00  0.00    +0.000 OA
BRANCH  23  25
ATOM     24  C   UNL     1      -1.750  11.236  23.142  0.00  0.00    +0.000 C 
ATOM     25  C   UNL     1      -0.407  10.675  22.778  0.00  0.00    +0.000 C 
ATOM     26  O   UNL     1       0.250   9.951  23.510  0.00  0.00    +0.000 OA
ENDBRANCH  23  25
ENDBRANCH   1  23
BRANCH  12  27
ATOM     27  O   UNL     1       6.626   4.181  16.074  0.00  0.00    +0.000 OA
BRANCH  27  28
ATOM     28  C   UNL     1       6.841   4.628  14.809  0.00  0.00    +0.000 C 
ATOM     29  C   UNL     1       5.956   3.915  13.831  0.00  0.00    +0.000 C 
ATOM     30  O   UNL     1       7.622   5.514  14.486  0.00  0.00    +0.000 OA
ENDBRANCH  27  28
ENDBRANCH  12  27
TORSDOF 5
ENDMDL
MODEL 3
REMARK VINA RESULT:      -8.0      2.915      8.314
REMARK  Name = 
REMARK  9 active torsions:
REMARK  status: ('A' for Active; 'I' for Inactive)
REMARK    1  A    between atoms: C_1  and  C_2
REMARK    2  A    between atoms: C_2  and  O_4
REMARK    3  A    between atoms: O_4  and  C_5
REMARK    4  A    between atoms: C_10  and  C_11
REMARK    5  A    between atoms: C_11  and  C_12
REMARK    6  A    between atoms: C_18  and  C_19
REMARK    7  A    between atoms: C_20  and  O_21
REMARK    8  A    between atoms: O_21  and  C_22
REMARK    9  A    between atoms: C_22  and  C_23
REMARK                            x       y       z     vdW  Elec       q    Type
REMARK                         _______ _______ _______ _____ _____    ______ ____
ROOT
ATOM      1  C   UNL     1       0.792  10.679  20.699  0.00  0.00    +0.000 A 
ATOM      2  C   UNL     1       0.709   9.356  21.159  0.00  0.00    +0.000 A 
ATOM      3  C   UNL     1       1.286   8.300  20.443  0.00  0.00    +0.000 A 
ATOM      4  C   UNL     1       1.917   8.571  19.222  0.00  0.00    +0.000 A 
ATOM      5  C   UNL     1       1.938   9.899  18.747  0.00  0.00    +0.000 A 
ATOM      6  C   UNL     1       1.394  10.972  19.477  0.00  0.00    +0.000 A 
ATOM      7  C   UNL     1       2.486   7.428  18.393  0.00  0.00    +0.000 C 
ATOM      8  C   UNL     1       3.672   7.842  17.494  0.00  0.00    +0.000 C 
ATOM      9  C   UNL     1       4.258   6.680  16.689  0.00  0.00    +0.000 C 
ATOM     10  C   UNL     1       4.622   5.489  17.579  0.00  0.00    +0.000 C 
ATOM     11  C   UNL     1       5.832   5.864  18.473  0.00  0.00    +0.000 C 
ATOM     12  C   UNL     1       4.911   4.173  16.819  0.00  0.00    +0.000 C 
ATOM     13  C   UNL     1       4.646   3.087  17.889  0.00  0.00    +0.000 C 
ATOM     14  C   UNL     1       3.732   3.723  18.956  0.00  0.00    +0.000 C 
ATOM     15  C   UNL     1       3.352   5.074  18.359  0.00  0.00    +0.000 C 
ATOM     16  C   UNL     1       2.844   6.193  19.276  0.00  0.00    +0.000 C 
ATOM     17  C   UNL     1       1.611   5.801  20.099  0.00  0.00    +0.000 C 
ATOM     18  C   UNL     1       1.257   6.929  21.068  0.00  0.00    +0.000 C 
ENDROOT
BRANCH   6  19
ATOM     19  C   UNL     1       1.508  12.371  18.913  0.00  0.00    +0.000 C 
ATOM     20  C   UNL     1       2.633  12.480  17.892  0.00  0.00    +0.000 C 
ATOM     21  F   UNL     1       0.360  12.762  18.274  0.00  0.00    +0.000 F 
ATOM     22  F   UNL     1       1.711  13.326  19.868  0.00  0.00    +0.000 F 
ENDBRANCH   6  19
BRANCH   1  23
ATOM     23  O   UNL     1       0.137  11.689  21.425  0.00  0.00    +0.000 OA
BRANCH  23  25
ATOM     24  C   UNL     1      -1.845  11.660  22.713  0.00  0.00    +0.000 C 
ATOM     25  C   UNL     1      -1.251  11.713  21.336  0.00  0.00    +0.000 C 
ATOM     26  O   UNL     1      -1.912  11.792  20.312  0.00  0.00    +0.000 OA
ENDBRANCH  23  25
ENDBRANCH   1  23
BRANCH  12  27
ATOM     27  O   UNL     1       6.259   4.046  16.342  0.00  0.00    +0.000 OA
BRANCH  27  28
ATOM     28  C   UNL     1       6.545   4.632  15.149  0.00  0.00    +0.000 C 
ATOM     29  C   UNL     1       5.672   4.085  14.060  0.00  0.00    +0.000 C 
ATOM     30  O   UNL     1       7.375   5.513  14.966  0.00  0.00    +0.000 OA
ENDBRANCH  27  28
ENDBRANCH  12  27
TORSDOF 5
ENDMDL
MODEL 4
REMARK VINA RESULT:      -7.7      2.329      3.829
REMARK  Name = 
REMARK  9 active torsions:
REMARK  status: ('A' for Active; 'I' for Inactive)
REMARK    1  A    between atoms: C_1  and  C_2
REMARK    2  A    between atoms: C_2  and  O_4
REMARK    3  A    between atoms: O_4  and  C_5
REMARK    4  A    between atoms: C_10  and  C_11
REMARK    5  A    between atoms: C_11  and  C_12
REMARK    6  A    between atoms: C_18  and  C_19
REMARK    7  A    between atoms: C_20  and  O_21
REMARK    8  A    between atoms: O_21  and  C_22
REMARK    9  A    between atoms: C_22  and  C_23
REMARK                            x       y       z     vdW  Elec       q    Type
REMARK                         _______ _______ _______ _____ _____    ______ ____
ROOT
ATOM      1  C   UNL     1       4.161   4.789  18.101  0.00  0.00    +0.000 A 
ATOM      2  C   UNL     1       4.004   6.069  17.549  0.00  0.00    +0.000 A 
ATOM      3  C   UNL     1       3.100   6.989  18.091  0.00  0.00    +0.000 A 
ATOM      4  C   UNL     1       2.306   6.603  19.179  0.00  0.00    +0.000 A 
ATOM      5  C   UNL     1       2.436   5.291  19.683  0.00  0.00    +0.000 A 
ATOM      6  C   UNL     1       3.368   4.371  19.168  0.00  0.00    +0.000 A 
ATOM      7  C   UNL     1       1.265   7.563  19.737  0.00  0.00    +0.000 C 
ATOM      8  C   UNL     1       0.957   7.344  21.235  0.00  0.00    +0.000 C 
ATOM      9  C   UNL     1      -0.066   8.334  21.796  0.00  0.00    +0.000 C 
ATOM     10  C   UNL     1       0.325   9.787  21.513  0.00  0.00    +0.000 C 
ATOM     11  C   UNL     1       1.576  10.156  22.350  0.00  0.00    +0.000 C 
ATOM     12  C   UNL     1      -0.800  10.821  21.755  0.00  0.00    +0.000 C 
ATOM     13  C   UNL     1      -0.373  12.014  20.864  0.00  0.00    +0.000 C 
ATOM     14  C   UNL     1       0.580  11.451  19.790  0.00  0.00    +0.000 C 
ATOM     15  C   UNL     1       0.506   9.941  19.984  0.00  0.00    +0.000 C 
ATOM     16  C   UNL     1       1.631   9.050  19.442  0.00  0.00    +0.000 C 
ATOM     17  C   UNL     1       1.869   9.210  17.936  0.00  0.00    +0.000 C 
ATOM     18  C   UNL     1       3.082   8.382  17.515  0.00  0.00    +0.000 C 
ENDROOT
BRANCH   6  19
ATOM     19  C   UNL     1       3.472   3.003  19.805  0.00  0.00    +0.000 C 
ATOM     20  C   UNL     1       2.603   2.891  21.050  0.00  0.00    +0.000 C 
ATOM     21  F   UNL     1       3.066   2.008  18.953  0.00  0.00    +0.000 F 
ATOM     22  F   UNL     1       4.749   2.661  20.148  0.00  0.00    +0.000 F 
ENDBRANCH   6  19
BRANCH   1  23
ATOM     23  O   UNL     1       5.035   3.885  17.473  0.00  0.00    +0.000 OA
BRANCH  23  25
ATOM     24  C   UNL     1       6.808   4.383  15.991  0.00  0.00    +0.000 C 
ATOM     25  C   UNL     1       6.375   4.254  17.422  0.00  0.00    +0.000 C 
ATOM     26  O   UNL     1       7.105   4.473  18.377  0.00  0.00    +0.000 OA
ENDBRANCH  23  25
ENDBRANCH   1  23
BRANCH  12  27
ATOM     27  O   UNL     1      -0.916  11.267  23.114  0.00  0.00    +0.000 OA
BRANCH  27  28
ATOM     28  C   UNL     1      -1.584  12.432  23.323  0.00  0.00    +0.000 C 
ATOM     29  C   UNL     1      -3.063  12.236  23.169  0.00  0.00    +0.000 C 
ATOM     30  O   UNL     1      -1.076  13.503  23.630  0.00  0.00    +0.000 OA
ENDBRANCH  27  28
ENDBRANCH  12  27
TORSDOF 5
ENDMDL
MODEL 5
REMARK VINA RESULT:      -7.4      2.589      8.355
REMARK  Name = 
REMARK  9 active torsions:
REMARK  status: ('A' for Active; 'I' for Inactive)
REMARK    1  A    between atoms: C_1  and  C_2
REMARK    2  A    between atoms: C_2  and  O_4
REMARK    3  A    between atoms: O_4  and  C_5
REMARK    4  A    between atoms: C_10  and  C_11
REMARK    5  A    between atoms: C_11  and  C_12
REMARK    6  A    between atoms: C_18  and  C_19
REMARK    7  A    between atoms: C_20  and  O_21
REMARK    8  A    between atoms: O_21  and  C_22
REMARK    9  A    between atoms: C_22  and  C_23
REMARK                            x       y       z     vdW  Elec       q    Type
REMARK                         _______ _______ _______ _____ _____    ______ ____
ROOT
ATOM      1  C   UNL     1       0.869  10.957  20.792  0.00  0.00    +0.000 A 
ATOM      2  C   UNL     1       0.738   9.661  21.315  0.00  0.00    +0.000 A 
ATOM      3  C   UNL     1       1.214   8.545  20.618  0.00  0.00    +0.000 A 
ATOM      4  C   UNL     1       1.793   8.726  19.355  0.00  0.00    +0.000 A 
ATOM      5  C   UNL     1       1.862  10.031  18.821  0.00  0.00    +0.000 A 
ATOM      6  C   UNL     1       1.419  11.163  19.529  0.00  0.00    +0.000 A 
ATOM      7  C   UNL     1       2.251   7.518  18.550  0.00  0.00    +0.000 C 
ATOM      8  C   UNL     1       3.407   7.825  17.573  0.00  0.00    +0.000 C 
ATOM      9  C   UNL     1       3.882   6.598  16.791  0.00  0.00    +0.000 C 
ATOM     10  C   UNL     1       4.227   5.426  17.714  0.00  0.00    +0.000 C 
ATOM     11  C   UNL     1       5.503   5.767  18.525  0.00  0.00    +0.000 C 
ATOM     12  C   UNL     1       4.400   4.065  16.999  0.00  0.00    +0.000 C 
ATOM     13  C   UNL     1       4.134   3.042  18.130  0.00  0.00    +0.000 C 
ATOM     14  C   UNL     1       3.316   3.775  19.213  0.00  0.00    +0.000 C 
ATOM     15  C   UNL     1       2.980   5.119  18.577  0.00  0.00    +0.000 C 
ATOM     16  C   UNL     1       2.587   6.303  19.468  0.00  0.00    +0.000 C 
ATOM     17  C   UNL     1       1.381   6.019  20.370  0.00  0.00    +0.000 C 
ATOM     18  C   UNL     1       1.144   7.205  21.304  0.00  0.00    +0.000 C 
ENDROOT
BRANCH   6  19
ATOM     19  C   UNL     1       1.580  12.528  18.897  0.00  0.00    +0.000 C 
ATOM     20  C   UNL     1       0.257  13.069  18.371  0.00  0.00    +0.000 C 
ATOM     21  F   UNL     1       2.053  13.454  19.791  0.00  0.00    +0.000 F 
ATOM     22  F   UNL     1       2.483  12.548  17.873  0.00  0.00    +0.000 F 
ENDBRANCH   6  19
BRANCH   1  23
ATOM     23  O   UNL     1       0.312  12.033  21.505  0.00  0.00    +0.000 OA
BRANCH  23  25
ATOM     24  C   UNL     1      -1.426  12.210  23.097  0.00  0.00    +0.000 C 
ATOM     25  C   UNL     1      -1.071  12.028  21.651  0.00  0.00    +0.000 C 
ATOM     26  O   UNL     1      -1.895  11.921  20.756  0.00  0.00    +0.000 OA
ENDBRANCH  23  25
ENDBRANCH   1  23
BRANCH  12  27
ATOM     27  O   UNL     1       5.711   3.840  16.459  0.00  0.00    +0.000 OA
BRANCH  27  28
ATOM     28  C   UNL     1       5.925   4.247  15.179  0.00  0.00    +0.000 C 
ATOM     29  C   UNL     1       7.241   4.956  15.056  0.00  0.00    +0.000 C 
ATOM     30  O   UNL     1       5.178   4.046  14.230  0.00  0.00    +0.000 OA
ENDBRANCH  27  28
ENDBRANCH  12  27
TORSDOF 5
ENDMDL
MODEL 6
REMARK VINA RESULT:      -7.4      1.641      2.165
REMARK  Name = 
REMARK  9 active torsions:
REMARK  status: ('A' for Active; 'I' for Inactive)
REMARK    1  A    between atoms: C_1  and  C_2
REMARK    2  A    between atoms: C_2  and  O_4
REMARK    3  A    between atoms: O_4  and  C_5
REMARK    4  A    between atoms: C_10  and  C_11
REMARK    5  A    between atoms: C_11  and  C_12
REMARK    6  A    between atoms: C_18  and  C_19
REMARK    7  A    between atoms: C_20  and  O_21
REMARK    8  A    between atoms: O_21  and  C_22
REMARK    9  A    between atoms: C_22  and  C_23
REMARK                            x       y       z     vdW  Elec       q    Type
REMARK                         _______ _______ _______ _____ _____    ______ ____
ROOT
ATOM      1  C   UNL     1       2.279   5.378  19.791  0.00  0.00    +0.000 A 
ATOM      2  C   UNL     1       1.455   5.956  20.769  0.00  0.00    +0.000 A 
ATOM      3  C   UNL     1       1.199   7.332  20.782  0.00  0.00    +0.000 A 
ATOM      4  C   UNL     1       1.815   8.148  19.825  0.00  0.00    +0.000 A 
ATOM      5  C   UNL     1       2.687   7.556  18.886  0.00  0.00    +0.000 A 
ATOM      6  C   UNL     1       2.922   6.170  18.842  0.00  0.00    +0.000 A 
ATOM      7  C   UNL     1       1.608   9.656  19.867  0.00  0.00    +0.000 C 
ATOM      8  C   UNL     1       1.738  10.340  18.488  0.00  0.00    +0.000 C 
ATOM      9  C   UNL     1       1.497  11.850  18.534  0.00  0.00    +0.000 C 
ATOM     10  C   UNL     1       0.166  12.200  19.207  0.00  0.00    +0.000 C 
ATOM     11  C   UNL     1      -1.005  11.745  18.300  0.00  0.00    +0.000 C 
ATOM     12  C   UNL     1      -0.000  13.691  19.582  0.00  0.00    +0.000 C 
ATOM     13  C   UNL     1      -1.056  13.649  20.714  0.00  0.00    +0.000 C 
ATOM     14  C   UNL     1      -1.028  12.223  21.299  0.00  0.00    +0.000 C 
ATOM     15  C   UNL     1       0.168  11.567  20.619  0.00  0.00    +0.000 C 
ATOM     16  C   UNL     1       0.268  10.038  20.568  0.00  0.00    +0.000 C 
ATOM     17  C   UNL     1       0.228   9.374  21.949  0.00  0.00    +0.000 C 
ATOM     18  C   UNL     1       0.207   7.854  21.790  0.00  0.00    +0.000 C 
ENDROOT
BRANCH   6  19
ATOM     19  C   UNL     1       3.833   5.617  17.768  0.00  0.00    +0.000 C 
ATOM     20  C   UNL     1       4.396   6.720  16.881  0.00  0.00    +0.000 C 
ATOM     21  F   UNL     1       4.910   4.954  18.299  0.00  0.00    +0.000 F 
ATOM     22  F   UNL     1       3.226   4.696  16.964  0.00  0.00    +0.000 F 
ENDBRANCH   6  19
BRANCH   1  23
ATOM     23  O   UNL     1       2.554   4.001  19.868  0.00  0.00    +0.000 OA
BRANCH  23  25
ATOM     24  C   UNL     1       1.564   2.663  21.547  0.00  0.00    +0.000 C 
ATOM     25  C   UNL     1       1.472   3.168  20.137  0.00  0.00    +0.000 C 
ATOM     26  O   UNL     1       0.559   2.895  19.373  0.00  0.00    +0.000 OA
ENDBRANCH  23  25
ENDBRANCH   1  23
BRANCH  12  27
ATOM     27  O   UNL     1      -0.485  14.521  18.516  0.00  0.00    +0.000 OA
BRANCH  27  28
ATOM     28  C   UNL     1      -0.119  15.830  18.543  0.00  0.00    +0.000 C 
ATOM     29  C   UNL     1       1.358  15.968  18.767  0.00  0.00    +0.000 C 
ATOM     30  O   UNL     1      -0.866  16.786  18.376  0.00  0.00    +0.000 OA
ENDBRANCH  27  28
ENDBRANCH  12  27
TORSDOF 5
ENDMDL
MODEL 7
REMARK VINA RESULT:      -7.4      0.749      1.031
REMARK  Name = 
REMARK  9 active torsions:
REMARK  status: ('A' for Active; 'I' for Inactive)
REMARK    1  A    between atoms: C_1  and  C_2
REMARK    2  A    between atoms: C_2  and  O_4
REMARK    3  A    between atoms: O_4  and  C_5
REMARK    4  A    between atoms: C_10  and  C_11
REMARK    5  A    between atoms: C_11  and  C_12
REMARK    6  A    between atoms: C_18  and  C_19
REMARK    7  A    between atoms: C_20  and  O_21
REMARK    8  A    between atoms: O_21  and  C_22
REMARK    9  A    between atoms: C_22  and  C_23
REMARK                            x       y       z     vdW  Elec       q    Type
REMARK                         _______ _______ _______ _____ _____    ______ ____
ROOT
ATOM      1  C   UNL     1       3.831   4.833  18.057  0.00  0.00    +0.000 A 
ATOM      2  C   UNL     1       3.006   4.994  19.180  0.00  0.00    +0.000 A 
ATOM      3  C   UNL     1       2.484   6.246  19.525  0.00  0.00    +0.000 A 
ATOM      4  C   UNL     1       2.832   7.364  18.756  0.00  0.00    +0.000 A 
ATOM      5  C   UNL     1       3.712   7.191  17.665  0.00  0.00    +0.000 A 
ATOM      6  C   UNL     1       4.212   5.931  17.289  0.00  0.00    +0.000 A 
ATOM      7  C   UNL     1       2.335   8.746  19.157  0.00  0.00    +0.000 C 
ATOM      8  C   UNL     1       2.195   9.725  17.970  0.00  0.00    +0.000 C 
ATOM      9  C   UNL     1       1.664  11.101  18.378  0.00  0.00    +0.000 C 
ATOM     10  C   UNL     1       0.361  11.001  19.176  0.00  0.00    +0.000 C 
ATOM     11  C   UNL     1      -0.778  10.513  18.244  0.00  0.00    +0.000 C 
ATOM     12  C   UNL     1      -0.062  12.303  19.894  0.00  0.00    +0.000 C 
ATOM     13  C   UNL     1      -0.976  11.791  21.034  0.00  0.00    +0.000 C 
ATOM     14  C   UNL     1      -0.611  10.311  21.270  0.00  0.00    +0.000 C 
ATOM     15  C   UNL     1       0.622  10.092  20.400  0.00  0.00    +0.000 C 
ATOM     16  C   UNL     1       1.019   8.668  19.990  0.00  0.00    +0.000 C 
ATOM     17  C   UNL     1       1.243   7.727  21.179  0.00  0.00    +0.000 C 
ATOM     18  C   UNL     1       1.509   6.310  20.673  0.00  0.00    +0.000 C 
ENDROOT
BRANCH   6  19
ATOM     19  C   UNL     1       5.108   5.835  16.074  0.00  0.00    +0.000 C 
ATOM     20  C   UNL     1       4.858   4.555  15.287  0.00  0.00    +0.000 C 
ATOM     21  F   UNL     1       4.907   6.875  15.204  0.00  0.00    +0.000 F 
ATOM     22  F   UNL     1       6.438   5.892  16.375  0.00  0.00    +0.000 F 
ENDBRANCH   6  19
BRANCH   1  23
ATOM     23  O   UNL     1       4.380   3.565  17.798  0.00  0.00    +0.000 OA
BRANCH  23  25
ATOM     24  C   UNL     1       3.091   1.674  18.393  0.00  0.00    +0.000 C 
ATOM     25  C   UNL     1       4.203   2.601  18.786  0.00  0.00    +0.000 C 
ATOM     26  O   UNL     1       4.855   2.486  19.813  0.00  0.00    +0.000 OA
ENDBRANCH  23  25
ENDBRANCH   1  23
BRANCH  12  27
ATOM     27  O   UNL     1      -0.801  13.222  19.075  0.00  0.00    +0.000 OA
BRANCH  27  28
ATOM     28  C   UNL     1      -0.502  14.541  19.208  0.00  0.00    +0.000 C 
ATOM     29  C   UNL     1       0.913  14.814  18.790  0.00  0.00    +0.000 C 
ATOM     30  O   UNL     1      -1.272  15.415  19.585  0.00  0.00    +0.000 OA
ENDBRANCH  27  28
ENDBRANCH  12  27
TORSDOF 5
ENDMDL
