MODEL 1
REMARK VINA RESULT:      -8.8      0.000      0.000
REMARK  Name = 
REMARK  0 active torsions:
REMARK  status: ('A' for Active; 'I' for Inactive)
REMARK                            x       y       z     vdW  Elec       q    Type
REMARK                         _______ _______ _______ _____ _____    ______ ____
ROOT
ATOM      1  C   UNL     1       0.607  10.757  19.610  0.00  0.00    +0.000 A 
ATOM      2  C   UNL     1       1.367  11.128  18.522  0.00  0.00    +0.000 A 
ATOM      3  N   UNL     1       2.207  10.291  17.879  0.00  0.00    +0.000 NA
ATOM      4  C   UNL     1       2.317   9.031  18.321  0.00  0.00    +0.000 A 
ATOM      5  N   UNL     1       3.128   8.194  17.681  0.00  0.00    +0.000 NA
ATOM      6  C   UNL     1       3.257   6.910  18.103  0.00  0.00    +0.000 A 
ATOM      7  C   UNL     1       4.064   6.007  17.390  0.00  0.00    +0.000 A 
ATOM      8  C   UNL     1       4.744   6.424  16.219  0.00  0.00    +0.000 A 
ATOM      9  C   UNL     1       5.467   5.537  15.426  0.00  0.00    +0.000 A 
ATOM     10  C   UNL     1       5.526   4.201  15.781  0.00  0.00    +0.000 A 
ATOM     11  C   UNL     1       4.914   3.777  16.961  0.00  0.00    +0.000 A 
ATOM     12  C   UNL     1       4.201   4.663  17.809  0.00  0.00    +0.000 A 
ATOM     13  C   UNL     1       3.606   4.256  19.040  0.00  0.00    +0.000 A 
ATOM     14  C   UNL     1       3.849   2.996  19.645  0.00  0.00    +0.000 A 
ATOM     15  C   UNL     1       3.228   2.604  20.833  0.00  0.00    +0.000 A 
ATOM     16  C   UNL     1       2.319   3.452  21.438  0.00  0.00    +0.000 A 
ATOM     17  C   UNL     1       2.083   4.708  20.885  0.00  0.00    +0.000 A 
ATOM     18  C   UNL     1       2.742   5.152  19.713  0.00  0.00    +0.000 A 
ATOM     19  C   UNL     1       2.552   6.462  19.242  0.00  0.00    +0.000 A 
ATOM     20  N   UNL     1       1.715   7.306  19.891  0.00  0.00    +0.000 NA
ATOM     21  C   UNL     1       1.594   8.564  19.436  0.00  0.00    +0.000 A 
ATOM     22  C   UNL     1       0.734   9.450  20.064  0.00  0.00    +0.000 A 
ENDROOT
TORSDOF 0
ENDMDL
MODEL 2
REMARK VINA RESULT:      -8.7      0.578      3.765
REMARK  Name = 
REMARK  0 active torsions:
REMARK  status: ('A' for Active; 'I' for Inactive)
REMARK                            x       y       z     vdW  Elec       q    Type
REMARK                         _______ _______ _______ _____ _____    ______ ____
ROOT
ATOM      1  C   UNL     1       1.187  11.210  18.793  0.00  0.00    +0.000 A 
ATOM      2  C   UNL     1       0.508  10.673  19.866  0.00  0.00    +0.000 A 
ATOM      3  N   UNL     1       0.645   9.393  20.269  0.00  0.00    +0.000 NA
ATOM      4  C   UNL     1       1.480   8.594  19.591  0.00  0.00    +0.000 A 
ATOM      5  N   UNL     1       1.635   7.336  19.993  0.00  0.00    +0.000 NA
ATOM      6  C   UNL     1       2.476   6.505  19.328  0.00  0.00    +0.000 A 
ATOM      7  C   UNL     1       2.690   5.194  19.790  0.00  0.00    +0.000 A 
ATOM      8  C   UNL     1       2.037   4.731  20.959  0.00  0.00    +0.000 A 
ATOM      9  C   UNL     1       2.301   3.480  21.510  0.00  0.00    +0.000 A 
ATOM     10  C   UNL     1       3.234   2.655  20.906  0.00  0.00    +0.000 A 
ATOM     11  C   UNL     1       3.847   3.064  19.721  0.00  0.00    +0.000 A 
ATOM     12  C   UNL     1       3.572   4.318  19.116  0.00  0.00    +0.000 A 
ATOM     13  C   UNL     1       4.157   4.735  17.883  0.00  0.00    +0.000 A 
ATOM     14  C   UNL     1       4.890   3.866  17.034  0.00  0.00    +0.000 A 
ATOM     15  C   UNL     1       5.485   4.304  15.849  0.00  0.00    +0.000 A 
ATOM     16  C   UNL     1       5.388   5.636  15.490  0.00  0.00    +0.000 A 
ATOM     17  C   UNL     1       4.649   6.506  16.287  0.00  0.00    +0.000 A 
ATOM     18  C   UNL     1       3.989   6.076  17.463  0.00  0.00    +0.000 A 
ATOM     19  C   UNL     1       3.173   6.961  18.186  0.00  0.00    +0.000 A 
ATOM     20  N   UNL     1       3.028   8.244  17.778  0.00  0.00    +0.000 NA
ATOM     21  C   UNL     1       2.203   9.048  18.471  0.00  0.00    +0.000 A 
ATOM     22  C   UNL     1       2.044  10.371  18.093  0.00  0.00    +0.000 A 
ENDROOT
TORSDOF 0
ENDMDL
MODEL 3
REMARK VINA RESULT:      -8.5      1.639      5.186
REMARK  Name = 
REMARK  0 active torsions:
REMARK  status: ('A' for Active; 'I' for Inactive)
REMARK                            x       y       z     vdW  Elec       q    Type
REMARK                         _______ _______ _______ _____ _____    ______ ____
ROOT
ATOM      1  C   UNL     1       6.890   4.123  14.649  0.00  0.00    +0.000 A 
ATOM      2  C   UNL     1       6.521   5.375  14.207  0.00  0.00    +0.000 A 
ATOM      3  N   UNL     1       5.647   6.168  14.860  0.00  0.00    +0.000 NA
ATOM      4  C   UNL     1       5.099   5.716  15.997  0.00  0.00    +0.000 A 
ATOM      5  N   UNL     1       4.251   6.499  16.657  0.00  0.00    +0.000 NA
ATOM      6  C   UNL     1       3.683   6.071  17.813  0.00  0.00    +0.000 A 
ATOM      7  C   UNL     1       2.836   6.921  18.545  0.00  0.00    +0.000 A 
ATOM      8  C   UNL     1       2.573   8.237  18.088  0.00  0.00    +0.000 A 
ATOM      9  C   UNL     1       1.827   9.145  18.835  0.00  0.00    +0.000 A 
ATOM     10  C   UNL     1       1.326   8.762  20.066  0.00  0.00    +0.000 A 
ATOM     11  C   UNL     1       1.521   7.454  20.510  0.00  0.00    +0.000 A 
ATOM     12  C   UNL     1       2.245   6.495  19.757  0.00  0.00    +0.000 A 
ATOM     13  C   UNL     1       2.418   5.142  20.175  0.00  0.00    +0.000 A 
ATOM     14  C   UNL     1       1.709   4.564  21.260  0.00  0.00    +0.000 A 
ATOM     15  C   UNL     1       1.920   3.248  21.676  0.00  0.00    +0.000 A 
ATOM     16  C   UNL     1       2.871   2.475  21.034  0.00  0.00    +0.000 A 
ATOM     17  C   UNL     1       3.559   3.004  19.945  0.00  0.00    +0.000 A 
ATOM     18  C   UNL     1       3.324   4.316  19.469  0.00  0.00    +0.000 A 
ATOM     19  C   UNL     1       3.967   4.779  18.309  0.00  0.00    +0.000 A 
ATOM     20  N   UNL     1       4.840   3.981  17.647  0.00  0.00    +0.000 NA
ATOM     21  C   UNL     1       5.401   4.443  16.517  0.00  0.00    +0.000 A 
ATOM     22  C   UNL     1       6.311   3.661  15.824  0.00  0.00    +0.000 A 
ENDROOT
TORSDOF 0
ENDMDL
MODEL 4
REMARK VINA RESULT:      -8.3      1.876      5.782
REMARK  Name = 
REMARK  0 active torsions:
REMARK  status: ('A' for Active; 'I' for Inactive)
REMARK                            x       y       z     vdW  Elec       q    Type
REMARK                         _______ _______ _______ _____ _____    ______ ____
ROOT
ATOM      1  C   UNL     1       6.432   5.188  14.221  0.00  0.00    +0.000 A 
ATOM      2  C   UNL     1       6.723   3.957  14.768  0.00  0.00    +0.000 A 
ATOM      3  N   UNL     1       6.195   3.513  15.927  0.00  0.00    +0.000 NA
ATOM      4  C   UNL     1       5.346   4.310  16.590  0.00  0.00    +0.000 A 
ATOM      5  N   UNL     1       4.805   3.872  17.723  0.00  0.00    +0.000 NA
ATOM      6  C   UNL     1       3.938   4.655  18.415  0.00  0.00    +0.000 A 
ATOM      7  C   UNL     1       3.317   4.169  19.579  0.00  0.00    +0.000 A 
ATOM      8  C   UNL     1       3.583   2.855  20.037  0.00  0.00    +0.000 A 
ATOM      9  C   UNL     1       2.911   2.298  21.122  0.00  0.00    +0.000 A 
ATOM     10  C   UNL     1       1.947   3.043  21.779  0.00  0.00    +0.000 A 
ATOM     11  C   UNL     1       1.710   4.360  21.383  0.00  0.00    +0.000 A 
ATOM     12  C   UNL     1       2.404   4.967  20.305  0.00  0.00    +0.000 A 
ATOM     13  C   UNL     1       2.205   6.325  19.914  0.00  0.00    +0.000 A 
ATOM     14  C   UNL     1       1.469   7.260  20.688  0.00  0.00    +0.000 A 
ATOM     15  C   UNL     1       1.256   8.575  20.269  0.00  0.00    +0.000 A 
ATOM     16  C   UNL     1       1.750   8.988  19.046  0.00  0.00    +0.000 A 
ATOM     17  C   UNL     1       2.503   8.103  18.278  0.00  0.00    +0.000 A 
ATOM     18  C   UNL     1       2.781   6.782  18.705  0.00  0.00    +0.000 A 
ATOM     19  C   UNL     1       3.625   5.952  17.950  0.00  0.00    +0.000 A 
ATOM     20  N   UNL     1       4.163   6.399  16.790  0.00  0.00    +0.000 NA
ATOM     21  C   UNL     1       5.001   5.591  16.118  0.00  0.00    +0.000 A 
ATOM     22  C   UNL     1       5.556   6.009  14.920  0.00  0.00    +0.000 A 
ENDROOT
TORSDOF 0
ENDMDL
MODEL 5
REMARK VINA RESULT:      -8.2      1.137      1.415
REMARK  Name = 
REMARK  0 active torsions:
REMARK  status: ('A' for Active; 'I' for Inactive)
REMARK                            x       y       z     vdW  Elec       q    Type
REMARK                         _______ _______ _______ _____ _____    ______ ____
ROOT
ATOM      1  C   UNL     1      -0.348   9.624  21.571  0.00  0.00    +0.000 A 
ATOM      2  C   UNL     1       0.270  10.353  20.577  0.00  0.00    +0.000 A 
ATOM      3  N   UNL     1       1.191   9.836  19.738  0.00  0.00    +0.000 NA
ATOM      4  C   UNL     1       1.531   8.548  19.876  0.00  0.00    +0.000 A 
ATOM      5  N   UNL     1       2.424   8.025  19.040  0.00  0.00    +0.000 NA
ATOM      6  C   UNL     1       2.786   6.722  19.153  0.00  0.00    +0.000 A 
ATOM      7  C   UNL     1       3.681   6.152  18.232  0.00  0.00    +0.000 A 
ATOM      8  C   UNL     1       4.208   6.929  17.170  0.00  0.00    +0.000 A 
ATOM      9  C   UNL     1       5.012   6.378  16.176  0.00  0.00    +0.000 A 
ATOM     10  C   UNL     1       5.309   5.027  16.214  0.00  0.00    +0.000 A 
ATOM     11  C   UNL     1       4.851   4.253  17.281  0.00  0.00    +0.000 A 
ATOM     12  C   UNL     1       4.060   4.793  18.327  0.00  0.00    +0.000 A 
ATOM     13  C   UNL     1       3.619   4.027  19.447  0.00  0.00    +0.000 A 
ATOM     14  C   UNL     1       4.101   2.725  19.741  0.00  0.00    +0.000 A 
ATOM     15  C   UNL     1       3.630   1.978  20.822  0.00  0.00    +0.000 A 
ATOM     16  C   UNL     1       2.636   2.502  21.630  0.00  0.00    +0.000 A 
ATOM     17  C   UNL     1       2.166   3.790  21.386  0.00  0.00    +0.000 A 
ATOM     18  C   UNL     1       2.667   4.589  20.330  0.00  0.00    +0.000 A 
ATOM     19  C   UNL     1       2.238   5.918  20.178  0.00  0.00    +0.000 A 
ATOM     20  N   UNL     1       1.319   6.440  21.024  0.00  0.00    +0.000 NA
ATOM     21  C   UNL     1       0.966   7.728  20.873  0.00  0.00    +0.000 A 
ATOM     22  C   UNL     1       0.017   8.291  21.710  0.00  0.00    +0.000 A 
ENDROOT
TORSDOF 0
ENDMDL
MODEL 6
REMARK VINA RESULT:      -8.1      1.153      3.963
REMARK  Name = 
REMARK  0 active torsions:
REMARK  status: ('A' for Active; 'I' for Inactive)
REMARK                            x       y       z     vdW  Elec       q    Type
REMARK                         _______ _______ _______ _____ _____    ______ ____
ROOT
ATOM      1  C   UNL     1       0.148  10.604  20.866  0.00  0.00    +0.000 A 
ATOM      2  C   UNL     1      -0.369   9.727  21.796  0.00  0.00    +0.000 A 
ATOM      3  N   UNL     1      -0.026   8.425  21.863  0.00  0.00    +0.000 NA
ATOM      4  C   UNL     1       0.861   7.950  20.978  0.00  0.00    +0.000 A 
ATOM      5  N   UNL     1       1.220   6.672  21.049  0.00  0.00    +0.000 NA
ATOM      6  C   UNL     1       2.119   6.163  20.169  0.00  0.00    +0.000 A 
ATOM      7  C   UNL     1       2.547   4.830  20.282  0.00  0.00    +0.000 A 
ATOM      8  C   UNL     1       2.052   4.005  21.323  0.00  0.00    +0.000 A 
ATOM      9  C   UNL     1       2.528   2.713  21.536  0.00  0.00    +0.000 A 
ATOM     10  C   UNL     1       3.521   2.211  20.712  0.00  0.00    +0.000 A 
ATOM     11  C   UNL     1       3.982   2.982  19.645  0.00  0.00    +0.000 A 
ATOM     12  C   UNL     1       3.491   4.287  19.380  0.00  0.00    +0.000 A 
ATOM     13  C   UNL     1       3.920   5.072  18.269  0.00  0.00    +0.000 A 
ATOM     14  C   UNL     1       4.704   4.556  17.204  0.00  0.00    +0.000 A 
ATOM     15  C   UNL     1       5.143   5.351  16.144  0.00  0.00    +0.000 A 
ATOM     16  C   UNL     1       4.835   6.699  16.132  0.00  0.00    +0.000 A 
ATOM     17  C   UNL     1       4.041   7.229  17.145  0.00  0.00    +0.000 A 
ATOM     18  C   UNL     1       3.536   6.433  18.202  0.00  0.00    +0.000 A 
ATOM     19  C   UNL     1       2.659   6.982  19.151  0.00  0.00    +0.000 A 
ATOM     20  N   UNL     1       2.306   8.288  19.080  0.00  0.00    +0.000 NA
ATOM     21  C   UNL     1       1.430   8.765  19.980  0.00  0.00    +0.000 A 
ATOM     22  C   UNL     1       1.060  10.100  19.949  0.00  0.00    +0.000 A 
ENDROOT
TORSDOF 0
ENDMDL
MODEL 7
REMARK VINA RESULT:      -6.8      1.322      3.936
REMARK  Name = 
REMARK  0 active torsions:
REMARK  status: ('A' for Active; 'I' for Inactive)
REMARK                            x       y       z     vdW  Elec       q    Type
REMARK                         _______ _______ _______ _____ _____    ______ ____
ROOT
ATOM      1  C   UNL     1       0.702   9.864  20.980  0.00  0.00    +0.000 A 
ATOM      2  C   UNL     1       0.053   8.867  21.677  0.00  0.00    +0.000 A 
ATOM      3  N   UNL     1       0.261   7.552  21.463  0.00  0.00    +0.000 NA
ATOM      4  C   UNL     1       1.141   7.188  20.520  0.00  0.00    +0.000 A 
ATOM      5  N   UNL     1       1.366   5.894  20.316  0.00  0.00    +0.000 NA
ATOM      6  C   UNL     1       2.254   5.495  19.371  0.00  0.00    +0.000 A 
ATOM      7  C   UNL     1       2.541   4.130  19.197  0.00  0.00    +0.000 A 
ATOM      8  C   UNL     1       1.914   3.157  20.014  0.00  0.00    +0.000 A 
ATOM      9  C   UNL     1       2.247   1.806  19.948  0.00  0.00    +0.000 A 
ATOM     10  C   UNL     1       3.226   1.391  19.063  0.00  0.00    +0.000 A 
ATOM     11  C   UNL     1       3.816   2.321  18.206  0.00  0.00    +0.000 A 
ATOM     12  C   UNL     1       3.472   3.697  18.225  0.00  0.00    +0.000 A 
ATOM     13  C   UNL     1       4.034   4.655  17.328  0.00  0.00    +0.000 A 
ATOM     14  C   UNL     1       4.816   4.301  16.198  0.00  0.00    +0.000 A 
ATOM     15  C   UNL     1       5.387   5.256  15.354  0.00  0.00    +0.000 A 
ATOM     16  C   UNL     1       5.216   6.599  15.632  0.00  0.00    +0.000 A 
ATOM     17  C   UNL     1       4.427   6.978  16.715  0.00  0.00    +0.000 A 
ATOM     18  C   UNL     1       3.791   6.031  17.554  0.00  0.00    +0.000 A 
ATOM     19  C   UNL     1       2.925   6.452  18.576  0.00  0.00    +0.000 A 
ATOM     20  N   UNL     1       2.709   7.772  18.787  0.00  0.00    +0.000 NA
ATOM     21  C   UNL     1       1.839   8.134  19.745  0.00  0.00    +0.000 A 
ATOM     22  C   UNL     1       1.606   9.476  20.000  0.00  0.00    +0.000 A 
ENDROOT
TORSDOF 0
ENDMDL
MODEL 8
REMARK VINA RESULT:      -6.7      1.817      7.432
REMARK  Name = 
REMARK  0 active torsions:
REMARK  status: ('A' for Active; 'I' for Inactive)
REMARK                            x       y       z     vdW  Elec       q    Type
REMARK                         _______ _______ _______ _____ _____    ______ ____
ROOT
ATOM      1  C   UNL     1       3.389   4.899  18.198  0.00  0.00    +0.000 A 
ATOM      2  C   UNL     1       2.880   4.474  19.407  0.00  0.00    +0.000 A 
ATOM      3  N   UNL     1       2.238   5.285  20.272  0.00  0.00    +0.000 NA
ATOM      4  C   UNL     1       2.088   6.576  19.947  0.00  0.00    +0.000 A 
ATOM      5  N   UNL     1       1.438   7.379  20.785  0.00  0.00    +0.000 NA
ATOM      6  C   UNL     1       1.267   8.690  20.481  0.00  0.00    +0.000 A 
ATOM      7  C   UNL     1       0.526   9.526  21.335  0.00  0.00    +0.000 A 
ATOM      8  C   UNL     1      -0.058   9.005  22.517  0.00  0.00    +0.000 A 
ATOM      9  C   UNL     1      -0.886   9.770  23.334  0.00  0.00    +0.000 A 
ATOM     10  C   UNL     1      -1.158  11.082  22.987  0.00  0.00    +0.000 A 
ATOM     11  C   UNL     1      -0.549  11.634  21.861  0.00  0.00    +0.000 A 
ATOM     12  C   UNL     1       0.328  10.892  21.029  0.00  0.00    +0.000 A 
ATOM     13  C   UNL     1       0.993  11.452  19.898  0.00  0.00    +0.000 A 
ATOM     14  C   UNL     1       1.022  12.844  19.620  0.00  0.00    +0.000 A 
ATOM     15  C   UNL     1       1.648  13.368  18.488  0.00  0.00    +0.000 A 
ATOM     16  C   UNL     1       2.242  12.511  17.580  0.00  0.00    +0.000 A 
ATOM     17  C   UNL     1       2.258  11.143  17.841  0.00  0.00    +0.000 A 
ATOM     18  C   UNL     1       1.679  10.591  19.009  0.00  0.00    +0.000 A 
ATOM     19  C   UNL     1       1.802   9.220  19.285  0.00  0.00    +0.000 A 
ATOM     20  N   UNL     1       2.454   8.405  18.421  0.00  0.00    +0.000 NA
ATOM     21  C   UNL     1       2.588   7.107  18.742  0.00  0.00    +0.000 A 
ATOM     22  C   UNL     1       3.234   6.241  17.874  0.00  0.00    +0.000 A 
ENDROOT
TORSDOF 0
ENDMDL
MODEL 9
REMARK VINA RESULT:      -6.7      1.826      6.461
REMARK  Name = 
REMARK  0 active torsions:
REMARK  status: ('A' for Active; 'I' for Inactive)
REMARK                            x       y       z     vdW  Elec       q    Type
REMARK                         _______ _______ _______ _____ _____    ______ ____
ROOT
ATOM      1  C   UNL     1       3.065   4.643  19.041  0.00  0.00    +0.000 A 
ATOM      2  C   UNL     1       3.510   5.281  17.902  0.00  0.00    +0.000 A 
ATOM      3  N   UNL     1       3.317   6.594  17.661  0.00  0.00    +0.000 NA
ATOM      4  C   UNL     1       2.654   7.321  18.569  0.00  0.00    +0.000 A 
ATOM      5  N   UNL     1       2.477   8.621  18.348  0.00  0.00    +0.000 NA
ATOM      6  C   UNL     1       1.812   9.384  19.252  0.00  0.00    +0.000 A 
ATOM      7  C   UNL     1       1.680  10.769  19.051  0.00  0.00    +0.000 A 
ATOM      8  C   UNL     1       2.247  11.383  17.906  0.00  0.00    +0.000 A 
ATOM      9  C   UNL     1       2.231  12.764  17.721  0.00  0.00    +0.000 A 
ATOM     10  C   UNL     1       1.650  13.571  18.683  0.00  0.00    +0.000 A 
ATOM     11  C   UNL     1       1.033  12.986  19.789  0.00  0.00    +0.000 A 
ATOM     12  C   UNL     1       1.001  11.581  19.987  0.00  0.00    +0.000 A 
ATOM     13  C   UNL     1       0.338  10.963  21.089  0.00  0.00    +0.000 A 
ATOM     14  C   UNL     1      -0.532  11.660  21.968  0.00  0.00    +0.000 A 
ATOM     15  C   UNL     1      -1.142  11.044  23.062  0.00  0.00    +0.000 A 
ATOM     16  C   UNL     1      -0.877   9.713  23.329  0.00  0.00    +0.000 A 
ATOM     17  C   UNL     1      -0.053   8.994  22.468  0.00  0.00    +0.000 A 
ATOM     18  C   UNL     1       0.534   9.581  21.320  0.00  0.00    +0.000 A 
ATOM     19  C   UNL     1       1.278   8.799  20.422  0.00  0.00    +0.000 A 
ATOM     20  N   UNL     1       1.466   7.478  20.659  0.00  0.00    +0.000 NA
ATOM     21  C   UNL     1       2.146   6.754  19.754  0.00  0.00    +0.000 A 
ATOM     22  C   UNL     1       2.372   5.405  19.972  0.00  0.00    +0.000 A 
ENDROOT
TORSDOF 0
ENDMDL
