MODEL 1
REMARK VINA RESULT:      -7.2      0.000      0.000
REMARK  Name = 
REMARK  8 active torsions:
REMARK  status: ('A' for Active; 'I' for Inactive)
REMARK    1  A    between atoms: C_1  and  O_2
REMARK    2  A    between atoms: O_2  and  C_3
REMARK    3  A    between atoms: C_3  and  C_5
REMARK    4  A    between atoms: C_10  and  N_11
REMARK    5  A    between atoms: C_12  and  C_14
REMARK    6  A    between atoms: C_14  and  N_15
REMARK    7  A    between atoms: C_16  and  S_17
REMARK    8  A    between atoms: S_17  and  C_18
REMARK                            x       y       z     vdW  Elec       q    Type
REMARK                         _______ _______ _______ _____ _____    ______ ____
ROOT
ATOM      1  N   UNL     1       6.418   4.362  18.462  0.00  0.00    +0.000 N 
ATOM      2  C   UNL     1       5.201   4.210  19.120  0.00  0.00    +0.000 C 
ATOM      3  O   UNL     1       4.532   5.154  19.520  0.00  0.00    +0.000 OA
ATOM      4  H   UNL     1       6.616   3.633  17.789  0.00  0.00    +0.000 HD
ENDROOT
BRANCH   1  10
ATOM      5  C   UNL     1       6.665   6.413  16.999  0.00  0.00    +0.000 A 
ATOM      6  C   UNL     1       7.249   7.693  16.875  0.00  0.00    +0.000 A 
ATOM      7  C   UNL     1       8.136   8.184  17.834  0.00  0.00    +0.000 A 
ATOM      8  C   UNL     1       8.447   7.405  18.938  0.00  0.00    +0.000 A 
ATOM      9  C   UNL     1       7.841   6.158  19.103  0.00  0.00    +0.000 A 
ATOM     10  C   UNL     1       6.949   5.640  18.145  0.00  0.00    +0.000 A 
BRANCH   5  11
ATOM     11  C   UNL     1       5.742   6.061  15.888  0.00  0.00    +0.000 C 
ATOM     12  O   UNL     1       4.987   6.879  15.372  0.00  0.00    +0.000 OA
BRANCH  11  14
ATOM     13  C   UNL     1       6.669   4.320  14.667  0.00  0.00    +0.000 C 
ATOM     14  O   UNL     1       5.719   4.724  15.658  0.00  0.00    +0.000 OA
ENDBRANCH  11  14
ENDBRANCH   5  11
ENDBRANCH   1  10
BRANCH   2  15
ATOM     15  C   UNL     1       4.737   2.725  19.230  0.00  0.00    +0.000 C 
BRANCH  15  16
ATOM     16  N   UNL     1       3.470   2.597  19.970  0.00  0.00    +0.000 N 
ATOM     17  C   UNL     1       2.201   2.792  19.417  0.00  0.00    +0.000 A 
ATOM     18  C   UNL     1       1.139   2.826  20.229  0.00  0.00    +0.000 A 
ATOM     19  F   UNL     1      -0.138   3.024  19.854  0.00  0.00    +0.000 F 
ATOM     20  C   UNL     1       1.393   2.641  21.651  0.00  0.00    +0.000 A 
ATOM     21  N   UNL     1       2.526   2.300  22.152  0.00  0.00    +0.000 NA
ATOM     22  C   UNL     1       3.595   2.136  21.301  0.00  0.00    +0.000 A 
ATOM     23  O   UNL     1       4.621   1.586  21.688  0.00  0.00    +0.000 OA
BRANCH  17  24
ATOM     24  S   UNL     1       1.971   2.958  17.698  0.00  0.00    +0.000 S 
ATOM     25  C   UNL     1       1.677   4.752  17.526  0.00  0.00    +0.000 C 
ENDBRANCH  17  24
ENDBRANCH  15  16
ENDBRANCH   2  15
TORSDOF 6
ENDMDL
MODEL 2
REMARK VINA RESULT:      -6.3      0.693      1.263
REMARK  Name = 
REMARK  8 active torsions:
REMARK  status: ('A' for Active; 'I' for Inactive)
REMARK    1  A    between atoms: C_1  and  O_2
REMARK    2  A    between atoms: O_2  and  C_3
REMARK    3  A    between atoms: C_3  and  C_5
REMARK    4  A    between atoms: C_10  and  N_11
REMARK    5  A    between atoms: C_12  and  C_14
REMARK    6  A    between atoms: C_14  and  N_15
REMARK    7  A    between atoms: C_16  and  S_17
REMARK    8  A    between atoms: S_17  and  C_18
REMARK                            x       y       z     vdW  Elec       q    Type
REMARK                         _______ _______ _______ _____ _____    ______ ____
ROOT
ATOM      1  N   UNL     1       6.366   4.432  18.433  0.00  0.00    +0.000 N 
ATOM      2  C   UNL     1       5.200   4.235  19.168  0.00  0.00    +0.000 C 
ATOM      3  O   UNL     1       4.563   5.150  19.672  0.00  0.00    +0.000 OA
ATOM      4  H   UNL     1       6.516   3.746  17.705  0.00  0.00    +0.000 HD
ENDROOT
BRANCH   1  10
ATOM      5  C   UNL     1       6.423   6.616  17.155  0.00  0.00    +0.000 A 
ATOM      6  C   UNL     1       7.014   7.896  17.059  0.00  0.00    +0.000 A 
ATOM      7  C   UNL     1       8.062   8.279  17.897  0.00  0.00    +0.000 A 
ATOM      8  C   UNL     1       8.530   7.389  18.853  0.00  0.00    +0.000 A 
ATOM      9  C   UNL     1       7.925   6.139  18.996  0.00  0.00    +0.000 A 
ATOM     10  C   UNL     1       6.873   5.729  18.156  0.00  0.00    +0.000 A 
BRANCH   5  11
ATOM     11  C   UNL     1       5.319   6.387  16.186  0.00  0.00    +0.000 C 
ATOM     12  O   UNL     1       5.338   5.474  15.367  0.00  0.00    +0.000 OA
BRANCH  11  14
ATOM     13  C   UNL     1       3.612   7.391  17.393  0.00  0.00    +0.000 C 
ATOM     14  O   UNL     1       4.415   7.398  16.207  0.00  0.00    +0.000 OA
ENDBRANCH  11  14
ENDBRANCH   5  11
ENDBRANCH   1  10
BRANCH   2  15
ATOM     15  C   UNL     1       4.746   2.744  19.222  0.00  0.00    +0.000 C 
BRANCH  15  16
ATOM     16  N   UNL     1       3.478   2.581  19.951  0.00  0.00    +0.000 N 
ATOM     17  C   UNL     1       2.208   2.727  19.385  0.00  0.00    +0.000 A 
ATOM     18  C   UNL     1       1.137   2.733  20.187  0.00  0.00    +0.000 A 
ATOM     19  F   UNL     1      -0.141   2.883  19.799  0.00  0.00    +0.000 F 
ATOM     20  C   UNL     1       1.384   2.571  21.613  0.00  0.00    +0.000 A 
ATOM     21  N   UNL     1       2.524   2.274  22.128  0.00  0.00    +0.000 NA
ATOM     22  C   UNL     1       3.606   2.138  21.288  0.00  0.00    +0.000 A 
ATOM     23  O   UNL     1       4.646   1.627  21.691  0.00  0.00    +0.000 OA
BRANCH  17  24
ATOM     24  S   UNL     1       1.989   2.868  17.662  0.00  0.00    +0.000 S 
ATOM     25  C   UNL     1       1.464   4.608  17.487  0.00  0.00    +0.000 C 
ENDBRANCH  17  24
ENDBRANCH  15  16
ENDBRANCH   2  15
TORSDOF 6
ENDMDL
MODEL 3
REMARK VINA RESULT:      -6.3      2.914      6.065
REMARK  Name = 
REMARK  8 active torsions:
REMARK  status: ('A' for Active; 'I' for Inactive)
REMARK    1  A    between atoms: C_1  and  O_2
REMARK    2  A    between atoms: O_2  and  C_3
REMARK    3  A    between atoms: C_3  and  C_5
REMARK    4  A    between atoms: C_10  and  N_11
REMARK    5  A    between atoms: C_12  and  C_14
REMARK    6  A    between atoms: C_14  and  N_15
REMARK    7  A    between atoms: C_16  and  S_17
REMARK    8  A    between atoms: S_17  and  C_18
REMARK                            x       y       z     vdW  Elec       q    Type
REMARK                         _______ _______ _______ _____ _____    ______ ____
ROOT
ATOM      1  N   UNL     1       4.018   4.982  19.705  0.00  0.00    +0.000 N 
ATOM      2  C   UNL     1       5.255   4.397  19.454  0.00  0.00    +0.000 C 
ATOM      3  O   UNL     1       5.464   3.196  19.565  0.00  0.00    +0.000 OA
ATOM      4  H   UNL     1       3.831   5.806  19.148  0.00  0.00    +0.000 HD
ENDROOT
BRANCH   1  10
ATOM      5  C   UNL     1       1.887   3.725  19.171  0.00  0.00    +0.000 A 
ATOM      6  C   UNL     1       0.843   2.927  19.689  0.00  0.00    +0.000 A 
ATOM      7  C   UNL     1       0.743   2.655  21.053  0.00  0.00    +0.000 A 
ATOM      8  C   UNL     1       1.692   3.172  21.923  0.00  0.00    +0.000 A 
ATOM      9  C   UNL     1       2.760   3.921  21.423  0.00  0.00    +0.000 A 
ATOM     10  C   UNL     1       2.876   4.213  20.051  0.00  0.00    +0.000 A 
BRANCH   5  11
ATOM     11  C   UNL     1       1.836   3.902  17.695  0.00  0.00    +0.000 C 
ATOM     12  O   UNL     1       0.817   4.248  17.107  0.00  0.00    +0.000 OA
BRANCH  11  14
ATOM     13  C   UNL     1       3.190   2.063  17.286  0.00  0.00    +0.000 C 
ATOM     14  O   UNL     1       2.973   3.465  17.097  0.00  0.00    +0.000 OA
ENDBRANCH  11  14
ENDBRANCH   5  11
ENDBRANCH   1  10
BRANCH   2  15
ATOM     15  C   UNL     1       6.328   5.408  18.944  0.00  0.00    +0.000 C 
BRANCH  15  16
ATOM     16  N   UNL     1       6.312   5.536  17.478  0.00  0.00    +0.000 N 
ATOM     17  C   UNL     1       5.545   6.463  16.767  0.00  0.00    +0.000 A 
ATOM     18  C   UNL     1       5.477   6.362  15.434  0.00  0.00    +0.000 A 
ATOM     19  F   UNL     1       4.770   7.161  14.615  0.00  0.00    +0.000 F 
ATOM     20  C   UNL     1       6.231   5.280  14.818  0.00  0.00    +0.000 A 
ATOM     21  N   UNL     1       7.065   4.525  15.440  0.00  0.00    +0.000 NA
ATOM     22  C   UNL     1       7.236   4.713  16.793  0.00  0.00    +0.000 A 
ATOM     23  O   UNL     1       8.179   4.193  17.380  0.00  0.00    +0.000 OA
BRANCH  17  24
ATOM     24  S   UNL     1       4.708   7.762  17.572  0.00  0.00    +0.000 S 
ATOM     25  C   UNL     1       2.967   7.223  17.452  0.00  0.00    +0.000 C 
ENDBRANCH  17  24
ENDBRANCH  15  16
ENDBRANCH   2  15
TORSDOF 6
ENDMDL
MODEL 4
REMARK VINA RESULT:      -6.2      4.516      6.190
REMARK  Name = 
REMARK  8 active torsions:
REMARK  status: ('A' for Active; 'I' for Inactive)
REMARK    1  A    between atoms: C_1  and  O_2
REMARK    2  A    between atoms: O_2  and  C_3
REMARK    3  A    between atoms: C_3  and  C_5
REMARK    4  A    between atoms: C_10  and  N_11
REMARK    5  A    between atoms: C_12  and  C_14
REMARK    6  A    between atoms: C_14  and  N_15
REMARK    7  A    between atoms: C_16  and  S_17
REMARK    8  A    between atoms: S_17  and  C_18
REMARK                            x       y       z     vdW  Elec       q    Type
REMARK                         _______ _______ _______ _____ _____    ______ ____
ROOT
ATOM      1  N   UNL     1       2.398   7.208  20.334  0.00  0.00    +0.000 N 
ATOM      2  C   UNL     1       1.714   6.032  20.629  0.00  0.00    +0.000 C 
ATOM      3  O   UNL     1       0.504   5.909  20.492  0.00  0.00    +0.000 OA
ATOM      4  H   UNL     1       3.350   7.064  20.021  0.00  0.00    +0.000 HD
ENDROOT
BRANCH   1  10
ATOM      5  C   UNL     1       1.136   9.395  20.504  0.00  0.00    +0.000 A 
ATOM      6  C   UNL     1       0.578  10.478  19.789  0.00  0.00    +0.000 A 
ATOM      7  C   UNL     1       0.573  10.504  18.394  0.00  0.00    +0.000 A 
ATOM      8  C   UNL     1       1.136   9.448  17.690  0.00  0.00    +0.000 A 
ATOM      9  C   UNL     1       1.737   8.395  18.380  0.00  0.00    +0.000 A 
ATOM     10  C   UNL     1       1.746   8.344  19.787  0.00  0.00    +0.000 A 
BRANCH   5  11
ATOM     11  C   UNL     1       1.055   9.543  21.981  0.00  0.00    +0.000 C 
ATOM     12  O   UNL     1       1.503   8.702  22.754  0.00  0.00    +0.000 OA
BRANCH  11  14
ATOM     13  C   UNL     1      -0.834  10.219  23.144  0.00  0.00    +0.000 C 
ATOM     14  O   UNL     1       0.286  10.601  22.339  0.00  0.00    +0.000 OA
ENDBRANCH  11  14
ENDBRANCH   5  11
ENDBRANCH   1  10
BRANCH   2  15
ATOM     15  C   UNL     1       2.648   4.867  21.077  0.00  0.00    +0.000 C 
BRANCH  15  16
ATOM     16  N   UNL     1       2.815   3.856  20.019  0.00  0.00    +0.000 N 
ATOM     17  C   UNL     1       3.796   3.898  19.024  0.00  0.00    +0.000 A 
ATOM     18  C   UNL     1       3.732   3.022  18.014  0.00  0.00    +0.000 A 
ATOM     19  F   UNL     1       4.585   2.949  16.977  0.00  0.00    +0.000 F 
ATOM     20  C   UNL     1       2.632   2.069  18.039  0.00  0.00    +0.000 A 
ATOM     21  N   UNL     1       1.823   1.914  19.026  0.00  0.00    +0.000 NA
ATOM     22  C   UNL     1       1.967   2.729  20.125  0.00  0.00    +0.000 A 
ATOM     23  O   UNL     1       1.388   2.468  21.175  0.00  0.00    +0.000 OA
BRANCH  17  24
ATOM     24  S   UNL     1       5.111   5.039  19.088  0.00  0.00    +0.000 S 
ATOM     25  C   UNL     1       4.686   6.185  17.730  0.00  0.00    +0.000 C 
ENDBRANCH  17  24
ENDBRANCH  15  16
ENDBRANCH   2  15
TORSDOF 6
ENDMDL
MODEL 5
REMARK VINA RESULT:      -6.0      2.474      3.618
REMARK  Name = 
REMARK  8 active torsions:
REMARK  status: ('A' for Active; 'I' for Inactive)
REMARK    1  A    between atoms: C_1  and  O_2
REMARK    2  A    between atoms: O_2  and  C_3
REMARK    3  A    between atoms: C_3  and  C_5
REMARK    4  A    between atoms: C_10  and  N_11
REMARK    5  A    between atoms: C_12  and  C_14
REMARK    6  A    between atoms: C_14  and  N_15
REMARK    7  A    between atoms: C_16  and  S_17
REMARK    8  A    between atoms: S_17  and  C_18
REMARK                            x       y       z     vdW  Elec       q    Type
REMARK                         _______ _______ _______ _____ _____    ______ ____
ROOT
ATOM      1  N   UNL     1       5.549   3.360  16.715  0.00  0.00    +0.000 N 
ATOM      2  C   UNL     1       4.186   3.429  16.986  0.00  0.00    +0.000 C 
ATOM      3  O   UNL     1       3.390   4.032  16.278  0.00  0.00    +0.000 OA
ATOM      4  H   UNL     1       5.990   2.507  17.033  0.00  0.00    +0.000 HD
ENDROOT
BRANCH   1  10
ATOM      5  C   UNL     1       6.967   5.061  15.490  0.00  0.00    +0.000 A 
ATOM      6  C   UNL     1       7.482   5.466  14.238  0.00  0.00    +0.000 A 
ATOM      7  C   UNL     1       7.128   4.809  13.059  0.00  0.00    +0.000 A 
ATOM      8  C   UNL     1       6.257   3.730  13.115  0.00  0.00    +0.000 A 
ATOM      9  C   UNL     1       5.779   3.285  14.348  0.00  0.00    +0.000 A 
ATOM     10  C   UNL     1       6.116   3.937  15.549  0.00  0.00    +0.000 A 
BRANCH   5  11
ATOM     11  C   UNL     1       7.459   5.873  16.635  0.00  0.00    +0.000 C 
ATOM     12  O   UNL     1       7.681   7.076  16.544  0.00  0.00    +0.000 OA
BRANCH  11  14
ATOM     13  C   UNL     1       7.780   5.818  18.931  0.00  0.00    +0.000 C 
ATOM     14  O   UNL     1       7.792   5.096  17.696  0.00  0.00    +0.000 OA
ENDBRANCH  11  14
ENDBRANCH   5  11
ENDBRANCH   1  10
BRANCH   2  15
ATOM     15  C   UNL     1       3.760   2.601  18.238  0.00  0.00    +0.000 C 
BRANCH  15  16
ATOM     16  N   UNL     1       2.704   3.275  19.011  0.00  0.00    +0.000 N 
ATOM     17  C   UNL     1       2.851   4.506  19.657  0.00  0.00    +0.000 A 
ATOM     18  C   UNL     1       1.881   4.928  20.477  0.00  0.00    +0.000 A 
ATOM     19  F   UNL     1       1.884   6.073  21.183  0.00  0.00    +0.000 F 
ATOM     20  C   UNL     1       0.722   4.060  20.624  0.00  0.00    +0.000 A 
ATOM     21  N   UNL     1       0.500   3.010  19.915  0.00  0.00    +0.000 NA
ATOM     22  C   UNL     1       1.438   2.645  18.976  0.00  0.00    +0.000 A 
ATOM     23  O   UNL     1       1.170   1.807  18.121  0.00  0.00    +0.000 OA
BRANCH  17  24
ATOM     24  S   UNL     1       4.249   5.513  19.394  0.00  0.00    +0.000 S 
ATOM     25  C   UNL     1       3.589   6.791  18.270  0.00  0.00    +0.000 C 
ENDBRANCH  17  24
ENDBRANCH  15  16
ENDBRANCH   2  15
TORSDOF 6
ENDMDL
MODEL 6
REMARK VINA RESULT:      -5.9      4.634      5.874
REMARK  Name = 
REMARK  8 active torsions:
REMARK  status: ('A' for Active; 'I' for Inactive)
REMARK    1  A    between atoms: C_1  and  O_2
REMARK    2  A    between atoms: O_2  and  C_3
REMARK    3  A    between atoms: C_3  and  C_5
REMARK    4  A    between atoms: C_10  and  N_11
REMARK    5  A    between atoms: C_12  and  C_14
REMARK    6  A    between atoms: C_14  and  N_15
REMARK    7  A    between atoms: C_16  and  S_17
REMARK    8  A    between atoms: S_17  and  C_18
REMARK                            x       y       z     vdW  Elec       q    Type
REMARK                         _______ _______ _______ _____ _____    ______ ____
ROOT
ATOM      1  N   UNL     1       2.001   7.946  21.161  0.00  0.00    +0.000 N 
ATOM      2  C   UNL     1       1.678   6.653  20.761  0.00  0.00    +0.000 C 
ATOM      3  O   UNL     1       0.529   6.276  20.574  0.00  0.00    +0.000 OA
ATOM      4  H   UNL     1       2.898   8.270  20.823  0.00  0.00    +0.000 HD
ENDROOT
BRANCH   1  10
ATOM      5  C   UNL     1       0.468   9.772  20.310  0.00  0.00    +0.000 A 
ATOM      6  C   UNL     1      -0.549  10.691  20.649  0.00  0.00    +0.000 A 
ATOM      7  C   UNL     1      -0.987  10.841  21.965  0.00  0.00    +0.000 A 
ATOM      8  C   UNL     1      -0.417  10.066  22.965  0.00  0.00    +0.000 A 
ATOM      9  C   UNL     1       0.553   9.117  22.642  0.00  0.00    +0.000 A 
ATOM     10  C   UNL     1       1.015   8.954  21.323  0.00  0.00    +0.000 A 
BRANCH   5  11
ATOM     11  C   UNL     1       0.800   9.745  18.861  0.00  0.00    +0.000 C 
ATOM     12  O   UNL     1      -0.057   9.814  17.987  0.00  0.00    +0.000 OA
BRANCH  11  14
ATOM     13  C   UNL     1       2.300   8.492  17.613  0.00  0.00    +0.000 C 
ATOM     14  O   UNL     1       2.109   9.459  18.650  0.00  0.00    +0.000 OA
ENDBRANCH  11  14
ENDBRANCH   5  11
ENDBRANCH   1  10
BRANCH   2  15
ATOM     15  C   UNL     1       2.926   5.754  20.500  0.00  0.00    +0.000 C 
BRANCH  15  16
ATOM     16  N   UNL     1       2.554   4.439  19.955  0.00  0.00    +0.000 N 
ATOM     17  C   UNL     1       2.750   4.041  18.629  0.00  0.00    +0.000 A 
ATOM     18  C   UNL     1       2.206   2.892  18.210  0.00  0.00    +0.000 A 
ATOM     19  F   UNL     1       2.288   2.385  16.967  0.00  0.00    +0.000 F 
ATOM     20  C   UNL     1       1.450   2.127  19.191  0.00  0.00    +0.000 A 
ATOM     21  N   UNL     1       1.399   2.398  20.447  0.00  0.00    +0.000 NA
ATOM     22  C   UNL     1       2.067   3.510  20.904  0.00  0.00    +0.000 A 
ATOM     23  O   UNL     1       2.250   3.677  22.106  0.00  0.00    +0.000 OA
BRANCH  17  24
ATOM     24  S   UNL     1       3.710   4.987  17.525  0.00  0.00    +0.000 S 
ATOM     25  C   UNL     1       5.405   4.443  17.934  0.00  0.00    +0.000 C 
ENDBRANCH  17  24
ENDBRANCH  15  16
ENDBRANCH   2  15
TORSDOF 6
ENDMDL
MODEL 7
REMARK VINA RESULT:      -5.8      4.560      6.289
REMARK  Name = 
REMARK  8 active torsions:
REMARK  status: ('A' for Active; 'I' for Inactive)
REMARK    1  A    between atoms: C_1  and  O_2
REMARK    2  A    between atoms: O_2  and  C_3
REMARK    3  A    between atoms: C_3  and  C_5
REMARK    4  A    between atoms: C_10  and  N_11
REMARK    5  A    between atoms: C_12  and  C_14
REMARK    6  A    between atoms: C_14  and  N_15
REMARK    7  A    between atoms: C_16  and  S_17
REMARK    8  A    between atoms: S_17  and  C_18
REMARK                            x       y       z     vdW  Elec       q    Type
REMARK                         _______ _______ _______ _____ _____    ______ ____
ROOT
ATOM      1  N   UNL     1       2.324   7.713  19.970  0.00  0.00    +0.000 N 
ATOM      2  C   UNL     1       1.885   6.478  20.438  0.00  0.00    +0.000 C 
ATOM      3  O   UNL     1       0.709   6.225  20.661  0.00  0.00    +0.000 OA
ATOM      4  H   UNL     1       3.151   7.663  19.390  0.00  0.00    +0.000 HD
ENDROOT
BRANCH   1  10
ATOM      5  C   UNL     1       0.697   9.558  20.564  0.00  0.00    +0.000 A 
ATOM      6  C   UNL     1      -0.118  10.599  20.066  0.00  0.00    +0.000 A 
ATOM      7  C   UNL     1      -0.257  10.823  18.696  0.00  0.00    +0.000 A 
ATOM      8  C   UNL     1       0.425  10.012  17.800  0.00  0.00    +0.000 A 
ATOM      9  C   UNL     1       1.274   9.011  18.275  0.00  0.00    +0.000 A 
ATOM     10  C   UNL     1       1.423   8.763  19.652  0.00  0.00    +0.000 A 
BRANCH   5  11
ATOM     11  C   UNL     1       0.728   9.474  22.048  0.00  0.00    +0.000 C 
ATOM     12  O   UNL     1       1.775   9.434  22.685  0.00  0.00    +0.000 OA
BRANCH  11  14
ATOM     13  C   UNL     1      -1.007  10.412  23.268  0.00  0.00    +0.000 C 
ATOM     14  O   UNL     1      -0.509   9.269  22.566  0.00  0.00    +0.000 OA
ENDBRANCH  11  14
ENDBRANCH   5  11
ENDBRANCH   1  10
BRANCH   2  15
ATOM     15  C   UNL     1       3.028   5.426  20.578  0.00  0.00    +0.000 C 
BRANCH  15  16
ATOM     16  N   UNL     1       2.665   4.133  19.974  0.00  0.00    +0.000 N 
ATOM     17  C   UNL     1       2.901   3.782  18.642  0.00  0.00    +0.000 A 
ATOM     18  C   UNL     1       2.364   2.653  18.164  0.00  0.00    +0.000 A 
ATOM     19  F   UNL     1       2.483   2.191  16.907  0.00  0.00    +0.000 F 
ATOM     20  C   UNL     1       1.570   1.860  19.091  0.00  0.00    +0.000 A 
ATOM     21  N   UNL     1       1.480   2.085  20.354  0.00  0.00    +0.000 NA
ATOM     22  C   UNL     1       2.140   3.176  20.873  0.00  0.00    +0.000 A 
ATOM     23  O   UNL     1       2.285   3.298  22.085  0.00  0.00    +0.000 OA
BRANCH  17  24
ATOM     24  S   UNL     1       3.904   4.760  17.605  0.00  0.00    +0.000 S 
ATOM     25  C   UNL     1       5.581   4.345  18.197  0.00  0.00    +0.000 C 
ENDBRANCH  17  24
ENDBRANCH  15  16
ENDBRANCH   2  15
TORSDOF 6
ENDMDL
MODEL 8
REMARK VINA RESULT:      -5.8      5.233      7.024
REMARK  Name = 
REMARK  8 active torsions:
REMARK  status: ('A' for Active; 'I' for Inactive)
REMARK    1  A    between atoms: C_1  and  O_2
REMARK    2  A    between atoms: O_2  and  C_3
REMARK    3  A    between atoms: C_3  and  C_5
REMARK    4  A    between atoms: C_10  and  N_11
REMARK    5  A    between atoms: C_12  and  C_14
REMARK    6  A    between atoms: C_14  and  N_15
REMARK    7  A    between atoms: C_16  and  S_17
REMARK    8  A    between atoms: S_17  and  C_18
REMARK                            x       y       z     vdW  Elec       q    Type
REMARK                         _______ _______ _______ _____ _____    ______ ____
ROOT
ATOM      1  N   UNL     1       1.221   8.711  19.431  0.00  0.00    +0.000 N 
ATOM      2  C   UNL     1       2.187   8.267  18.532  0.00  0.00    +0.000 C 
ATOM      3  O   UNL     1       2.300   8.709  17.397  0.00  0.00    +0.000 OA
ATOM      4  H   UNL     1       1.506   8.661  20.400  0.00  0.00    +0.000 HD
ENDROOT
BRANCH   1  10
ATOM      5  C   UNL     1       0.156  10.972  19.830  0.00  0.00    +0.000 A 
ATOM      6  C   UNL     1      -0.748  11.939  19.337  0.00  0.00    +0.000 A 
ATOM      7  C   UNL     1      -1.508  11.706  18.190  0.00  0.00    +0.000 A 
ATOM      8  C   UNL     1      -1.370  10.503  17.513  0.00  0.00    +0.000 A 
ATOM      9  C   UNL     1      -0.445   9.557  17.957  0.00  0.00    +0.000 A 
ATOM     10  C   UNL     1       0.326   9.767  19.115  0.00  0.00    +0.000 A 
BRANCH   5  11
ATOM     11  C   UNL     1       0.882  11.396  21.057  0.00  0.00    +0.000 C 
ATOM     12  O   UNL     1       1.519  12.442  21.118  0.00  0.00    +0.000 OA
BRANCH  11  14
ATOM     13  C   UNL     1      -0.330  10.349  22.735  0.00  0.00    +0.000 C 
ATOM     14  O   UNL     1       0.894  10.417  21.996  0.00  0.00    +0.000 OA
ENDBRANCH  11  14
ENDBRANCH   5  11
ENDBRANCH   1  10
BRANCH   2  15
ATOM     15  C   UNL     1       3.156   7.206  19.138  0.00  0.00    +0.000 C 
BRANCH  15  16
ATOM     16  N   UNL     1       2.710   5.830  18.862  0.00  0.00    +0.000 N 
ATOM     17  C   UNL     1       3.186   5.032  17.818  0.00  0.00    +0.000 A 
ATOM     18  C   UNL     1       2.574   3.870  17.560  0.00  0.00    +0.000 A 
ATOM     19  F   UNL     1       2.899   3.005  16.583  0.00  0.00    +0.000 F 
ATOM     20  C   UNL     1       1.448   3.518  18.412  0.00  0.00    +0.000 A 
ATOM     21  N   UNL     1       1.104   4.159  19.472  0.00  0.00    +0.000 NA
ATOM     22  C   UNL     1       1.816   5.286  19.813  0.00  0.00    +0.000 A 
ATOM     23  O   UNL     1       1.688   5.790  20.925  0.00  0.00    +0.000 OA
BRANCH  17  24
ATOM     24  S   UNL     1       4.572   5.500  16.872  0.00  0.00    +0.000 S 
ATOM     25  C   UNL     1       5.955   4.905  17.905  0.00  0.00    +0.000 C 
ENDBRANCH  17  24
ENDBRANCH  15  16
ENDBRANCH   2  15
TORSDOF 6
ENDMDL
MODEL 9
REMARK VINA RESULT:      -5.7      4.002      5.455
REMARK  Name = 
REMARK  8 active torsions:
REMARK  status: ('A' for Active; 'I' for Inactive)
REMARK    1  A    between atoms: C_1  and  O_2
REMARK    2  A    between atoms: O_2  and  C_3
REMARK    3  A    between atoms: C_3  and  C_5
REMARK    4  A    between atoms: C_10  and  N_11
REMARK    5  A    between atoms: C_12  and  C_14
REMARK    6  A    between atoms: C_14  and  N_15
REMARK    7  A    between atoms: C_16  and  S_17
REMARK    8  A    between atoms: S_17  and  C_18
REMARK                            x       y       z     vdW  Elec       q    Type
REMARK                         _______ _______ _______ _____ _____    ______ ____
ROOT
ATOM      1  N   UNL     1       2.360   6.797  20.619  0.00  0.00    +0.000 N 
ATOM      2  C   UNL     1       1.867   5.495  20.607  0.00  0.00    +0.000 C 
ATOM      3  O   UNL     1       0.672   5.231  20.571  0.00  0.00    +0.000 OA
ATOM      4  H   UNL     1       3.264   6.899  20.175  0.00  0.00    +0.000 HD
ENDROOT
BRANCH   1  10
ATOM      5  C   UNL     1       1.395   8.812  19.431  0.00  0.00    +0.000 A 
ATOM      6  C   UNL     1       0.449   9.860  19.491  0.00  0.00    +0.000 A 
ATOM      7  C   UNL     1      -0.337  10.065  20.625  0.00  0.00    +0.000 A 
ATOM      8  C   UNL     1      -0.195   9.220  21.716  0.00  0.00    +0.000 A 
ATOM      9  C   UNL     1       0.698   8.149  21.655  0.00  0.00    +0.000 A 
ATOM     10  C   UNL     1       1.507   7.928  20.524  0.00  0.00    +0.000 A 
BRANCH   5  11
ATOM     11  C   UNL     1       2.137   8.744  18.143  0.00  0.00    +0.000 C 
ATOM     12  O   UNL     1       2.118   9.654  17.322  0.00  0.00    +0.000 OA
BRANCH  11  14
ATOM     13  C   UNL     1       3.761   7.532  17.015  0.00  0.00    +0.000 C 
ATOM     14  O   UNL     1       2.663   7.511  17.932  0.00  0.00    +0.000 OA
ENDBRANCH  11  14
ENDBRANCH   5  11
ENDBRANCH   1  10
BRANCH   2  15
ATOM     15  C   UNL     1       2.985   4.409  20.568  0.00  0.00    +0.000 C 
BRANCH  15  16
ATOM     16  N   UNL     1       3.187   3.874  19.211  0.00  0.00    +0.000 N 
ATOM     17  C   UNL     1       4.193   4.287  18.333  0.00  0.00    +0.000 A 
ATOM     18  C   UNL     1       4.163   3.859  17.066  0.00  0.00    +0.000 A 
ATOM     19  F   UNL     1       5.043   4.181  16.101  0.00  0.00    +0.000 F 
ATOM     20  C   UNL     1       3.070   2.971  16.698  0.00  0.00    +0.000 A 
ATOM     21  N   UNL     1       2.235   2.456  17.530  0.00  0.00    +0.000 NA
ATOM     22  C   UNL     1       2.345   2.793  18.860  0.00  0.00    +0.000 A 
ATOM     23  O   UNL     1       1.740   2.156  19.716  0.00  0.00    +0.000 OA
BRANCH  17  24
ATOM     24  S   UNL     1       5.498   5.314  18.860  0.00  0.00    +0.000 S 
ATOM     25  C   UNL     1       6.941   4.538  18.054  0.00  0.00    +0.000 C 
ENDBRANCH  17  24
ENDBRANCH  15  16
ENDBRANCH   2  15
TORSDOF 6
ENDMDL
