MODEL 1
REMARK VINA RESULT:      -7.3      0.000      0.000
REMARK  Name = 
REMARK  5 active torsions:
REMARK  status: ('A' for Active; 'I' for Inactive)
REMARK    1  A    between atoms: C_1  and  N_2
REMARK    2  A    between atoms: N_13  and  C_14
REMARK    3  A    between atoms: C_25  and  C_26
REMARK    4  A    between atoms: C_26  and  S_27
REMARK    5  A    between atoms: S_27  and  C_28
REMARK                            x       y       z     vdW  Elec       q    Type
REMARK                         _______ _______ _______ _____ _____    ______ ____
ROOT
ATOM      1  C   UNL     1       1.861   9.694  17.913  0.00  0.00    +0.000 C 
ATOM      2  N   UNL     1       1.127  10.094  19.098  0.00  0.00    +0.000 N 
ATOM      3  C   UNL     1       0.569  11.377  19.169  0.00  0.00    +0.000 A 
ATOM      4  C   UNL     1      -0.055  11.866  20.275  0.00  0.00    +0.000 A 
ATOM      5  C   UNL     1      -0.190  10.956  21.374  0.00  0.00    +0.000 A 
ATOM      6  C   UNL     1      -0.840  11.097  22.614  0.00  0.00    +0.000 A 
ATOM      7  C   UNL     1      -0.680   9.889  23.277  0.00  0.00    +0.000 A 
ATOM      8  N   UNL     1       0.036   9.040  22.463  0.00  0.00    +0.000 N 
ATOM      9  C   UNL     1       0.330   9.686  21.294  0.00  0.00    +0.000 A 
ATOM     10  C   UNL     1       1.039   9.168  20.155  0.00  0.00    +0.000 A 
ATOM     11  O   UNL     1       1.514   8.036  20.120  0.00  0.00    +0.000 OA
ATOM     12  C   UNL     1      -1.581  12.324  23.035  0.00  0.00    +0.000 C 
ATOM     13  N   UNL     1      -2.383  12.929  21.957  0.00  0.00    +0.000 N 
ATOM     14  C   UNL     1      -1.667  13.739  21.036  0.00  0.00    +0.000 A 
ATOM     15  C   UNL     1      -2.082  15.083  20.887  0.00  0.00    +0.000 A 
ATOM     16  C   UNL     1      -1.427  15.981  20.039  0.00  0.00    +0.000 A 
ATOM     17  C   UNL     1      -0.308  15.571  19.319  0.00  0.00    +0.000 A 
ATOM     18  C   UNL     1       0.127  14.246  19.477  0.00  0.00    +0.000 A 
ATOM     19  C   UNL     1      -0.555  13.290  20.278  0.00  0.00    +0.000 A 
ATOM     20  H   UNL     1       0.292   8.082  22.670  0.00  0.00    +0.000 HD
ENDROOT
BRANCH  13  21
ATOM     21  C   UNL     1      -3.783  12.881  22.119  0.00  0.00    +0.000 A 
ATOM     22  N   UNL     1      -4.329  13.115  23.346  0.00  0.00    +0.000 NA
ATOM     23  C   UNL     1      -5.680  13.065  23.464  0.00  0.00    +0.000 A 
ATOM     24  C   UNL     1      -6.531  12.780  22.414  0.00  0.00    +0.000 A 
ATOM     25  F   UNL     1      -7.856  12.739  22.601  0.00  0.00    +0.000 F 
ATOM     26  C   UNL     1      -5.995  12.536  21.167  0.00  0.00    +0.000 A 
ATOM     27  C   UNL     1      -4.613  12.595  21.021  0.00  0.00    +0.000 A 
ATOM     28  F   UNL     1      -4.099  12.333  19.808  0.00  0.00    +0.000 F 
ENDBRANCH  13  21
BRANCH  17  29
ATOM     29  C   UNL     1       0.471  16.558  18.486  0.00  0.00    +0.000 C 
BRANCH  29  30
ATOM     30  S   UNL     1       1.933  17.186  19.313  0.00  0.00    +0.000 S 
ATOM     31  C   UNL     1       3.304  16.588  18.353  0.00  0.00    +0.000 C 
ATOM     32  O   UNL     1       1.916  18.630  19.154  0.00  0.00    +0.000 OA
ATOM     33  O   UNL     1       2.032  16.611  20.642  0.00  0.00    +0.000 OA
ENDBRANCH  29  30
ENDBRANCH  17  29
TORSDOF 3
ENDMDL
MODEL 2
REMARK VINA RESULT:      -7.1      3.784      6.635
REMARK  Name = 
REMARK  5 active torsions:
REMARK  status: ('A' for Active; 'I' for Inactive)
REMARK    1  A    between atoms: C_1  and  N_2
REMARK    2  A    between atoms: N_13  and  C_14
REMARK    3  A    between atoms: C_25  and  C_26
REMARK    4  A    between atoms: C_26  and  S_27
REMARK    5  A    between atoms: S_27  and  C_28
REMARK                            x       y       z     vdW  Elec       q    Type
REMARK                         _______ _______ _______ _____ _____    ______ ____
ROOT
ATOM      1  C   UNL     1      -7.084  12.722  21.101  0.00  0.00    +0.000 C 
ATOM      2  N   UNL     1      -5.902  12.399  20.324  0.00  0.00    +0.000 N 
ATOM      3  C   UNL     1      -4.636  12.759  20.804  0.00  0.00    +0.000 A 
ATOM      4  C   UNL     1      -3.486  12.579  20.101  0.00  0.00    +0.000 A 
ATOM      5  C   UNL     1      -3.618  11.910  18.840  0.00  0.00    +0.000 A 
ATOM      6  C   UNL     1      -2.648  11.492  17.910  0.00  0.00    +0.000 A 
ATOM      7  C   UNL     1      -3.339  10.870  16.881  0.00  0.00    +0.000 A 
ATOM      8  N   UNL     1      -4.682  10.900  17.180  0.00  0.00    +0.000 N 
ATOM      9  C   UNL     1      -4.858  11.528  18.382  0.00  0.00    +0.000 A 
ATOM     10  C   UNL     1      -6.091  11.758  19.085  0.00  0.00    +0.000 A 
ATOM     11  O   UNL     1      -7.186  11.426  18.640  0.00  0.00    +0.000 OA
ATOM     12  C   UNL     1      -1.178  11.676  18.097  0.00  0.00    +0.000 C 
ATOM     13  N   UNL     1      -0.720  11.420  19.474  0.00  0.00    +0.000 N 
ATOM     14  C   UNL     1      -0.919  12.482  20.397  0.00  0.00    +0.000 A 
ATOM     15  C   UNL     1       0.221  12.992  21.062  0.00  0.00    +0.000 A 
ATOM     16  C   UNL     1       0.149  14.060  21.961  0.00  0.00    +0.000 A 
ATOM     17  C   UNL     1      -1.072  14.680  22.213  0.00  0.00    +0.000 A 
ATOM     18  C   UNL     1      -2.205  14.197  21.540  0.00  0.00    +0.000 A 
ATOM     19  C   UNL     1      -2.179  13.072  20.674  0.00  0.00    +0.000 A 
ATOM     20  H   UNL     1      -5.431  10.506  16.623  0.00  0.00    +0.000 HD
ENDROOT
BRANCH  13  21
ATOM     21  C   UNL     1       0.109  10.295  19.658  0.00  0.00    +0.000 A 
ATOM     22  N   UNL     1       0.949   9.906  18.658  0.00  0.00    +0.000 NA
ATOM     23  C   UNL     1       1.736   8.821  18.871  0.00  0.00    +0.000 A 
ATOM     24  C   UNL     1       1.724   8.082  20.038  0.00  0.00    +0.000 A 
ATOM     25  F   UNL     1       2.521   7.016  20.180  0.00  0.00    +0.000 F 
ATOM     26  C   UNL     1       0.875   8.459  21.057  0.00  0.00    +0.000 A 
ATOM     27  C   UNL     1       0.069   9.576  20.866  0.00  0.00    +0.000 A 
ATOM     28  F   UNL     1      -0.771   9.922  21.855  0.00  0.00    +0.000 F 
ENDBRANCH  13  21
BRANCH  17  29
ATOM     29  C   UNL     1      -1.143  15.901  23.096  0.00  0.00    +0.000 C 
BRANCH  29  30
ATOM     30  S   UNL     1      -1.620  15.528  24.784  0.00  0.00    +0.000 S 
ATOM     31  C   UNL     1      -2.653  16.885  25.287  0.00  0.00    +0.000 C 
ATOM     32  O   UNL     1      -2.475  14.356  24.729  0.00  0.00    +0.000 OA
ATOM     33  O   UNL     1      -0.445  15.521  25.637  0.00  0.00    +0.000 OA
ENDBRANCH  29  30
ENDBRANCH  17  29
TORSDOF 3
ENDMDL
MODEL 3
REMARK VINA RESULT:      -7.0      1.602      1.872
REMARK  Name = 
REMARK  5 active torsions:
REMARK  status: ('A' for Active; 'I' for Inactive)
REMARK    1  A    between atoms: C_1  and  N_2
REMARK    2  A    between atoms: N_13  and  C_14
REMARK    3  A    between atoms: C_25  and  C_26
REMARK    4  A    between atoms: C_26  and  S_27
REMARK    5  A    between atoms: S_27  and  C_28
REMARK                            x       y       z     vdW  Elec       q    Type
REMARK                         _______ _______ _______ _____ _____    ______ ____
ROOT
ATOM      1  C   UNL     1       2.241   8.143  18.578  0.00  0.00    +0.000 C 
ATOM      2  N   UNL     1       1.504   8.961  19.522  0.00  0.00    +0.000 N 
ATOM      3  C   UNL     1       1.344  10.331  19.276  0.00  0.00    +0.000 A 
ATOM      4  C   UNL     1       0.749  11.188  20.150  0.00  0.00    +0.000 A 
ATOM      5  C   UNL     1       0.203  10.596  21.336  0.00  0.00    +0.000 A 
ATOM      6  C   UNL     1      -0.539  11.159  22.391  0.00  0.00    +0.000 A 
ATOM      7  C   UNL     1      -0.833  10.119  23.258  0.00  0.00    +0.000 A 
ATOM      8  N   UNL     1      -0.296   8.960  22.744  0.00  0.00    +0.000 N 
ATOM      9  C   UNL     1       0.332   9.246  21.563  0.00  0.00    +0.000 A 
ATOM     10  C   UNL     1       1.004   8.333  20.678  0.00  0.00    +0.000 A 
ATOM     11  O   UNL     1       1.124   7.135  20.918  0.00  0.00    +0.000 OA
ATOM     12  C   UNL     1      -0.935  12.598  22.459  0.00  0.00    +0.000 C 
ATOM     13  N   UNL     1      -1.369  13.154  21.165  0.00  0.00    +0.000 N 
ATOM     14  C   UNL     1      -0.327  13.535  20.278  0.00  0.00    +0.000 A 
ATOM     15  C   UNL     1      -0.303  14.879  19.837  0.00  0.00    +0.000 A 
ATOM     16  C   UNL     1       0.696  15.375  18.995  0.00  0.00    +0.000 A 
ATOM     17  C   UNL     1       1.732  14.543  18.576  0.00  0.00    +0.000 A 
ATOM     18  C   UNL     1       1.731  13.214  19.026  0.00  0.00    +0.000 A 
ATOM     19  C   UNL     1       0.695  12.661  19.827  0.00  0.00    +0.000 A 
ATOM     20  H   UNL     1      -0.364   8.034  23.148  0.00  0.00    +0.000 HD
ENDROOT
BRANCH  13  21
ATOM     21  C   UNL     1      -2.729  13.512  21.064  0.00  0.00    +0.000 A 
ATOM     22  N   UNL     1      -3.224  14.509  21.850  0.00  0.00    +0.000 NA
ATOM     23  C   UNL     1      -4.536  14.830  21.723  0.00  0.00    +0.000 A 
ATOM     24  C   UNL     1      -5.400  14.196  20.852  0.00  0.00    +0.000 A 
ATOM     25  F   UNL     1      -6.687  14.556  20.782  0.00  0.00    +0.000 F 
ATOM     26  C   UNL     1      -4.916  13.181  20.053  0.00  0.00    +0.000 A 
ATOM     27  C   UNL     1      -3.571  12.844  20.157  0.00  0.00    +0.000 A 
ATOM     28  F   UNL     1      -3.114  11.839  19.392  0.00  0.00    +0.000 F 
ENDBRANCH  13  21
BRANCH  17  29
ATOM     29  C   UNL     1       2.873  15.093  17.757  0.00  0.00    +0.000 C 
BRANCH  29  30
ATOM     30  S   UNL     1       4.216  15.739  18.755  0.00  0.00    +0.000 S 
ATOM     31  C   UNL     1       5.684  14.966  18.116  0.00  0.00    +0.000 C 
ATOM     32  O   UNL     1       4.325  17.153  18.444  0.00  0.00    +0.000 OA
ATOM     33  O   UNL     1       4.051  15.317  20.134  0.00  0.00    +0.000 OA
ENDBRANCH  29  30
ENDBRANCH  17  29
TORSDOF 3
ENDMDL
MODEL 4
REMARK VINA RESULT:      -6.8      1.849      2.418
REMARK  Name = 
REMARK  5 active torsions:
REMARK  status: ('A' for Active; 'I' for Inactive)
REMARK    1  A    between atoms: C_1  and  N_2
REMARK    2  A    between atoms: N_13  and  C_14
REMARK    3  A    between atoms: C_25  and  C_26
REMARK    4  A    between atoms: C_26  and  S_27
REMARK    5  A    between atoms: S_27  and  C_28
REMARK                            x       y       z     vdW  Elec       q    Type
REMARK                         _______ _______ _______ _____ _____    ______ ____
ROOT
ATOM      1  C   UNL     1       3.225   7.905  17.569  0.00  0.00    +0.000 C 
ATOM      2  N   UNL     1       2.358   8.531  18.549  0.00  0.00    +0.000 N 
ATOM      3  C   UNL     1       2.076   9.900  18.454  0.00  0.00    +0.000 A 
ATOM      4  C   UNL     1       1.350  10.584  19.378  0.00  0.00    +0.000 A 
ATOM      5  C   UNL     1       0.799   9.805  20.447  0.00  0.00    +0.000 A 
ATOM      6  C   UNL     1      -0.055  10.164  21.507  0.00  0.00    +0.000 A 
ATOM      7  C   UNL     1      -0.292   9.002  22.225  0.00  0.00    +0.000 A 
ATOM      8  N   UNL     1       0.386   7.970  21.618  0.00  0.00    +0.000 N 
ATOM      9  C   UNL     1       1.048   8.454  20.524  0.00  0.00    +0.000 A 
ATOM     10  C   UNL     1       1.858   7.723  19.587  0.00  0.00    +0.000 A 
ATOM     11  O   UNL     1       2.083   6.520  19.694  0.00  0.00    +0.000 OA
ATOM     12  C   UNL     1      -0.596  11.540  21.714  0.00  0.00    +0.000 C 
ATOM     13  N   UNL     1      -1.008  12.208  20.467  0.00  0.00    +0.000 N 
ATOM     14  C   UNL     1       0.039  12.789  19.704  0.00  0.00    +0.000 A 
ATOM     15  C   UNL     1      -0.046  14.174  19.425  0.00  0.00    +0.000 A 
ATOM     16  C   UNL     1       0.946  14.858  18.716  0.00  0.00    +0.000 A 
ATOM     17  C   UNL     1       2.081  14.184  18.275  0.00  0.00    +0.000 A 
ATOM     18  C   UNL     1       2.187  12.815  18.567  0.00  0.00    +0.000 A 
ATOM     19  C   UNL     1       1.168  12.075  19.225  0.00  0.00    +0.000 A 
ATOM     20  H   UNL     1       0.388   6.999  21.906  0.00  0.00    +0.000 HD
ENDROOT
BRANCH  13  21
ATOM     21  C   UNL     1      -2.389  12.449  20.316  0.00  0.00    +0.000 A 
ATOM     22  N   UNL     1      -3.053  13.182  21.252  0.00  0.00    +0.000 NA
ATOM     23  C   UNL     1      -4.380  13.398  21.072  0.00  0.00    +0.000 A 
ATOM     24  C   UNL     1      -5.098  12.906  19.999  0.00  0.00    +0.000 A 
ATOM     25  F   UNL     1      -6.410  13.149  19.886  0.00  0.00    +0.000 F 
ATOM     26  C   UNL     1      -4.442  12.157  19.045  0.00  0.00    +0.000 A 
ATOM     27  C   UNL     1      -3.079  11.934  19.203  0.00  0.00    +0.000 A 
ATOM     28  F   UNL     1      -2.454  11.184  18.281  0.00  0.00    +0.000 F 
ENDBRANCH  13  21
BRANCH  17  29
ATOM     29  C   UNL     1       3.206  14.932  17.606  0.00  0.00    +0.000 C 
BRANCH  29  30
ATOM     30  S   UNL     1       4.342  15.692  18.767  0.00  0.00    +0.000 S 
ATOM     31  C   UNL     1       5.963  15.222  18.209  0.00  0.00    +0.000 C 
ATOM     32  O   UNL     1       4.240  17.128  18.574  0.00  0.00    +0.000 OA
ATOM     33  O   UNL     1       4.144  15.128  20.091  0.00  0.00    +0.000 OA
ENDBRANCH  29  30
ENDBRANCH  17  29
TORSDOF 3
ENDMDL
MODEL 5
REMARK VINA RESULT:      -6.8      1.147      1.497
REMARK  Name = 
REMARK  5 active torsions:
REMARK  status: ('A' for Active; 'I' for Inactive)
REMARK    1  A    between atoms: C_1  and  N_2
REMARK    2  A    between atoms: N_13  and  C_14
REMARK    3  A    between atoms: C_25  and  C_26
REMARK    4  A    between atoms: C_26  and  S_27
REMARK    5  A    between atoms: S_27  and  C_28
REMARK                            x       y       z     vdW  Elec       q    Type
REMARK                         _______ _______ _______ _____ _____    ______ ____
ROOT
ATOM      1  C   UNL     1       1.812   9.626  17.905  0.00  0.00    +0.000 C 
ATOM      2  N   UNL     1       1.103  10.046  19.098  0.00  0.00    +0.000 N 
ATOM      3  C   UNL     1       0.561  11.336  19.166  0.00  0.00    +0.000 A 
ATOM      4  C   UNL     1      -0.039  11.843  20.277  0.00  0.00    +0.000 A 
ATOM      5  C   UNL     1      -0.167  10.945  21.387  0.00  0.00    +0.000 A 
ATOM      6  C   UNL     1      -0.795  11.104  22.636  0.00  0.00    +0.000 A 
ATOM      7  C   UNL     1      -0.639   9.901  23.307  0.00  0.00    +0.000 A 
ATOM      8  N   UNL     1       0.053   9.036  22.489  0.00  0.00    +0.000 N 
ATOM      9  C   UNL     1       0.337   9.667  21.310  0.00  0.00    +0.000 A 
ATOM     10  C   UNL     1       1.020   9.131  20.164  0.00  0.00    +0.000 A 
ATOM     11  O   UNL     1       1.481   7.993  20.133  0.00  0.00    +0.000 OA
ATOM     12  C   UNL     1      -1.515  12.344  23.057  0.00  0.00    +0.000 C 
ATOM     13  N   UNL     1      -2.327  12.949  21.987  0.00  0.00    +0.000 N 
ATOM     14  C   UNL     1      -1.616  13.742  21.047  0.00  0.00    +0.000 A 
ATOM     15  C   UNL     1      -2.017  15.090  20.893  0.00  0.00    +0.000 A 
ATOM     16  C   UNL     1      -1.365  15.972  20.026  0.00  0.00    +0.000 A 
ATOM     17  C   UNL     1      -0.263  15.542  19.291  0.00  0.00    +0.000 A 
ATOM     18  C   UNL     1       0.158  14.213  19.455  0.00  0.00    +0.000 A 
ATOM     19  C   UNL     1      -0.521  13.273  20.275  0.00  0.00    +0.000 A 
ATOM     20  H   UNL     1       0.301   8.077  22.701  0.00  0.00    +0.000 HD
ENDROOT
BRANCH  13  21
ATOM     21  C   UNL     1      -3.724  12.920  22.172  0.00  0.00    +0.000 A 
ATOM     22  N   UNL     1      -4.530  12.492  21.160  0.00  0.00    +0.000 NA
ATOM     23  C   UNL     1      -5.870  12.473  21.375  0.00  0.00    +0.000 A 
ATOM     24  C   UNL     1      -6.463  12.874  22.556  0.00  0.00    +0.000 A 
ATOM     25  F   UNL     1      -7.793  12.838  22.700  0.00  0.00    +0.000 F 
ATOM     26  C   UNL     1      -5.661  13.315  23.589  0.00  0.00    +0.000 A 
ATOM     27  C   UNL     1      -4.285  13.331  23.395  0.00  0.00    +0.000 A 
ATOM     28  F   UNL     1      -3.514  13.783  24.398  0.00  0.00    +0.000 F 
ENDBRANCH  13  21
BRANCH  17  29
ATOM     29  C   UNL     1       0.514  16.512  18.437  0.00  0.00    +0.000 C 
BRANCH  29  30
ATOM     30  S   UNL     1       1.991  17.139  19.239  0.00  0.00    +0.000 S 
ATOM     31  C   UNL     1       1.477  18.630  20.060  0.00  0.00    +0.000 C 
ATOM     32  O   UNL     1       2.334  16.191  20.284  0.00  0.00    +0.000 OA
ATOM     33  O   UNL     1       2.981  17.497  18.239  0.00  0.00    +0.000 OA
ENDBRANCH  29  30
ENDBRANCH  17  29
TORSDOF 3
ENDMDL
MODEL 6
REMARK VINA RESULT:      -6.8      3.214      6.238
REMARK  Name = 
REMARK  5 active torsions:
REMARK  status: ('A' for Active; 'I' for Inactive)
REMARK    1  A    between atoms: C_1  and  N_2
REMARK    2  A    between atoms: N_13  and  C_14
REMARK    3  A    between atoms: C_25  and  C_26
REMARK    4  A    between atoms: C_26  and  S_27
REMARK    5  A    between atoms: S_27  and  C_28
REMARK                            x       y       z     vdW  Elec       q    Type
REMARK                         _______ _______ _______ _____ _____    ______ ____
ROOT
ATOM      1  C   UNL     1      -4.995  14.061  21.496  0.00  0.00    +0.000 C 
ATOM      2  N   UNL     1      -4.241  13.216  20.589  0.00  0.00    +0.000 N 
ATOM      3  C   UNL     1      -2.858  13.400  20.457  0.00  0.00    +0.000 A 
ATOM      4  C   UNL     1      -2.090  12.717  19.565  0.00  0.00    +0.000 A 
ATOM      5  C   UNL     1      -2.763  11.711  18.798  0.00  0.00    +0.000 A 
ATOM      6  C   UNL     1      -2.272  10.778  17.865  0.00  0.00    +0.000 A 
ATOM      7  C   UNL     1      -3.363  10.029  17.453  0.00  0.00    +0.000 A 
ATOM      8  N   UNL     1      -4.479  10.484  18.120  0.00  0.00    +0.000 N 
ATOM      9  C   UNL     1      -4.115  11.508  18.950  0.00  0.00    +0.000 A 
ATOM     10  C   UNL     1      -4.954  12.256  19.847  0.00  0.00    +0.000 A 
ATOM     11  O   UNL     1      -6.164  12.068  19.945  0.00  0.00    +0.000 OA
ATOM     12  C   UNL     1      -0.832  10.653  17.489  0.00  0.00    +0.000 C 
ATOM     13  N   UNL     1       0.091  10.781  18.630  0.00  0.00    +0.000 N 
ATOM     14  C   UNL     1       0.369  12.108  19.052  0.00  0.00    +0.000 A 
ATOM     15  C   UNL     1       1.722  12.523  19.056  0.00  0.00    +0.000 A 
ATOM     16  C   UNL     1       2.109  13.817  19.415  0.00  0.00    +0.000 A 
ATOM     17  C   UNL     1       1.148  14.762  19.763  0.00  0.00    +0.000 A 
ATOM     18  C   UNL     1      -0.200  14.368  19.738  0.00  0.00    +0.000 A 
ATOM     19  C   UNL     1      -0.622  13.044  19.445  0.00  0.00    +0.000 A 
ATOM     20  H   UNL     1      -5.419  10.117  18.038  0.00  0.00    +0.000 HD
ENDROOT
BRANCH  13  21
ATOM     21  C   UNL     1       0.809   9.621  18.985  0.00  0.00    +0.000 A 
ATOM     22  N   UNL     1       1.551   8.972  18.044  0.00  0.00    +0.000 NA
ATOM     23  C   UNL     1       2.233   7.861  18.421  0.00  0.00    +0.000 A 
ATOM     24  C   UNL     1       2.208   7.345  19.703  0.00  0.00    +0.000 A 
ATOM     25  F   UNL     1       2.898   6.239  20.007  0.00  0.00    +0.000 F 
ATOM     26  C   UNL     1       1.458   7.987  20.666  0.00  0.00    +0.000 A 
ATOM     27  C   UNL     1       0.761   9.134  20.304  0.00  0.00    +0.000 A 
ATOM     28  F   UNL     1       0.015   9.739  21.243  0.00  0.00    +0.000 F 
ENDBRANCH  13  21
BRANCH  17  29
ATOM     29  C   UNL     1       1.543  16.189  20.045  0.00  0.00    +0.000 C 
BRANCH  29  30
ATOM     30  S   UNL     1       1.639  16.566  21.796  0.00  0.00    +0.000 S 
ATOM     31  C   UNL     1       0.024  17.168  22.232  0.00  0.00    +0.000 C 
ATOM     32  O   UNL     1       1.807  15.300  22.488  0.00  0.00    +0.000 OA
ATOM     33  O   UNL     1       2.592  17.638  22.018  0.00  0.00    +0.000 OA
ENDBRANCH  29  30
ENDBRANCH  17  29
TORSDOF 3
ENDMDL
MODEL 7
REMARK VINA RESULT:      -6.7      3.515      6.470
REMARK  Name = 
REMARK  5 active torsions:
REMARK  status: ('A' for Active; 'I' for Inactive)
REMARK    1  A    between atoms: C_1  and  N_2
REMARK    2  A    between atoms: N_13  and  C_14
REMARK    3  A    between atoms: C_25  and  C_26
REMARK    4  A    between atoms: C_26  and  S_27
REMARK    5  A    between atoms: S_27  and  C_28
REMARK                            x       y       z     vdW  Elec       q    Type
REMARK                         _______ _______ _______ _____ _____    ______ ____
ROOT
ATOM      1  C   UNL     1      -7.287  12.239  20.839  0.00  0.00    +0.000 C 
ATOM      2  N   UNL     1      -6.047  12.054  20.110  0.00  0.00    +0.000 N 
ATOM      3  C   UNL     1      -4.831  12.416  20.705  0.00  0.00    +0.000 A 
ATOM      4  C   UNL     1      -3.633  12.362  20.063  0.00  0.00    +0.000 A 
ATOM      5  C   UNL     1      -3.657  11.826  18.733  0.00  0.00    +0.000 A 
ATOM      6  C   UNL     1      -2.614  11.553  17.829  0.00  0.00    +0.000 A 
ATOM      7  C   UNL     1      -3.210  11.014  16.699  0.00  0.00    +0.000 A 
ATOM      8  N   UNL     1      -4.569  10.953  16.913  0.00  0.00    +0.000 N 
ATOM      9  C   UNL     1      -4.847  11.441  18.159  0.00  0.00    +0.000 A 
ATOM     10  C   UNL     1      -6.129  11.540  18.803  0.00  0.00    +0.000 A 
ATOM     11  O   UNL     1      -7.178  11.209  18.256  0.00  0.00    +0.000 OA
ATOM     12  C   UNL     1      -1.169  11.780  18.128  0.00  0.00    +0.000 C 
ATOM     13  N   UNL     1      -0.781  11.400  19.498  0.00  0.00    +0.000 N 
ATOM     14  C   UNL     1      -1.087  12.347  20.510  0.00  0.00    +0.000 A 
ATOM     15  C   UNL     1      -0.016  12.834  21.296  0.00  0.00    +0.000 A 
ATOM     16  C   UNL     1      -0.194  13.796  22.294  0.00  0.00    +0.000 A 
ATOM     17  C   UNL     1      -1.458  14.331  22.531  0.00  0.00    +0.000 A 
ATOM     18  C   UNL     1      -2.523  13.873  21.741  0.00  0.00    +0.000 A 
ATOM     19  C   UNL     1      -2.390  12.849  20.766  0.00  0.00    +0.000 A 
ATOM     20  H   UNL     1      -5.263  10.588  16.272  0.00  0.00    +0.000 HD
ENDROOT
BRANCH  13  21
ATOM     21  C   UNL     1       0.092  10.299  19.616  0.00  0.00    +0.000 A 
ATOM     22  N   UNL     1       0.949  10.005  18.599  0.00  0.00    +0.000 NA
ATOM     23  C   UNL     1       1.778   8.941  18.749  0.00  0.00    +0.000 A 
ATOM     24  C   UNL     1       1.793   8.133  19.869  0.00  0.00    +0.000 A 
ATOM     25  F   UNL     1       2.631   7.092  19.949  0.00  0.00    +0.000 F 
ATOM     26  C   UNL     1       0.927   8.413  20.905  0.00  0.00    +0.000 A 
ATOM     27  C   UNL     1       0.078   9.507  20.778  0.00  0.00    +0.000 A 
ATOM     28  F   UNL     1      -0.777   9.758  21.783  0.00  0.00    +0.000 F 
ENDBRANCH  13  21
BRANCH  17  29
ATOM     29  C   UNL     1      -1.643  15.446  23.529  0.00  0.00    +0.000 C 
BRANCH  29  30
ATOM     30  S   UNL     1      -1.736  17.069  22.770  0.00  0.00    +0.000 S 
ATOM     31  C   UNL     1      -3.472  17.385  22.557  0.00  0.00    +0.000 C 
ATOM     32  O   UNL     1      -1.261  18.021  23.758  0.00  0.00    +0.000 OA
ATOM     33  O   UNL     1      -1.123  17.032  21.454  0.00  0.00    +0.000 OA
ENDBRANCH  29  30
ENDBRANCH  17  29
TORSDOF 3
ENDMDL
MODEL 8
REMARK VINA RESULT:      -6.7      3.557      6.496
REMARK  Name = 
REMARK  5 active torsions:
REMARK  status: ('A' for Active; 'I' for Inactive)
REMARK    1  A    between atoms: C_1  and  N_2
REMARK    2  A    between atoms: N_13  and  C_14
REMARK    3  A    between atoms: C_25  and  C_26
REMARK    4  A    between atoms: C_26  and  S_27
REMARK    5  A    between atoms: S_27  and  C_28
REMARK                            x       y       z     vdW  Elec       q    Type
REMARK                         _______ _______ _______ _____ _____    ______ ____
ROOT
ATOM      1  C   UNL     1      -7.024  12.931  21.911  0.00  0.00    +0.000 C 
ATOM      2  N   UNL     1      -6.006  12.563  20.944  0.00  0.00    +0.000 N 
ATOM      3  C   UNL     1      -4.693  13.019  21.112  0.00  0.00    +0.000 A 
ATOM      4  C   UNL     1      -3.699  12.799  20.209  0.00  0.00    +0.000 A 
ATOM      5  C   UNL     1      -4.045  11.986  19.080  0.00  0.00    +0.000 A 
ATOM      6  C   UNL     1      -3.260  11.498  18.018  0.00  0.00    +0.000 A 
ATOM      7  C   UNL     1      -4.106  10.738  17.226  0.00  0.00    +0.000 A 
ATOM      8  N   UNL     1      -5.362  10.756  17.792  0.00  0.00    +0.000 N 
ATOM      9  C   UNL     1      -5.327  11.511  18.931  0.00  0.00    +0.000 A 
ATOM     10  C   UNL     1      -6.404  11.777  19.846  0.00  0.00    +0.000 A 
ATOM     11  O   UNL     1      -7.546  11.358  19.675  0.00  0.00    +0.000 OA
ATOM     12  C   UNL     1      -1.795  11.753  17.877  0.00  0.00    +0.000 C 
ATOM     13  N   UNL     1      -1.055  11.674  19.149  0.00  0.00    +0.000 N 
ATOM     14  C   UNL     1      -1.124  12.827  19.975  0.00  0.00    +0.000 A 
ATOM     15  C   UNL     1       0.095  13.449  20.332  0.00  0.00    +0.000 A 
ATOM     16  C   UNL     1       0.145  14.611  21.109  0.00  0.00    +0.000 A 
ATOM     17  C   UNL     1      -1.034  15.212  21.542  0.00  0.00    +0.000 A 
ATOM     18  C   UNL     1      -2.250  14.616  21.173  0.00  0.00    +0.000 A 
ATOM     19  C   UNL     1      -2.335  13.400  20.443  0.00  0.00    +0.000 A 
ATOM     20  H   UNL     1      -6.184  10.275  17.447  0.00  0.00    +0.000 HD
ENDROOT
BRANCH  13  21
ATOM     21  C   UNL     1      -0.143  10.606  19.274  0.00  0.00    +0.000 A 
ATOM     22  N   UNL     1       0.627  10.248  18.208  0.00  0.00    +0.000 NA
ATOM     23  C   UNL     1       1.498   9.219  18.365  0.00  0.00    +0.000 A 
ATOM     24  C   UNL     1       1.639   8.508  19.541  0.00  0.00    +0.000 A 
ATOM     25  F   UNL     1       2.512   7.497  19.627  0.00  0.00    +0.000 F 
ATOM     26  C   UNL     1       0.863   8.854  20.628  0.00  0.00    +0.000 A 
ATOM     27  C   UNL     1      -0.026   9.914  20.492  0.00  0.00    +0.000 A 
ATOM     28  F   UNL     1      -0.793  10.229  21.549  0.00  0.00    +0.000 F 
ENDBRANCH  13  21
BRANCH  17  29
ATOM     29  C   UNL     1      -0.996  16.523  22.287  0.00  0.00    +0.000 C 
BRANCH  29  30
ATOM     30  S   UNL     1      -1.804  16.453  23.886  0.00  0.00    +0.000 S 
ATOM     31  C   UNL     1      -1.342  14.880  24.574  0.00  0.00    +0.000 C 
ATOM     32  O   UNL     1      -1.177  17.466  24.716  0.00  0.00    +0.000 OA
ATOM     33  O   UNL     1      -3.246  16.459  23.711  0.00  0.00    +0.000 OA
ENDBRANCH  29  30
ENDBRANCH  17  29
TORSDOF 3
ENDMDL
MODEL 9
REMARK VINA RESULT:      -6.7      4.093      6.576
REMARK  Name = 
REMARK  5 active torsions:
REMARK  status: ('A' for Active; 'I' for Inactive)
REMARK    1  A    between atoms: C_1  and  N_2
REMARK    2  A    between atoms: N_13  and  C_14
REMARK    3  A    between atoms: C_25  and  C_26
REMARK    4  A    between atoms: C_26  and  S_27
REMARK    5  A    between atoms: S_27  and  C_28
REMARK                            x       y       z     vdW  Elec       q    Type
REMARK                         _______ _______ _______ _____ _____    ______ ____
ROOT
ATOM      1  C   UNL     1      -7.297  13.034  20.228  0.00  0.00    +0.000 C 
ATOM      2  N   UNL     1      -6.028  12.601  19.677  0.00  0.00    +0.000 N 
ATOM      3  C   UNL     1      -4.838  12.902  20.352  0.00  0.00    +0.000 A 
ATOM      4  C   UNL     1      -3.601  12.615  19.863  0.00  0.00    +0.000 A 
ATOM      5  C   UNL     1      -3.568  11.896  18.623  0.00  0.00    +0.000 A 
ATOM      6  C   UNL     1      -2.488  11.373  17.888  0.00  0.00    +0.000 A 
ATOM      7  C   UNL     1      -3.038  10.746  16.781  0.00  0.00    +0.000 A 
ATOM      8  N   UNL     1      -4.407  10.876  16.845  0.00  0.00    +0.000 N 
ATOM      9  C   UNL     1      -4.737  11.572  17.975  0.00  0.00    +0.000 A 
ATOM     10  C   UNL     1      -6.051  11.913  18.449  0.00  0.00    +0.000 A 
ATOM     11  O   UNL     1      -7.077  11.630  17.836  0.00  0.00    +0.000 OA
ATOM     12  C   UNL     1      -1.060  11.471  18.317  0.00  0.00    +0.000 C 
ATOM     13  N   UNL     1      -0.859  11.254  19.760  0.00  0.00    +0.000 N 
ATOM     14  C   UNL     1      -1.134  12.370  20.595  0.00  0.00    +0.000 A 
ATOM     15  C   UNL     1      -0.088  12.838  21.426  0.00  0.00    +0.000 A 
ATOM     16  C   UNL     1      -0.234  13.951  22.259  0.00  0.00    +0.000 A 
ATOM     17  C   UNL     1      -1.433  14.659  22.277  0.00  0.00    +0.000 A 
ATOM     18  C   UNL     1      -2.469  14.217  21.439  0.00  0.00    +0.000 A 
ATOM     19  C   UNL     1      -2.378  13.052  20.631  0.00  0.00    +0.000 A 
ATOM     20  H   UNL     1      -5.078  10.504  16.184  0.00  0.00    +0.000 HD
ENDROOT
BRANCH  13  21
ATOM     21  C   UNL     1      -0.154  10.089  20.124  0.00  0.00    +0.000 A 
ATOM     22  N   UNL     1      -0.562   9.362  21.202  0.00  0.00    +0.000 NA
ATOM     23  C   UNL     1       0.137   8.243  21.520  0.00  0.00    +0.000 A 
ATOM     24  C   UNL     1       1.245   7.807  20.819  0.00  0.00    +0.000 A 
ATOM     25  F   UNL     1       1.895   6.698  21.192  0.00  0.00    +0.000 F 
ATOM     26  C   UNL     1       1.674   8.534  19.729  0.00  0.00    +0.000 A 
ATOM     27  C   UNL     1       0.965   9.677  19.378  0.00  0.00    +0.000 A 
ATOM     28  F   UNL     1       1.404  10.391  18.328  0.00  0.00    +0.000 F 
ENDBRANCH  13  21
BRANCH  17  29
ATOM     29  C   UNL     1      -1.565  15.923  23.088  0.00  0.00    +0.000 C 
BRANCH  29  30
ATOM     30  S   UNL     1      -1.855  15.619  24.832  0.00  0.00    +0.000 S 
ATOM     31  C   UNL     1      -2.574  17.121  25.453  0.00  0.00    +0.000 C 
ATOM     32  O   UNL     1      -2.888  14.603  24.913  0.00  0.00    +0.000 OA
ATOM     33  O   UNL     1      -0.589  15.414  25.513  0.00  0.00    +0.000 OA
ENDBRANCH  29  30
ENDBRANCH  17  29
TORSDOF 3
ENDMDL
