MODEL 1
REMARK VINA RESULT:      -8.1      0.000      0.000
REMARK  Name = 
REMARK  4 active torsions:
REMARK  status: ('A' for Active; 'I' for Inactive)
REMARK    1  A    between atoms: C_1  and  N_2
REMARK    2  A    between atoms: N_18  and  C_19
REMARK    3  A    between atoms: C_19  and  C_20
REMARK    4  A    between atoms: C_20  and  C_21
REMARK                            x       y       z     vdW  Elec       q    Type
REMARK                         _______ _______ _______ _____ _____    ______ ____
ROOT
ATOM      1  C   UNL     1       4.099   8.281  17.592  0.00  0.00    +0.000 C 
ATOM      2  N   UNL     1       3.845   6.872  17.802  0.00  0.00    +0.000 N 
ATOM      3  C   UNL     1       4.449   5.914  17.010  0.00  0.00    +0.000 A 
ATOM      4  C   UNL     1       5.228   6.035  15.853  0.00  0.00    +0.000 A 
ATOM      5  C   UNL     1       5.737   4.849  15.362  0.00  0.00    +0.000 A 
ATOM      6 CL   UNL     1       6.745   4.864  13.972  0.00  0.00    +0.000 Cl
ATOM      7  N   UNL     1       5.527   3.630  15.896  0.00  0.00    +0.000 NA
ATOM      8  C   UNL     1       4.756   3.535  17.009  0.00  0.00    +0.000 A 
ATOM      9  C   UNL     1       4.197   4.679  17.592  0.00  0.00    +0.000 A 
ATOM     10  C   UNL     1       3.369   4.917  18.723  0.00  0.00    +0.000 A 
ATOM     11  N   UNL     1       2.890   3.998  19.589  0.00  0.00    +0.000 NA
ATOM     12  C   UNL     1       2.136   4.525  20.553  0.00  0.00    +0.000 A 
ATOM     13  N   UNL     1       1.795   5.812  20.708  0.00  0.00    +0.000 NA
ATOM     14  C   UNL     1       2.215   6.750  19.818  0.00  0.00    +0.000 A 
ATOM     15  N   UNL     1       1.718   8.032  19.961  0.00  0.00    +0.000 N 
ATOM     16  C   UNL     1       1.454   8.869  18.804  0.00  0.00    +0.000 C 
ATOM     17  C   UNL     1       0.127   9.634  18.866  0.00  0.00    +0.000 C 
ATOM     18  N   UNL     1      -0.081  10.362  20.131  0.00  0.00    +0.000 NA
ATOM     19  C   UNL     1      -0.051   9.328  21.197  0.00  0.00    +0.000 C 
ATOM     20  C   UNL     1       1.256   8.493  21.286  0.00  0.00    +0.000 C 
ATOM     21  C   UNL     1       3.090   6.285  18.808  0.00  0.00    +0.000 A 
ENDROOT
BRANCH  18  22
ATOM     22  C   UNL     1       0.926  11.421  20.382  0.00  0.00    +0.000 C 
BRANCH  22  23
ATOM     23  C   UNL     1       0.398  12.597  21.232  0.00  0.00    +0.000 C 
BRANCH  23  24
ATOM     24  C   UNL     1      -1.100  12.593  21.458  0.00  0.00    +0.000 A 
ATOM     25  C   UNL     1      -1.987  13.035  20.465  0.00  0.00    +0.000 A 
ATOM     26  C   UNL     1      -3.360  13.104  20.717  0.00  0.00    +0.000 A 
ATOM     27  C   UNL     1      -3.856  12.742  21.968  0.00  0.00    +0.000 A 
ATOM     28  F   UNL     1      -5.171  12.839  22.208  0.00  0.00    +0.000 F 
ATOM     29  C   UNL     1      -2.991  12.293  22.954  0.00  0.00    +0.000 A 
ATOM     30  F   UNL     1      -3.464  11.953  24.161  0.00  0.00    +0.000 F 
ATOM     31  C   UNL     1      -1.622  12.221  22.711  0.00  0.00    +0.000 A 
ENDBRANCH  23  24
ENDBRANCH  22  23
ENDBRANCH  18  22
TORSDOF 3
ENDMDL
MODEL 2
REMARK VINA RESULT:      -8.0      3.285      3.911
REMARK  Name = 
REMARK  4 active torsions:
REMARK  status: ('A' for Active; 'I' for Inactive)
REMARK    1  A    between atoms: C_1  and  N_2
REMARK    2  A    between atoms: N_18  and  C_19
REMARK    3  A    between atoms: C_19  and  C_20
REMARK    4  A    between atoms: C_20  and  C_21
REMARK                            x       y       z     vdW  Elec       q    Type
REMARK                         _______ _______ _______ _____ _____    ______ ____
ROOT
ATOM      1  C   UNL     1       4.093   8.275  17.462  0.00  0.00    +0.000 C 
ATOM      2  N   UNL     1       3.790   6.891  17.754  0.00  0.00    +0.000 N 
ATOM      3  C   UNL     1       4.372   5.868  17.031  0.00  0.00    +0.000 A 
ATOM      4  C   UNL     1       5.170   5.892  15.881  0.00  0.00    +0.000 A 
ATOM      5  C   UNL     1       5.645   4.662  15.470  0.00  0.00    +0.000 A 
ATOM      6 CL   UNL     1       6.672   4.560  14.098  0.00  0.00    +0.000 Cl
ATOM      7  N   UNL     1       5.389   3.486  16.075  0.00  0.00    +0.000 NA
ATOM      8  C   UNL     1       4.600   3.484  17.180  0.00  0.00    +0.000 A 
ATOM      9  C   UNL     1       4.072   4.679  17.684  0.00  0.00    +0.000 A 
ATOM     10  C   UNL     1       3.238   5.012  18.786  0.00  0.00    +0.000 A 
ATOM     11  N   UNL     1       2.717   4.164  19.699  0.00  0.00    +0.000 NA
ATOM     12  C   UNL     1       1.969   4.773  20.617  0.00  0.00    +0.000 A 
ATOM     13  N   UNL     1       1.668   6.078  20.688  0.00  0.00    +0.000 NA
ATOM     14  C   UNL     1       2.130   6.945  19.749  0.00  0.00    +0.000 A 
ATOM     15  N   UNL     1       1.674   8.249  19.807  0.00  0.00    +0.000 N 
ATOM     16  C   UNL     1       1.453   9.021  18.596  0.00  0.00    +0.000 C 
ATOM     17  C   UNL     1       0.151   9.830  18.592  0.00  0.00    +0.000 C 
ATOM     18  N   UNL     1      -0.049  10.642  19.807  0.00  0.00    +0.000 NA
ATOM     19  C   UNL     1      -0.067   9.674  20.935  0.00  0.00    +0.000 C 
ATOM     20  C   UNL     1       1.210   8.805  21.094  0.00  0.00    +0.000 C 
ATOM     21  C   UNL     1       3.003   6.391  18.782  0.00  0.00    +0.000 A 
ENDROOT
BRANCH  18  22
ATOM     22  C   UNL     1       0.989  11.681  20.008  0.00  0.00    +0.000 C 
BRANCH  22  23
ATOM     23  C   UNL     1       0.429  13.118  20.077  0.00  0.00    +0.000 C 
BRANCH  23  24
ATOM     24  C   UNL     1       1.291  14.168  19.405  0.00  0.00    +0.000 A 
ATOM     25  C   UNL     1       0.821  15.475  19.205  0.00  0.00    +0.000 A 
ATOM     26  C   UNL     1       1.595  16.409  18.511  0.00  0.00    +0.000 A 
ATOM     27  C   UNL     1       2.839  16.042  18.002  0.00  0.00    +0.000 A 
ATOM     28  F   UNL     1       3.560  16.937  17.314  0.00  0.00    +0.000 F 
ATOM     29  C   UNL     1       3.318  14.756  18.204  0.00  0.00    +0.000 A 
ATOM     30  F   UNL     1       4.510  14.397  17.706  0.00  0.00    +0.000 F 
ATOM     31  C   UNL     1       2.555  13.819  18.894  0.00  0.00    +0.000 A 
ENDBRANCH  23  24
ENDBRANCH  22  23
ENDBRANCH  18  22
TORSDOF 3
ENDMDL
MODEL 3
REMARK VINA RESULT:      -8.0      0.467      1.169
REMARK  Name = 
REMARK  4 active torsions:
REMARK  status: ('A' for Active; 'I' for Inactive)
REMARK    1  A    between atoms: C_1  and  N_2
REMARK    2  A    between atoms: N_18  and  C_19
REMARK    3  A    between atoms: C_19  and  C_20
REMARK    4  A    between atoms: C_20  and  C_21
REMARK                            x       y       z     vdW  Elec       q    Type
REMARK                         _______ _______ _______ _____ _____    ______ ____
ROOT
ATOM      1  C   UNL     1       4.115   8.239  17.612  0.00  0.00    +0.000 C 
ATOM      2  N   UNL     1       3.833   6.834  17.810  0.00  0.00    +0.000 N 
ATOM      3  C   UNL     1       4.426   5.870  17.016  0.00  0.00    +0.000 A 
ATOM      4  C   UNL     1       5.217   5.986  15.866  0.00  0.00    +0.000 A 
ATOM      5  C   UNL     1       5.707   4.794  15.370  0.00  0.00    +0.000 A 
ATOM      6 CL   UNL     1       6.727   4.801  13.989  0.00  0.00    +0.000 Cl
ATOM      7  N   UNL     1       5.471   3.575  15.893  0.00  0.00    +0.000 NA
ATOM      8  C   UNL     1       4.689   3.486  17.000  0.00  0.00    +0.000 A 
ATOM      9  C   UNL     1       4.147   4.636  17.587  0.00  0.00    +0.000 A 
ATOM     10  C   UNL     1       3.314   4.880  18.713  0.00  0.00    +0.000 A 
ATOM     11  N   UNL     1       2.811   3.964  19.568  0.00  0.00    +0.000 NA
ATOM     12  C   UNL     1       2.060   4.498  20.530  0.00  0.00    +0.000 A 
ATOM     13  N   UNL     1       1.740   5.790  20.692  0.00  0.00    +0.000 NA
ATOM     14  C   UNL     1       2.185   6.726  19.813  0.00  0.00    +0.000 A 
ATOM     15  N   UNL     1       1.710   8.016  19.961  0.00  0.00    +0.000 N 
ATOM     16  C   UNL     1       1.471   8.867  18.808  0.00  0.00    +0.000 C 
ATOM     17  C   UNL     1       0.158   9.655  18.865  0.00  0.00    +0.000 C 
ATOM     18  N   UNL     1      -0.046  10.378  20.134  0.00  0.00    +0.000 NA
ATOM     19  C   UNL     1      -0.044   9.335  21.193  0.00  0.00    +0.000 C 
ATOM     20  C   UNL     1       1.246   8.476  21.286  0.00  0.00    +0.000 C 
ATOM     21  C   UNL     1       3.060   6.253  18.805  0.00  0.00    +0.000 A 
ENDROOT
BRANCH  18  22
ATOM     22  C   UNL     1       0.978  11.416  20.401  0.00  0.00    +0.000 C 
BRANCH  22  23
ATOM     23  C   UNL     1       0.391  12.819  20.670  0.00  0.00    +0.000 C 
BRANCH  23  24
ATOM     24  C   UNL     1      -0.991  12.820  21.293  0.00  0.00    +0.000 A 
ATOM     25  C   UNL     1      -1.174  12.546  22.657  0.00  0.00    +0.000 A 
ATOM     26  C   UNL     1      -2.459  12.469  23.200  0.00  0.00    +0.000 A 
ATOM     27  C   UNL     1      -3.572  12.654  22.382  0.00  0.00    +0.000 A 
ATOM     28  F   UNL     1      -4.800  12.550  22.907  0.00  0.00    +0.000 F 
ATOM     29  C   UNL     1      -3.403  12.936  21.035  0.00  0.00    +0.000 A 
ATOM     30  F   UNL     1      -4.472  13.105  20.244  0.00  0.00    +0.000 F 
ATOM     31  C   UNL     1      -2.127  13.015  20.486  0.00  0.00    +0.000 A 
ENDBRANCH  23  24
ENDBRANCH  22  23
ENDBRANCH  18  22
TORSDOF 3
ENDMDL
MODEL 4
REMARK VINA RESULT:      -8.0      5.821     10.465
REMARK  Name = 
REMARK  4 active torsions:
REMARK  status: ('A' for Active; 'I' for Inactive)
REMARK    1  A    between atoms: C_1  and  N_2
REMARK    2  A    between atoms: N_18  and  C_19
REMARK    3  A    between atoms: C_19  and  C_20
REMARK    4  A    between atoms: C_20  and  C_21
REMARK                            x       y       z     vdW  Elec       q    Type
REMARK                         _______ _______ _______ _____ _____    ______ ____
ROOT
ATOM      1  C   UNL     1       2.710   8.426  17.595  0.00  0.00    +0.000 C 
ATOM      2  N   UNL     1       2.338   7.842  18.865  0.00  0.00    +0.000 N 
ATOM      3  C   UNL     1       1.502   8.511  19.739  0.00  0.00    +0.000 A 
ATOM      4  C   UNL     1       0.995   9.816  19.709  0.00  0.00    +0.000 A 
ATOM      5  C   UNL     1       0.115  10.127  20.726  0.00  0.00    +0.000 A 
ATOM      6 CL   UNL     1      -0.613  11.681  20.779  0.00  0.00    +0.000 Cl
ATOM      7  N   UNL     1      -0.262   9.291  21.714  0.00  0.00    +0.000 NA
ATOM      8  C   UNL     1       0.254   8.036  21.732  0.00  0.00    +0.000 A 
ATOM      9  C   UNL     1       1.151   7.617  20.741  0.00  0.00    +0.000 A 
ATOM     10  C   UNL     1       1.852   6.408  20.480  0.00  0.00    +0.000 A 
ATOM     11  N   UNL     1       1.799   5.264  21.197  0.00  0.00    +0.000 NA
ATOM     12  C   UNL     1       2.572   4.298  20.705  0.00  0.00    +0.000 A 
ATOM     13  N   UNL     1       3.387   4.368  19.642  0.00  0.00    +0.000 NA
ATOM     14  C   UNL     1       3.503   5.523  18.937  0.00  0.00    +0.000 A 
ATOM     15  N   UNL     1       4.458   5.566  17.937  0.00  0.00    +0.000 N 
ATOM     16  C   UNL     1       5.186   6.789  17.646  0.00  0.00    +0.000 C 
ATOM     17  C   UNL     1       6.689   6.591  17.423  0.00  0.00    +0.000 C 
ATOM     18  N   UNL     1       7.013   5.516  16.466  0.00  0.00    +0.000 NA
ATOM     19  C   UNL     1       6.427   4.278  17.044  0.00  0.00    +0.000 C 
ATOM     20  C   UNL     1       4.894   4.313  17.289  0.00  0.00    +0.000 C 
ATOM     21  C   UNL     1       2.652   6.577  19.345  0.00  0.00    +0.000 A 
ENDROOT
BRANCH  18  22
ATOM     22  C   UNL     1       6.503   5.763  15.097  0.00  0.00    +0.000 C 
BRANCH  22  23
ATOM     23  C   UNL     1       7.403   5.188  13.982  0.00  0.00    +0.000 C 
BRANCH  23  24
ATOM     24  C   UNL     1       6.714   4.212  13.051  0.00  0.00    +0.000 A 
ATOM     25  C   UNL     1       5.320   4.053  13.065  0.00  0.00    +0.000 A 
ATOM     26  C   UNL     1       4.706   3.091  12.260  0.00  0.00    +0.000 A 
ATOM     27  C   UNL     1       5.481   2.271  11.441  0.00  0.00    +0.000 A 
ATOM     28  F   UNL     1       4.884   1.332  10.695  0.00  0.00    +0.000 F 
ATOM     29  C   UNL     1       6.859   2.426  11.410  0.00  0.00    +0.000 A 
ATOM     30  F   UNL     1       7.608   1.633  10.631  0.00  0.00    +0.000 F 
ATOM     31  C   UNL     1       7.478   3.383  12.208  0.00  0.00    +0.000 A 
ENDBRANCH  23  24
ENDBRANCH  22  23
ENDBRANCH  18  22
TORSDOF 3
ENDMDL
MODEL 5
REMARK VINA RESULT:      -8.0      3.360      4.286
REMARK  Name = 
REMARK  4 active torsions:
REMARK  status: ('A' for Active; 'I' for Inactive)
REMARK    1  A    between atoms: C_1  and  N_2
REMARK    2  A    between atoms: N_18  and  C_19
REMARK    3  A    between atoms: C_19  and  C_20
REMARK    4  A    between atoms: C_20  and  C_21
REMARK                            x       y       z     vdW  Elec       q    Type
REMARK                         _______ _______ _______ _____ _____    ______ ____
ROOT
ATOM      1  C   UNL     1       4.133   8.248  17.657  0.00  0.00    +0.000 C 
ATOM      2  N   UNL     1       3.820   6.849  17.848  0.00  0.00    +0.000 N 
ATOM      3  C   UNL     1       4.401   5.876  17.057  0.00  0.00    +0.000 A 
ATOM      4  C   UNL     1       5.205   5.977  15.916  0.00  0.00    +0.000 A 
ATOM      5  C   UNL     1       5.676   4.777  15.421  0.00  0.00    +0.000 A 
ATOM      6 CL   UNL     1       6.709   4.766  14.049  0.00  0.00    +0.000 Cl
ATOM      7  N   UNL     1       5.410   3.562  15.939  0.00  0.00    +0.000 NA
ATOM      8  C   UNL     1       4.615   3.486  17.037  0.00  0.00    +0.000 A 
ATOM      9  C   UNL     1       4.091   4.645  17.622  0.00  0.00    +0.000 A 
ATOM     10  C   UNL     1       3.253   4.904  18.741  0.00  0.00    +0.000 A 
ATOM     11  N   UNL     1       2.723   3.996  19.589  0.00  0.00    +0.000 NA
ATOM     12  C   UNL     1       1.973   4.543  20.544  0.00  0.00    +0.000 A 
ATOM     13  N   UNL     1       1.679   5.841  20.707  0.00  0.00    +0.000 NA
ATOM     14  C   UNL     1       2.151   6.770  19.834  0.00  0.00    +0.000 A 
ATOM     15  N   UNL     1       1.701   8.069  19.982  0.00  0.00    +0.000 N 
ATOM     16  C   UNL     1       1.491   8.927  18.828  0.00  0.00    +0.000 C 
ATOM     17  C   UNL     1       0.194   9.742  18.875  0.00  0.00    +0.000 C 
ATOM     18  N   UNL     1      -0.008  10.466  20.144  0.00  0.00    +0.000 NA
ATOM     19  C   UNL     1      -0.038   9.421  21.200  0.00  0.00    +0.000 C 
ATOM     20  C   UNL     1       1.234   8.535  21.303  0.00  0.00    +0.000 C 
ATOM     21  C   UNL     1       3.025   6.281  18.835  0.00  0.00    +0.000 A 
ENDROOT
BRANCH  18  22
ATOM     22  C   UNL     1       1.034  11.482  20.424  0.00  0.00    +0.000 C 
BRANCH  22  23
ATOM     23  C   UNL     1       1.168  12.559  19.325  0.00  0.00    +0.000 C 
BRANCH  23  24
ATOM     24  C   UNL     1       2.419  13.408  19.419  0.00  0.00    +0.000 A 
ATOM     25  C   UNL     1       2.938  13.804  20.661  0.00  0.00    +0.000 A 
ATOM     26  C   UNL     1       4.044  14.655  20.731  0.00  0.00    +0.000 A 
ATOM     27  C   UNL     1       4.634  15.127  19.559  0.00  0.00    +0.000 A 
ATOM     28  F   UNL     1       5.676  15.966  19.638  0.00  0.00    +0.000 F 
ATOM     29  C   UNL     1       4.137  14.734  18.326  0.00  0.00    +0.000 A 
ATOM     30  F   UNL     1       4.696  15.193  17.198  0.00  0.00    +0.000 F 
ATOM     31  C   UNL     1       3.036  13.886  18.247  0.00  0.00    +0.000 A 
ENDBRANCH  23  24
ENDBRANCH  22  23
ENDBRANCH  18  22
TORSDOF 3
ENDMDL
MODEL 6
REMARK VINA RESULT:      -7.9      3.251      3.992
REMARK  Name = 
REMARK  4 active torsions:
REMARK  status: ('A' for Active; 'I' for Inactive)
REMARK    1  A    between atoms: C_1  and  N_2
REMARK    2  A    between atoms: N_18  and  C_19
REMARK    3  A    between atoms: C_19  and  C_20
REMARK    4  A    between atoms: C_20  and  C_21
REMARK                            x       y       z     vdW  Elec       q    Type
REMARK                         _______ _______ _______ _____ _____    ______ ____
ROOT
ATOM      1  C   UNL     1       4.021   8.354  17.417  0.00  0.00    +0.000 C 
ATOM      2  N   UNL     1       3.745   6.974  17.752  0.00  0.00    +0.000 N 
ATOM      3  C   UNL     1       4.347   5.940  17.063  0.00  0.00    +0.000 A 
ATOM      4  C   UNL     1       5.147   5.943  15.913  0.00  0.00    +0.000 A 
ATOM      5  C   UNL     1       5.646   4.711  15.541  0.00  0.00    +0.000 A 
ATOM      6 CL   UNL     1       6.677   4.585  14.174  0.00  0.00    +0.000 Cl
ATOM      7  N   UNL     1       5.412   3.549  16.183  0.00  0.00    +0.000 NA
ATOM      8  C   UNL     1       4.622   3.567  17.287  0.00  0.00    +0.000 A 
ATOM      9  C   UNL     1       4.070   4.767  17.752  0.00  0.00    +0.000 A 
ATOM     10  C   UNL     1       3.228   5.118  18.842  0.00  0.00    +0.000 A 
ATOM     11  N   UNL     1       2.723   4.289  19.781  0.00  0.00    +0.000 NA
ATOM     12  C   UNL     1       1.961   4.913  20.679  0.00  0.00    +0.000 A 
ATOM     13  N   UNL     1       1.635   6.212  20.709  0.00  0.00    +0.000 NA
ATOM     14  C   UNL     1       2.082   7.058  19.744  0.00  0.00    +0.000 A 
ATOM     15  N   UNL     1       1.600   8.354  19.760  0.00  0.00    +0.000 N 
ATOM     16  C   UNL     1       1.365   9.084  18.525  0.00  0.00    +0.000 C 
ATOM     17  C   UNL     1       0.049   9.867  18.494  0.00  0.00    +0.000 C 
ATOM     18  N   UNL     1      -0.169  10.712  19.683  0.00  0.00    +0.000 NA
ATOM     19  C   UNL     1      -0.170   9.780  20.841  0.00  0.00    +0.000 C 
ATOM     20  C   UNL     1       1.124   8.942  21.028  0.00  0.00    +0.000 C 
ATOM     21  C   UNL     1       2.966   6.491  18.795  0.00  0.00    +0.000 A 
ENDROOT
BRANCH  18  22
ATOM     22  C   UNL     1       0.848  11.777  19.852  0.00  0.00    +0.000 C 
BRANCH  22  23
ATOM     23  C   UNL     1       0.330  13.194  19.522  0.00  0.00    +0.000 C 
BRANCH  23  24
ATOM     24  C   UNL     1       1.384  14.149  19.001  0.00  0.00    +0.000 A 
ATOM     25  C   UNL     1       2.656  13.693  18.622  0.00  0.00    +0.000 A 
ATOM     26  C   UNL     1       3.645  14.595  18.221  0.00  0.00    +0.000 A 
ATOM     27  C   UNL     1       3.374  15.962  18.207  0.00  0.00    +0.000 A 
ATOM     28  F   UNL     1       4.338  16.820  17.848  0.00  0.00    +0.000 F 
ATOM     29  C   UNL     1       2.118  16.424  18.569  0.00  0.00    +0.000 A 
ATOM     30  F   UNL     1       1.858  17.739  18.565  0.00  0.00    +0.000 F 
ATOM     31  C   UNL     1       1.127  15.533  18.969  0.00  0.00    +0.000 A 
ENDBRANCH  23  24
ENDBRANCH  22  23
ENDBRANCH  18  22
TORSDOF 3
ENDMDL
MODEL 7
REMARK VINA RESULT:      -7.9      2.725      3.370
REMARK  Name = 
REMARK  4 active torsions:
REMARK  status: ('A' for Active; 'I' for Inactive)
REMARK    1  A    between atoms: C_1  and  N_2
REMARK    2  A    between atoms: N_18  and  C_19
REMARK    3  A    between atoms: C_19  and  C_20
REMARK    4  A    between atoms: C_20  and  C_21
REMARK                            x       y       z     vdW  Elec       q    Type
REMARK                         _______ _______ _______ _____ _____    ______ ____
ROOT
ATOM      1  C   UNL     1       4.104   8.289  17.488  0.00  0.00    +0.000 C 
ATOM      2  N   UNL     1       3.783   6.910  17.782  0.00  0.00    +0.000 N 
ATOM      3  C   UNL     1       4.355   5.877  17.064  0.00  0.00    +0.000 A 
ATOM      4  C   UNL     1       5.159   5.889  15.917  0.00  0.00    +0.000 A 
ATOM      5  C   UNL     1       5.621   4.653  15.511  0.00  0.00    +0.000 A 
ATOM      6 CL   UNL     1       6.652   4.534  14.144  0.00  0.00    +0.000 Cl
ATOM      7  N   UNL     1       5.348   3.480  16.118  0.00  0.00    +0.000 NA
ATOM      8  C   UNL     1       4.554   3.491  17.219  0.00  0.00    +0.000 A 
ATOM      9  C   UNL     1       4.038   4.694  17.718  0.00  0.00    +0.000 A 
ATOM     10  C   UNL     1       3.203   5.040  18.815  0.00  0.00    +0.000 A 
ATOM     11  N   UNL     1       2.668   4.200  19.728  0.00  0.00    +0.000 NA
ATOM     12  C   UNL     1       1.923   4.821  20.641  0.00  0.00    +0.000 A 
ATOM     13  N   UNL     1       1.638   6.129  20.708  0.00  0.00    +0.000 NA
ATOM     14  C   UNL     1       2.115   6.988  19.770  0.00  0.00    +0.000 A 
ATOM     15  N   UNL     1       1.675   8.298  19.822  0.00  0.00    +0.000 N 
ATOM     16  C   UNL     1       1.468   9.070  18.609  0.00  0.00    +0.000 C 
ATOM     17  C   UNL     1       0.177   9.895  18.596  0.00  0.00    +0.000 C 
ATOM     18  N   UNL     1      -0.019  10.712  19.809  0.00  0.00    +0.000 NA
ATOM     19  C   UNL     1      -0.054   9.747  20.939  0.00  0.00    +0.000 C 
ATOM     20  C   UNL     1       1.212   8.863  21.105  0.00  0.00    +0.000 C 
ATOM     21  C   UNL     1       2.985   6.421  18.808  0.00  0.00    +0.000 A 
ENDROOT
BRANCH  18  22
ATOM     22  C   UNL     1       1.031  11.738  20.012  0.00  0.00    +0.000 C 
BRANCH  22  23
ATOM     23  C   UNL     1       0.503  13.062  20.606  0.00  0.00    +0.000 C 
BRANCH  23  24
ATOM     24  C   UNL     1       0.774  14.290  19.761  0.00  0.00    +0.000 A 
ATOM     25  C   UNL     1       2.085  14.707  19.484  0.00  0.00    +0.000 A 
ATOM     26  C   UNL     1       2.321  15.886  18.772  0.00  0.00    +0.000 A 
ATOM     27  C   UNL     1       1.248  16.664  18.342  0.00  0.00    +0.000 A 
ATOM     28  F   UNL     1       1.485  17.808  17.685  0.00  0.00    +0.000 F 
ATOM     29  C   UNL     1      -0.052  16.257  18.600  0.00  0.00    +0.000 A 
ATOM     30  F   UNL     1      -1.086  17.009  18.196  0.00  0.00    +0.000 F 
ATOM     31  C   UNL     1      -0.296  15.084  19.307  0.00  0.00    +0.000 A 
ENDBRANCH  23  24
ENDBRANCH  22  23
ENDBRANCH  18  22
TORSDOF 3
ENDMDL
MODEL 8
REMARK VINA RESULT:      -7.8      3.152      4.038
REMARK  Name = 
REMARK  4 active torsions:
REMARK  status: ('A' for Active; 'I' for Inactive)
REMARK    1  A    between atoms: C_1  and  N_2
REMARK    2  A    between atoms: N_18  and  C_19
REMARK    3  A    between atoms: C_19  and  C_20
REMARK    4  A    between atoms: C_20  and  C_21
REMARK                            x       y       z     vdW  Elec       q    Type
REMARK                         _______ _______ _______ _____ _____    ______ ____
ROOT
ATOM      1  C   UNL     1       4.122   8.254  17.570  0.00  0.00    +0.000 C 
ATOM      2  N   UNL     1       3.817   6.860  17.805  0.00  0.00    +0.000 N 
ATOM      3  C   UNL     1       4.396   5.865  17.040  0.00  0.00    +0.000 A 
ATOM      4  C   UNL     1       5.193   5.936  15.890  0.00  0.00    +0.000 A 
ATOM      5  C   UNL     1       5.665   4.723  15.428  0.00  0.00    +0.000 A 
ATOM      6 CL   UNL     1       6.690   4.676  14.052  0.00  0.00    +0.000 Cl
ATOM      7  N   UNL     1       5.408   3.523  15.985  0.00  0.00    +0.000 NA
ATOM      8  C   UNL     1       4.621   3.477  17.090  0.00  0.00    +0.000 A 
ATOM      9  C   UNL     1       4.096   4.651  17.643  0.00  0.00    +0.000 A 
ATOM     10  C   UNL     1       3.264   4.940  18.759  0.00  0.00    +0.000 A 
ATOM     11  N   UNL     1       2.743   4.056  19.637  0.00  0.00    +0.000 NA
ATOM     12  C   UNL     1       1.997   4.629  20.581  0.00  0.00    +0.000 A 
ATOM     13  N   UNL     1       1.698   5.930  20.706  0.00  0.00    +0.000 NA
ATOM     14  C   UNL     1       2.161   6.834  19.803  0.00  0.00    +0.000 A 
ATOM     15  N   UNL     1       1.707   8.135  19.915  0.00  0.00    +0.000 N 
ATOM     16  C   UNL     1       1.485   8.957  18.737  0.00  0.00    +0.000 C 
ATOM     17  C   UNL     1       0.185   9.768  18.768  0.00  0.00    +0.000 C 
ATOM     18  N   UNL     1      -0.012  10.529  20.016  0.00  0.00    +0.000 NA
ATOM     19  C   UNL     1      -0.030   9.516  21.103  0.00  0.00    +0.000 C 
ATOM     20  C   UNL     1       1.246   8.639  21.224  0.00  0.00    +0.000 C 
ATOM     21  C   UNL     1       3.031   6.319  18.813  0.00  0.00    +0.000 A 
ENDROOT
BRANCH  18  22
ATOM     22  C   UNL     1       1.028  11.557  20.258  0.00  0.00    +0.000 C 
BRANCH  22  23
ATOM     23  C   UNL     1       1.088  12.653  19.172  0.00  0.00    +0.000 C 
BRANCH  23  24
ATOM     24  C   UNL     1       2.300  13.559  19.252  0.00  0.00    +0.000 A 
ATOM     25  C   UNL     1       2.928  14.038  18.092  0.00  0.00    +0.000 A 
ATOM     26  C   UNL     1       4.092  14.805  18.179  0.00  0.00    +0.000 A 
ATOM     27  C   UNL     1       4.645  15.091  19.426  0.00  0.00    +0.000 A 
ATOM     28  F   UNL     1       5.778  15.803  19.497  0.00  0.00    +0.000 F 
ATOM     29  C   UNL     1       4.027  14.634  20.580  0.00  0.00    +0.000 A 
ATOM     30  F   UNL     1       4.562  14.899  21.780  0.00  0.00    +0.000 F 
ATOM     31  C   UNL     1       2.867  13.869  20.502  0.00  0.00    +0.000 A 
ENDBRANCH  23  24
ENDBRANCH  22  23
ENDBRANCH  18  22
TORSDOF 3
ENDMDL
MODEL 9
REMARK VINA RESULT:      -7.6      5.565     10.417
REMARK  Name = 
REMARK  4 active torsions:
REMARK  status: ('A' for Active; 'I' for Inactive)
REMARK    1  A    between atoms: C_1  and  N_2
REMARK    2  A    between atoms: N_18  and  C_19
REMARK    3  A    between atoms: C_19  and  C_20
REMARK    4  A    between atoms: C_20  and  C_21
REMARK                            x       y       z     vdW  Elec       q    Type
REMARK                         _______ _______ _______ _____ _____    ______ ____
ROOT
ATOM      1  C   UNL     1       2.582   8.337  17.470  0.00  0.00    +0.000 C 
ATOM      2  N   UNL     1       2.280   7.801  18.779  0.00  0.00    +0.000 N 
ATOM      3  C   UNL     1       1.497   8.506  19.673  0.00  0.00    +0.000 A 
ATOM      4  C   UNL     1       0.995   9.812  19.625  0.00  0.00    +0.000 A 
ATOM      5  C   UNL     1       0.174  10.164  20.678  0.00  0.00    +0.000 A 
ATOM      6 CL   UNL     1      -0.544  11.724  20.716  0.00  0.00    +0.000 Cl
ATOM      7  N   UNL     1      -0.151   9.366  21.715  0.00  0.00    +0.000 NA
ATOM      8  C   UNL     1       0.360   8.109  21.749  0.00  0.00    +0.000 A 
ATOM      9  C   UNL     1       1.199   7.650  20.725  0.00  0.00    +0.000 A 
ATOM     10  C   UNL     1       1.878   6.428  20.468  0.00  0.00    +0.000 A 
ATOM     11  N   UNL     1       1.861   5.311  21.228  0.00  0.00    +0.000 NA
ATOM     12  C   UNL     1       2.602   4.323  20.728  0.00  0.00    +0.000 A 
ATOM     13  N   UNL     1       3.356   4.350  19.620  0.00  0.00    +0.000 NA
ATOM     14  C   UNL     1       3.437   5.479  18.868  0.00  0.00    +0.000 A 
ATOM     15  N   UNL     1       4.334   5.481  17.816  0.00  0.00    +0.000 N 
ATOM     16  C   UNL     1       5.051   6.688  17.441  0.00  0.00    +0.000 C 
ATOM     17  C   UNL     1       6.538   6.473  17.142  0.00  0.00    +0.000 C 
ATOM     18  N   UNL     1       6.803   5.363  16.207  0.00  0.00    +0.000 NA
ATOM     19  C   UNL     1       6.245   4.150  16.860  0.00  0.00    +0.000 C 
ATOM     20  C   UNL     1       4.728   4.203  17.189  0.00  0.00    +0.000 C 
ATOM     21  C   UNL     1       2.614   6.552  19.285  0.00  0.00    +0.000 A 
ENDROOT
BRANCH  18  22
ATOM     22  C   UNL     1       6.218   5.565  14.860  0.00  0.00    +0.000 C 
BRANCH  22  23
ATOM     23  C   UNL     1       7.153   5.147  13.704  0.00  0.00    +0.000 C 
BRANCH  23  24
ATOM     24  C   UNL     1       6.645   3.994  12.863  0.00  0.00    +0.000 A 
ATOM     25  C   UNL     1       7.531   3.095  12.250  0.00  0.00    +0.000 A 
ATOM     26  C   UNL     1       7.053   2.086  11.411  0.00  0.00    +0.000 A 
ATOM     27  C   UNL     1       5.685   1.974  11.167  0.00  0.00    +0.000 A 
ATOM     28  F   UNL     1       5.239   1.021  10.338  0.00  0.00    +0.000 F 
ATOM     29  C   UNL     1       4.798   2.850  11.776  0.00  0.00    +0.000 A 
ATOM     30  F   UNL     1       3.484   2.751  11.536  0.00  0.00    +0.000 F 
ATOM     31  C   UNL     1       5.266   3.857  12.614  0.00  0.00    +0.000 A 
ENDBRANCH  23  24
ENDBRANCH  22  23
ENDBRANCH  18  22
TORSDOF 3
ENDMDL
