MODEL 1
REMARK VINA RESULT:      -7.5      0.000      0.000
REMARK  Name = 
REMARK  10 active torsions:
REMARK  status: ('A' for Active; 'I' for Inactive)
REMARK    1  A    between atoms: C_1  and  C_2
REMARK    2  A    between atoms: C_5  and  C_6
REMARK    3  A    between atoms: C_8  and  S_9
REMARK    4  A    between atoms: S_9  and  C_10
REMARK    5  A    between atoms: C_10  and  C_11
REMARK    6  A    between atoms: C_11  and  C_12
REMARK    7  A    between atoms: C_18  and  C_19
REMARK    8  A    between atoms: C_19  and  O_21
REMARK    9  A    between atoms: N_23  and  S_24
REMARK   10  A    between atoms: S_24  and  C_27
REMARK                            x       y       z     vdW  Elec       q    Type
REMARK                         _______ _______ _______ _____ _____    ______ ____
ROOT
ATOM      1  C   UNL     1       1.191  12.323  19.903  0.00  0.00    +0.000 C 
ATOM      2  C   UNL     1       1.397  11.202  18.864  0.00  0.00    +0.000 C 
ATOM      3  C   UNL     1       0.427  10.032  19.009  0.00  0.00    +0.000 C 
ATOM      4  C   UNL     1      -1.010  10.537  19.079  0.00  0.00    +0.000 C 
ATOM      5  C   UNL     1      -1.193  11.599  20.146  0.00  0.00    +0.000 C 
ATOM      6  N   UNL     1      -0.274  12.777  19.934  0.00  0.00    +0.000 NA
ENDROOT
BRANCH   1  11
ATOM      7  C   UNL     1       5.057  16.488  18.581  0.00  0.00    +0.000 C 
ATOM      8  C   UNL     1       4.050  15.429  18.916  0.00  0.00    +0.000 A 
ATOM      9  C   UNL     1       3.096  15.030  17.977  0.00  0.00    +0.000 A 
ATOM     10  C   UNL     1       2.158  14.052  18.300  0.00  0.00    +0.000 A 
ATOM     11  C   UNL     1       2.169  13.435  19.561  0.00  0.00    +0.000 A 
ATOM     12  C   UNL     1       3.120  13.849  20.505  0.00  0.00    +0.000 A 
ATOM     13  C   UNL     1       4.049  14.839  20.186  0.00  0.00    +0.000 A 
ENDBRANCH   1  11
BRANCH   6  14
ATOM     14  S   UNL     1      -0.473  13.963  21.246  0.00  0.00    +0.000 S 
ATOM     15  O   UNL     1      -1.879  13.983  21.586  0.00  0.00    +0.000 OA
ATOM     16  O   UNL     1       0.549  13.728  22.238  0.00  0.00    +0.000 OA
BRANCH  14  17
ATOM     17  C   UNL     1      -0.088  15.509  20.459  0.00  0.00    +0.000 A 
ATOM     18  C   UNL     1       0.762  16.413  21.102  0.00  0.00    +0.000 A 
ATOM     19  C   UNL     1       1.006  17.655  20.519  0.00  0.00    +0.000 A 
ATOM     20  C   UNL     1       0.435  17.968  19.285  0.00  0.00    +0.000 A 
ATOM     21  C   UNL     1      -0.371  17.038  18.623  0.00  0.00    +0.000 A 
ATOM     22  C   UNL     1      -0.639  15.800  19.209  0.00  0.00    +0.000 A 
ENDBRANCH  14  17
ENDBRANCH   6  14
BRANCH   4  23
ATOM     23  C   UNL     1      -1.525  10.956  17.717  0.00  0.00    +0.000 C 
ATOM     24  O   UNL     1      -1.863  10.140  16.869  0.00  0.00    +0.000 OA
BRANCH  23  25
ATOM     25  O   UNL     1      -1.551  12.282  17.480  0.00  0.00    +0.000 OA
ATOM     26  H   UNL     1      -0.695  12.653  17.144  0.00  0.00    +0.000 HD
ENDBRANCH  23  25
ENDBRANCH   4  23
BRANCH   3  27
ATOM     27  S   UNL     1       0.885   9.054  20.517  0.00  0.00    +0.000 S 
BRANCH  27  28
ATOM     28  C   UNL     1       1.929   7.736  19.787  0.00  0.00    +0.000 C 
BRANCH  28  29
ATOM     29  C   UNL     1       1.916   6.495  20.671  0.00  0.00    +0.000 C 
BRANCH  29  30
ATOM     30  C   UNL     1       1.739   5.216  19.901  0.00  0.00    +0.000 A 
ATOM     31  C   UNL     1       1.091   4.123  20.492  0.00  0.00    +0.000 A 
ATOM     32  C   UNL     1       0.845   2.967  19.751  0.00  0.00    +0.000 A 
ATOM     33  C   UNL     1       1.255   2.894  18.421  0.00  0.00    +0.000 A 
ATOM     34  C   UNL     1       1.921   3.969  17.835  0.00  0.00    +0.000 A 
ATOM     35  C   UNL     1       2.167   5.125  18.573  0.00  0.00    +0.000 A 
ENDBRANCH  29  30
ENDBRANCH  28  29
ENDBRANCH  27  28
ENDBRANCH   3  27
TORSDOF 9
ENDMDL
MODEL 2
REMARK VINA RESULT:      -7.2      1.656      2.782
REMARK  Name = 
REMARK  10 active torsions:
REMARK  status: ('A' for Active; 'I' for Inactive)
REMARK    1  A    between atoms: C_1  and  C_2
REMARK    2  A    between atoms: C_5  and  C_6
REMARK    3  A    between atoms: C_8  and  S_9
REMARK    4  A    between atoms: S_9  and  C_10
REMARK    5  A    between atoms: C_10  and  C_11
REMARK    6  A    between atoms: C_11  and  C_12
REMARK    7  A    between atoms: C_18  and  C_19
REMARK    8  A    between atoms: C_19  and  O_21
REMARK    9  A    between atoms: N_23  and  S_24
REMARK   10  A    between atoms: S_24  and  C_27
REMARK                            x       y       z     vdW  Elec       q    Type
REMARK                         _______ _______ _______ _____ _____    ______ ____
ROOT
ATOM      1  C   UNL     1       1.175  12.284  19.840  0.00  0.00    +0.000 C 
ATOM      2  C   UNL     1       1.408  11.286  18.687  0.00  0.00    +0.000 C 
ATOM      3  C   UNL     1       0.513  10.051  18.741  0.00  0.00    +0.000 C 
ATOM      4  C   UNL     1      -0.948  10.458  18.905  0.00  0.00    +0.000 C 
ATOM      5  C   UNL     1      -1.153  11.395  20.080  0.00  0.00    +0.000 C 
ATOM      6  N   UNL     1      -0.311  12.642  19.961  0.00  0.00    +0.000 NA
ENDROOT
BRANCH   1  11
ATOM      7  C   UNL     1       4.744  16.787  18.830  0.00  0.00    +0.000 C 
ATOM      8  C   UNL     1       3.812  15.641  19.087  0.00  0.00    +0.000 A 
ATOM      9  C   UNL     1       2.829  15.299  18.156  0.00  0.00    +0.000 A 
ATOM     10  C   UNL     1       1.961  14.238  18.407  0.00  0.00    +0.000 A 
ATOM     11  C   UNL     1       2.074  13.482  19.584  0.00  0.00    +0.000 A 
ATOM     12  C   UNL     1       3.055  13.837  20.521  0.00  0.00    +0.000 A 
ATOM     13  C   UNL     1       3.913  14.909  20.276  0.00  0.00    +0.000 A 
ENDBRANCH   1  11
BRANCH   6  14
ATOM     14  S   UNL     1      -0.531  13.677  21.393  0.00  0.00    +0.000 S 
ATOM     15  O   UNL     1       0.295  13.123  22.443  0.00  0.00    +0.000 OA
ATOM     16  O   UNL     1      -0.421  15.056  20.984  0.00  0.00    +0.000 OA
BRANCH  14  17
ATOM     17  C   UNL     1      -2.228  13.400  21.840  0.00  0.00    +0.000 A 
ATOM     18  C   UNL     1      -3.241  13.790  20.960  0.00  0.00    +0.000 A 
ATOM     19  C   UNL     1      -4.573  13.639  21.342  0.00  0.00    +0.000 A 
ATOM     20  C   UNL     1      -4.882  13.064  22.575  0.00  0.00    +0.000 A 
ATOM     21  C   UNL     1      -3.863  12.627  23.426  0.00  0.00    +0.000 A 
ATOM     22  C   UNL     1      -2.527  12.795  23.063  0.00  0.00    +0.000 A 
ENDBRANCH  14  17
ENDBRANCH   6  14
BRANCH   4  23
ATOM     23  C   UNL     1      -1.535  10.979  17.609  0.00  0.00    +0.000 C 
ATOM     24  O   UNL     1      -1.923  10.228  16.723  0.00  0.00    +0.000 OA
BRANCH  23  25
ATOM     25  O   UNL     1      -1.566  12.319  17.474  0.00  0.00    +0.000 OA
ATOM     26  H   UNL     1      -0.753  12.706  17.058  0.00  0.00    +0.000 HD
ENDBRANCH  23  25
ENDBRANCH   4  23
BRANCH   3  27
ATOM     27  S   UNL     1       1.080   8.957  20.128  0.00  0.00    +0.000 S 
BRANCH  27  28
ATOM     28  C   UNL     1       2.130   7.754  19.229  0.00  0.00    +0.000 C 
BRANCH  28  29
ATOM     29  C   UNL     1       2.466   6.567  20.124  0.00  0.00    +0.000 C 
BRANCH  29  30
ATOM     30  C   UNL     1       1.926   5.261  19.611  0.00  0.00    +0.000 A 
ATOM     31  C   UNL     1       2.145   4.883  18.279  0.00  0.00    +0.000 A 
ATOM     32  C   UNL     1       1.724   3.634  17.825  0.00  0.00    +0.000 A 
ATOM     33  C   UNL     1       1.073   2.761  18.696  0.00  0.00    +0.000 A 
ATOM     34  C   UNL     1       0.831   3.140  20.015  0.00  0.00    +0.000 A 
ATOM     35  C   UNL     1       1.252   4.389  20.471  0.00  0.00    +0.000 A 
ENDBRANCH  29  30
ENDBRANCH  28  29
ENDBRANCH  27  28
ENDBRANCH   3  27
TORSDOF 9
ENDMDL
MODEL 3
REMARK VINA RESULT:      -7.2      1.670      2.776
REMARK  Name = 
REMARK  10 active torsions:
REMARK  status: ('A' for Active; 'I' for Inactive)
REMARK    1  A    between atoms: C_1  and  C_2
REMARK    2  A    between atoms: C_5  and  C_6
REMARK    3  A    between atoms: C_8  and  S_9
REMARK    4  A    between atoms: S_9  and  C_10
REMARK    5  A    between atoms: C_10  and  C_11
REMARK    6  A    between atoms: C_11  and  C_12
REMARK    7  A    between atoms: C_18  and  C_19
REMARK    8  A    between atoms: C_19  and  O_21
REMARK    9  A    between atoms: N_23  and  S_24
REMARK   10  A    between atoms: S_24  and  C_27
REMARK                            x       y       z     vdW  Elec       q    Type
REMARK                         _______ _______ _______ _____ _____    ______ ____
ROOT
ATOM      1  C   UNL     1       1.152  12.254  19.918  0.00  0.00    +0.000 C 
ATOM      2  C   UNL     1       1.344  11.188  18.819  0.00  0.00    +0.000 C 
ATOM      3  C   UNL     1       0.401   9.994  18.938  0.00  0.00    +0.000 C 
ATOM      4  C   UNL     1      -1.042  10.466  19.080  0.00  0.00    +0.000 C 
ATOM      5  C   UNL     1      -1.208  11.471  20.203  0.00  0.00    +0.000 C 
ATOM      6  N   UNL     1      -0.319  12.676  20.020  0.00  0.00    +0.000 NA
ENDROOT
BRANCH   1  11
ATOM      7  C   UNL     1       4.666  16.755  18.724  0.00  0.00    +0.000 C 
ATOM      8  C   UNL     1       3.778  15.588  19.033  0.00  0.00    +0.000 A 
ATOM      9  C   UNL     1       3.928  14.875  20.224  0.00  0.00    +0.000 A 
ATOM     10  C   UNL     1       3.104  13.785  20.500  0.00  0.00    +0.000 A 
ATOM     11  C   UNL     1       2.098  13.401  19.600  0.00  0.00    +0.000 A 
ATOM     12  C   UNL     1       1.960  14.112  18.399  0.00  0.00    +0.000 A 
ATOM     13  C   UNL     1       2.795  15.193  18.118  0.00  0.00    +0.000 A 
ENDBRANCH   1  11
BRANCH   6  14
ATOM     14  S   UNL     1      -0.495  13.793  21.394  0.00  0.00    +0.000 S 
ATOM     15  O   UNL     1       0.337  13.281  22.461  0.00  0.00    +0.000 OA
ATOM     16  O   UNL     1      -0.366  15.145  20.907  0.00  0.00    +0.000 OA
BRANCH  14  17
ATOM     17  C   UNL     1      -2.189  13.575  21.882  0.00  0.00    +0.000 A 
ATOM     18  C   UNL     1      -2.477  12.952  23.101  0.00  0.00    +0.000 A 
ATOM     19  C   UNL     1      -3.806  12.716  23.450  0.00  0.00    +0.000 A 
ATOM     20  C   UNL     1      -4.832  13.137  22.604  0.00  0.00    +0.000 A 
ATOM     21  C   UNL     1      -4.538  13.807  21.414  0.00  0.00    +0.000 A 
ATOM     22  C   UNL     1      -3.211  14.028  21.044  0.00  0.00    +0.000 A 
ENDBRANCH  14  17
ENDBRANCH   6  14
BRANCH   4  23
ATOM     23  C   UNL     1      -1.611  10.940  17.758  0.00  0.00    +0.000 C 
ATOM     24  O   UNL     1      -1.792  10.179  16.817  0.00  0.00    +0.000 OA
BRANCH  23  25
ATOM     25  O   UNL     1      -1.866  12.260  17.667  0.00  0.00    +0.000 OA
ATOM     26  H   UNL     1      -2.522  12.596  18.331  0.00  0.00    +0.000 HD
ENDBRANCH  23  25
ENDBRANCH   4  23
BRANCH   3  27
ATOM     27  S   UNL     1       0.926   8.953  20.381  0.00  0.00    +0.000 S 
BRANCH  27  28
ATOM     28  C   UNL     1       2.029   7.738  19.563  0.00  0.00    +0.000 C 
BRANCH  28  29
ATOM     29  C   UNL     1       2.206   6.505  20.441  0.00  0.00    +0.000 C 
BRANCH  29  30
ATOM     30  C   UNL     1       1.799   5.226  19.763  0.00  0.00    +0.000 A 
ATOM     31  C   UNL     1       2.111   5.016  18.412  0.00  0.00    +0.000 A 
ATOM     32  C   UNL     1       1.816   3.796  17.805  0.00  0.00    +0.000 A 
ATOM     33  C   UNL     1       1.199   2.785  18.540  0.00  0.00    +0.000 A 
ATOM     34  C   UNL     1       0.865   2.996  19.877  0.00  0.00    +0.000 A 
ATOM     35  C   UNL     1       1.160   4.215  20.486  0.00  0.00    +0.000 A 
ENDBRANCH  29  30
ENDBRANCH  28  29
ENDBRANCH  27  28
ENDBRANCH   3  27
TORSDOF 9
ENDMDL
MODEL 4
REMARK VINA RESULT:      -7.2      1.652      2.761
REMARK  Name = 
REMARK  10 active torsions:
REMARK  status: ('A' for Active; 'I' for Inactive)
REMARK    1  A    between atoms: C_1  and  C_2
REMARK    2  A    between atoms: C_5  and  C_6
REMARK    3  A    between atoms: C_8  and  S_9
REMARK    4  A    between atoms: S_9  and  C_10
REMARK    5  A    between atoms: C_10  and  C_11
REMARK    6  A    between atoms: C_11  and  C_12
REMARK    7  A    between atoms: C_18  and  C_19
REMARK    8  A    between atoms: C_19  and  O_21
REMARK    9  A    between atoms: N_23  and  S_24
REMARK   10  A    between atoms: S_24  and  C_27
REMARK                            x       y       z     vdW  Elec       q    Type
REMARK                         _______ _______ _______ _____ _____    ______ ____
ROOT
ATOM      1  C   UNL     1       1.202  12.223  19.988  0.00  0.00    +0.000 C 
ATOM      2  C   UNL     1       1.466  11.093  18.972  0.00  0.00    +0.000 C 
ATOM      3  C   UNL     1       0.546   9.885  19.129  0.00  0.00    +0.000 C 
ATOM      4  C   UNL     1      -0.912  10.330  19.176  0.00  0.00    +0.000 C 
ATOM      5  C   UNL     1      -1.151  11.401  20.222  0.00  0.00    +0.000 C 
ATOM      6  N   UNL     1      -0.281  12.614  19.998  0.00  0.00    +0.000 NA
ENDROOT
BRANCH   1  11
ATOM      7  C   UNL     1       4.665  16.724  18.654  0.00  0.00    +0.000 C 
ATOM      8  C   UNL     1       3.790  15.557  19.000  0.00  0.00    +0.000 A 
ATOM      9  C   UNL     1       3.912  14.917  20.235  0.00  0.00    +0.000 A 
ATOM     10  C   UNL     1       3.101  13.828  20.546  0.00  0.00    +0.000 A 
ATOM     11  C   UNL     1       2.135  13.370  19.636  0.00  0.00    +0.000 A 
ATOM     12  C   UNL     1       2.025  14.008  18.392  0.00  0.00    +0.000 A 
ATOM     13  C   UNL     1       2.849  15.089  18.077  0.00  0.00    +0.000 A 
ENDBRANCH   1  11
BRANCH   6  14
ATOM     14  S   UNL     1      -0.544  13.813  21.286  0.00  0.00    +0.000 S 
ATOM     15  O   UNL     1       0.323  13.446  22.385  0.00  0.00    +0.000 OA
ATOM     16  O   UNL     1      -0.517  15.131  20.700  0.00  0.00    +0.000 OA
BRANCH  14  17
ATOM     17  C   UNL     1      -2.218  13.504  21.796  0.00  0.00    +0.000 A 
ATOM     18  C   UNL     1      -3.271  13.886  20.959  0.00  0.00    +0.000 A 
ATOM     19  C   UNL     1      -4.584  13.709  21.390  0.00  0.00    +0.000 A 
ATOM     20  C   UNL     1      -4.836  13.119  22.629  0.00  0.00    +0.000 A 
ATOM     21  C   UNL     1      -3.779  12.691  23.436  0.00  0.00    +0.000 A 
ATOM     22  C   UNL     1      -2.460  12.883  23.023  0.00  0.00    +0.000 A 
ENDBRANCH  14  17
ENDBRANCH   6  14
BRANCH   4  23
ATOM     23  C   UNL     1      -1.431  10.702  17.802  0.00  0.00    +0.000 C 
ATOM     24  O   UNL     1      -1.726   9.857  16.967  0.00  0.00    +0.000 OA
BRANCH  23  25
ATOM     25  O   UNL     1      -1.509  12.021  17.541  0.00  0.00    +0.000 OA
ATOM     26  H   UNL     1      -1.866  12.239  16.641  0.00  0.00    +0.000 HD
ENDBRANCH  23  25
ENDBRANCH   4  23
BRANCH   3  27
ATOM     27  S   UNL     1       1.029   8.955  20.659  0.00  0.00    +0.000 S 
BRANCH  27  28
ATOM     28  C   UNL     1       1.967   7.552  19.944  0.00  0.00    +0.000 C 
BRANCH  28  29
ATOM     29  C   UNL     1       1.723   6.282  20.749  0.00  0.00    +0.000 C 
BRANCH  29  30
ATOM     30  C   UNL     1       1.709   5.035  19.908  0.00  0.00    +0.000 A 
ATOM     31  C   UNL     1       1.255   3.825  20.452  0.00  0.00    +0.000 A 
ATOM     32  C   UNL     1       1.156   2.689  19.650  0.00  0.00    +0.000 A 
ATOM     33  C   UNL     1       1.519   2.753  18.305  0.00  0.00    +0.000 A 
ATOM     34  C   UNL     1       1.992   3.947  17.765  0.00  0.00    +0.000 A 
ATOM     35  C   UNL     1       2.092   5.085  18.565  0.00  0.00    +0.000 A 
ENDBRANCH  29  30
ENDBRANCH  28  29
ENDBRANCH  27  28
ENDBRANCH   3  27
TORSDOF 9
ENDMDL
MODEL 5
REMARK VINA RESULT:      -7.0      2.122      4.716
REMARK  Name = 
REMARK  10 active torsions:
REMARK  status: ('A' for Active; 'I' for Inactive)
REMARK    1  A    between atoms: C_1  and  C_2
REMARK    2  A    between atoms: C_5  and  C_6
REMARK    3  A    between atoms: C_8  and  S_9
REMARK    4  A    between atoms: S_9  and  C_10
REMARK    5  A    between atoms: C_10  and  C_11
REMARK    6  A    between atoms: C_11  and  C_12
REMARK    7  A    between atoms: C_18  and  C_19
REMARK    8  A    between atoms: C_19  and  O_21
REMARK    9  A    between atoms: N_23  and  S_24
REMARK   10  A    between atoms: S_24  and  C_27
REMARK                            x       y       z     vdW  Elec       q    Type
REMARK                         _______ _______ _______ _____ _____    ______ ____
ROOT
ATOM      1  C   UNL     1      -0.934  11.415  18.902  0.00  0.00    +0.000 C 
ATOM      2  C   UNL     1      -0.759   9.914  19.211  0.00  0.00    +0.000 C 
ATOM      3  C   UNL     1       0.649   9.529  19.658  0.00  0.00    +0.000 C 
ATOM      4  C   UNL     1       1.116  10.439  20.789  0.00  0.00    +0.000 C 
ATOM      5  C   UNL     1       0.983  11.908  20.434  0.00  0.00    +0.000 C 
ATOM      6  N   UNL     1      -0.434  12.275  20.069  0.00  0.00    +0.000 NA
ENDROOT
BRANCH   1  11
ATOM      7  C   UNL     1      -6.578  12.106  17.593  0.00  0.00    +0.000 C 
ATOM      8  C   UNL     1      -5.127  11.946  17.936  0.00  0.00    +0.000 A 
ATOM      9  C   UNL     1      -4.673  12.175  19.236  0.00  0.00    +0.000 A 
ATOM     10  C   UNL     1      -3.321  12.032  19.545  0.00  0.00    +0.000 A 
ATOM     11  C   UNL     1      -2.400  11.635  18.564  0.00  0.00    +0.000 A 
ATOM     12  C   UNL     1      -2.859  11.418  17.256  0.00  0.00    +0.000 A 
ATOM     13  C   UNL     1      -4.210  11.576  16.946  0.00  0.00    +0.000 A 
ENDBRANCH   1  11
BRANCH   6  14
ATOM     14  S   UNL     1      -0.530  13.987  19.594  0.00  0.00    +0.000 S 
ATOM     15  O   UNL     1      -0.433  14.029  18.151  0.00  0.00    +0.000 OA
ATOM     16  O   UNL     1      -1.625  14.602  20.303  0.00  0.00    +0.000 OA
BRANCH  14  17
ATOM     17  C   UNL     1       0.969  14.677  20.253  0.00  0.00    +0.000 A 
ATOM     18  C   UNL     1       2.067  14.865  19.407  0.00  0.00    +0.000 A 
ATOM     19  C   UNL     1       3.266  15.338  19.939  0.00  0.00    +0.000 A 
ATOM     20  C   UNL     1       3.346  15.657  21.295  0.00  0.00    +0.000 A 
ATOM     21  C   UNL     1       2.229  15.518  22.122  0.00  0.00    +0.000 A 
ATOM     22  C   UNL     1       1.031  15.024  21.604  0.00  0.00    +0.000 A 
ENDBRANCH  14  17
ENDBRANCH   6  14
BRANCH   4  23
ATOM     23  C   UNL     1       0.465  10.076  22.108  0.00  0.00    +0.000 C 
ATOM     24  O   UNL     1       0.427   8.924  22.519  0.00  0.00    +0.000 OA
BRANCH  23  25
ATOM     25  O   UNL     1      -0.106  11.094  22.781  0.00  0.00    +0.000 OA
ATOM     26  H   UNL     1       0.160  11.152  23.735  0.00  0.00    +0.000 HD
ENDBRANCH  23  25
ENDBRANCH   4  23
BRANCH   3  27
ATOM     27  S   UNL     1       1.788   9.612  18.196  0.00  0.00    +0.000 S 
BRANCH  27  28
ATOM     28  C   UNL     1       2.300   7.858  18.041  0.00  0.00    +0.000 C 
BRANCH  28  29
ATOM     29  C   UNL     1       2.367   7.201  19.414  0.00  0.00    +0.000 C 
BRANCH  29  30
ATOM     30  C   UNL     1       1.992   5.745  19.397  0.00  0.00    +0.000 A 
ATOM     31  C   UNL     1       1.607   5.104  20.583  0.00  0.00    +0.000 A 
ATOM     32  C   UNL     1       1.171   3.779  20.556  0.00  0.00    +0.000 A 
ATOM     33  C   UNL     1       1.129   3.086  19.347  0.00  0.00    +0.000 A 
ATOM     34  C   UNL     1       1.532   3.710  18.169  0.00  0.00    +0.000 A 
ATOM     35  C   UNL     1       1.968   5.035  18.193  0.00  0.00    +0.000 A 
ENDBRANCH  29  30
ENDBRANCH  28  29
ENDBRANCH  27  28
ENDBRANCH   3  27
TORSDOF 9
ENDMDL
MODEL 6
REMARK VINA RESULT:      -7.0      2.682      7.834
REMARK  Name = 
REMARK  10 active torsions:
REMARK  status: ('A' for Active; 'I' for Inactive)
REMARK    1  A    between atoms: C_1  and  C_2
REMARK    2  A    between atoms: C_5  and  C_6
REMARK    3  A    between atoms: C_8  and  S_9
REMARK    4  A    between atoms: S_9  and  C_10
REMARK    5  A    between atoms: C_10  and  C_11
REMARK    6  A    between atoms: C_11  and  C_12
REMARK    7  A    between atoms: C_18  and  C_19
REMARK    8  A    between atoms: C_19  and  O_21
REMARK    9  A    between atoms: N_23  and  S_24
REMARK   10  A    between atoms: S_24  and  C_27
REMARK                            x       y       z     vdW  Elec       q    Type
REMARK                         _______ _______ _______ _____ _____    ______ ____
ROOT
ATOM      1  C   UNL     1      -0.381  13.086  19.905  0.00  0.00    +0.000 C 
ATOM      2  C   UNL     1      -0.062  14.442  19.244  0.00  0.00    +0.000 C 
ATOM      3  C   UNL     1       1.261  15.058  19.692  0.00  0.00    +0.000 C 
ATOM      4  C   UNL     1       2.391  14.042  19.569  0.00  0.00    +0.000 C 
ATOM      5  C   UNL     1       2.070  12.739  20.275  0.00  0.00    +0.000 C 
ATOM      6  N   UNL     1       0.797  12.115  19.759  0.00  0.00    +0.000 NA
ENDROOT
BRANCH   1  11
ATOM      7  C   UNL     1      -5.295  10.993  17.556  0.00  0.00    +0.000 C 
ATOM      8  C   UNL     1      -4.040  11.547  18.161  0.00  0.00    +0.000 A 
ATOM      9  C   UNL     1      -4.070  12.187  19.402  0.00  0.00    +0.000 A 
ATOM     10  C   UNL     1      -2.901  12.707  19.954  0.00  0.00    +0.000 A 
ATOM     11  C   UNL     1      -1.673  12.578  19.285  0.00  0.00    +0.000 A 
ATOM     12  C   UNL     1      -1.651  11.946  18.033  0.00  0.00    +0.000 A 
ATOM     13  C   UNL     1      -2.825  11.439  17.476  0.00  0.00    +0.000 A 
ENDBRANCH   1  11
BRANCH   6  14
ATOM     14  S   UNL     1       0.423  10.628  20.663  0.00  0.00    +0.000 S 
ATOM     15  O   UNL     1       1.108  10.725  21.933  0.00  0.00    +0.000 OA
ATOM     16  O   UNL     1      -0.996  10.383  20.578  0.00  0.00    +0.000 OA
BRANCH  14  17
ATOM     17  C   UNL     1       1.228   9.360  19.713  0.00  0.00    +0.000 A 
ATOM     18  C   UNL     1       1.608   8.170  20.341  0.00  0.00    +0.000 A 
ATOM     19  C   UNL     1       2.304   7.206  19.613  0.00  0.00    +0.000 A 
ATOM     20  C   UNL     1       2.578   7.419  18.262  0.00  0.00    +0.000 A 
ATOM     21  C   UNL     1       2.148   8.588  17.629  0.00  0.00    +0.000 A 
ATOM     22  C   UNL     1       1.471   9.568  18.353  0.00  0.00    +0.000 A 
ENDBRANCH  14  17
ENDBRANCH   6  14
BRANCH   4  23
ATOM     23  C   UNL     1       2.824  13.856  18.129  0.00  0.00    +0.000 C 
ATOM     24  O   UNL     1       3.364  14.751  17.491  0.00  0.00    +0.000 OA
BRANCH  23  25
ATOM     25  O   UNL     1       2.542  12.659  17.580  0.00  0.00    +0.000 OA
ATOM     26  H   UNL     1       3.254  11.978  17.696  0.00  0.00    +0.000 HD
ENDBRANCH  23  25
ENDBRANCH   4  23
BRANCH   3  27
ATOM     27  S   UNL     1       1.078  15.673  21.434  0.00  0.00    +0.000 S 
BRANCH  27  28
ATOM     28  C   UNL     1      -0.704  16.096  21.479  0.00  0.00    +0.000 C 
BRANCH  28  29
ATOM     29  C   UNL     1      -1.261  15.909  22.885  0.00  0.00    +0.000 C 
BRANCH  29  30
ATOM     30  C   UNL     1      -1.996  14.610  23.068  0.00  0.00    +0.000 A 
ATOM     31  C   UNL     1      -1.284  13.410  23.196  0.00  0.00    +0.000 A 
ATOM     32  C   UNL     1      -1.958  12.217  23.456  0.00  0.00    +0.000 A 
ATOM     33  C   UNL     1      -3.346  12.216  23.577  0.00  0.00    +0.000 A 
ATOM     34  C   UNL     1      -4.063  13.402  23.428  0.00  0.00    +0.000 A 
ATOM     35  C   UNL     1      -3.390  14.596  23.169  0.00  0.00    +0.000 A 
ENDBRANCH  29  30
ENDBRANCH  28  29
ENDBRANCH  27  28
ENDBRANCH   3  27
TORSDOF 9
ENDMDL
MODEL 7
REMARK VINA RESULT:      -7.0      1.903      3.011
REMARK  Name = 
REMARK  10 active torsions:
REMARK  status: ('A' for Active; 'I' for Inactive)
REMARK    1  A    between atoms: C_1  and  C_2
REMARK    2  A    between atoms: C_5  and  C_6
REMARK    3  A    between atoms: C_8  and  S_9
REMARK    4  A    between atoms: S_9  and  C_10
REMARK    5  A    between atoms: C_10  and  C_11
REMARK    6  A    between atoms: C_11  and  C_12
REMARK    7  A    between atoms: C_18  and  C_19
REMARK    8  A    between atoms: C_19  and  O_21
REMARK    9  A    between atoms: N_23  and  S_24
REMARK   10  A    between atoms: S_24  and  C_27
REMARK                            x       y       z     vdW  Elec       q    Type
REMARK                         _______ _______ _______ _____ _____    ______ ____
ROOT
ATOM      1  C   UNL     1       1.251  12.189  20.031  0.00  0.00    +0.000 C 
ATOM      2  C   UNL     1       1.531  11.046  19.034  0.00  0.00    +0.000 C 
ATOM      3  C   UNL     1       0.623   9.831  19.206  0.00  0.00    +0.000 C 
ATOM      4  C   UNL     1      -0.840  10.260  19.241  0.00  0.00    +0.000 C 
ATOM      5  C   UNL     1      -1.094  11.346  20.269  0.00  0.00    +0.000 C 
ATOM      6  N   UNL     1      -0.237  12.564  20.029  0.00  0.00    +0.000 NA
ENDROOT
BRANCH   1  11
ATOM      7  C   UNL     1       4.670  16.705  18.635  0.00  0.00    +0.000 C 
ATOM      8  C   UNL     1       3.806  15.535  18.998  0.00  0.00    +0.000 A 
ATOM      9  C   UNL     1       3.919  14.927  20.250  0.00  0.00    +0.000 A 
ATOM     10  C   UNL     1       3.119  13.834  20.576  0.00  0.00    +0.000 A 
ATOM     11  C   UNL     1       2.172  13.340  19.664  0.00  0.00    +0.000 A 
ATOM     12  C   UNL     1       2.072  13.946  18.404  0.00  0.00    +0.000 A 
ATOM     13  C   UNL     1       2.885  15.031  18.073  0.00  0.00    +0.000 A 
ENDBRANCH   1  11
BRANCH   6  14
ATOM     14  S   UNL     1      -0.517  13.781  21.297  0.00  0.00    +0.000 S 
ATOM     15  O   UNL     1       0.300  13.404  22.430  0.00  0.00    +0.000 OA
ATOM     16  O   UNL     1      -0.437  15.092  20.702  0.00  0.00    +0.000 OA
BRANCH  14  17
ATOM     17  C   UNL     1      -2.215  13.515  21.749  0.00  0.00    +0.000 A 
ATOM     18  C   UNL     1      -2.512  12.909  22.973  0.00  0.00    +0.000 A 
ATOM     19  C   UNL     1      -3.841  12.636  23.295  0.00  0.00    +0.000 A 
ATOM     20  C   UNL     1      -4.859  13.004  22.415  0.00  0.00    +0.000 A 
ATOM     21  C   UNL     1      -4.557  13.658  21.218  0.00  0.00    +0.000 A 
ATOM     22  C   UNL     1      -3.229  13.916  20.876  0.00  0.00    +0.000 A 
ENDBRANCH  14  17
ENDBRANCH   6  14
BRANCH   4  23
ATOM     23  C   UNL     1      -1.357  10.605  17.860  0.00  0.00    +0.000 C 
ATOM     24  O   UNL     1      -1.660   9.744  17.045  0.00  0.00    +0.000 OA
BRANCH  23  25
ATOM     25  O   UNL     1      -1.425  11.919  17.568  0.00  0.00    +0.000 OA
ATOM     26  H   UNL     1      -2.244  12.369  17.900  0.00  0.00    +0.000 HD
ENDBRANCH  23  25
ENDBRANCH   4  23
BRANCH   3  27
ATOM     27  S   UNL     1       1.111   8.930  20.753  0.00  0.00    +0.000 S 
BRANCH  27  28
ATOM     28  C   UNL     1       1.878   7.417  20.059  0.00  0.00    +0.000 C 
BRANCH  28  29
ATOM     29  C   UNL     1       2.400   7.682  18.652  0.00  0.00    +0.000 C 
BRANCH  29  30
ATOM     30  C   UNL     1       3.098   6.498  18.042  0.00  0.00    +0.000 A 
ATOM     31  C   UNL     1       2.561   5.212  18.190  0.00  0.00    +0.000 A 
ATOM     32  C   UNL     1       3.155   4.125  17.550  0.00  0.00    +0.000 A 
ATOM     33  C   UNL     1       4.293   4.316  16.769  0.00  0.00    +0.000 A 
ATOM     34  C   UNL     1       4.846   5.588  16.636  0.00  0.00    +0.000 A 
ATOM     35  C   UNL     1       4.253   6.677  17.275  0.00  0.00    +0.000 A 
ENDBRANCH  29  30
ENDBRANCH  28  29
ENDBRANCH  27  28
ENDBRANCH   3  27
TORSDOF 9
ENDMDL
MODEL 8
REMARK VINA RESULT:      -6.9      1.978      3.034
REMARK  Name = 
REMARK  10 active torsions:
REMARK  status: ('A' for Active; 'I' for Inactive)
REMARK    1  A    between atoms: C_1  and  C_2
REMARK    2  A    between atoms: C_5  and  C_6
REMARK    3  A    between atoms: C_8  and  S_9
REMARK    4  A    between atoms: S_9  and  C_10
REMARK    5  A    between atoms: C_10  and  C_11
REMARK    6  A    between atoms: C_11  and  C_12
REMARK    7  A    between atoms: C_18  and  C_19
REMARK    8  A    between atoms: C_19  and  O_21
REMARK    9  A    between atoms: N_23  and  S_24
REMARK   10  A    between atoms: S_24  and  C_27
REMARK                            x       y       z     vdW  Elec       q    Type
REMARK                         _______ _______ _______ _____ _____    ______ ____
ROOT
ATOM      1  C   UNL     1       1.144  12.410  20.088  0.00  0.00    +0.000 C 
ATOM      2  C   UNL     1       1.402  11.274  19.077  0.00  0.00    +0.000 C 
ATOM      3  C   UNL     1       0.481  10.069  19.244  0.00  0.00    +0.000 C 
ATOM      4  C   UNL     1      -0.977  10.515  19.295  0.00  0.00    +0.000 C 
ATOM      5  C   UNL     1      -1.209  11.593  20.337  0.00  0.00    +0.000 C 
ATOM      6  N   UNL     1      -0.339  12.803  20.102  0.00  0.00    +0.000 NA
ENDROOT
BRANCH   1  11
ATOM      7  C   UNL     1       4.836  16.698  18.669  0.00  0.00    +0.000 C 
ATOM      8  C   UNL     1       3.873  15.608  19.031  0.00  0.00    +0.000 A 
ATOM      9  C   UNL     1       2.840  15.253  18.162  0.00  0.00    +0.000 A 
ATOM     10  C   UNL     1       1.943  14.244  18.510  0.00  0.00    +0.000 A 
ATOM     11  C   UNL     1       2.077  13.554  19.726  0.00  0.00    +0.000 A 
ATOM     12  C   UNL     1       3.109  13.923  20.600  0.00  0.00    +0.000 A 
ATOM     13  C   UNL     1       3.996  14.943  20.257  0.00  0.00    +0.000 A 
ENDBRANCH   1  11
BRANCH   6  14
ATOM     14  S   UNL     1      -0.594  14.010  21.385  0.00  0.00    +0.000 S 
ATOM     15  O   UNL     1       0.302  13.667  22.469  0.00  0.00    +0.000 OA
ATOM     16  O   UNL     1      -0.601  15.322  20.787  0.00  0.00    +0.000 OA
BRANCH  14  17
ATOM     17  C   UNL     1      -2.251  13.678  21.933  0.00  0.00    +0.000 A 
ATOM     18  C   UNL     1      -2.451  12.995  23.137  0.00  0.00    +0.000 A 
ATOM     19  C   UNL     1      -3.749  12.671  23.531  0.00  0.00    +0.000 A 
ATOM     20  C   UNL     1      -4.832  13.064  22.745  0.00  0.00    +0.000 A 
ATOM     21  C   UNL     1      -4.627  13.793  21.571  0.00  0.00    +0.000 A 
ATOM     22  C   UNL     1      -3.331  14.103  21.157  0.00  0.00    +0.000 A 
ENDBRANCH  14  17
ENDBRANCH   6  14
BRANCH   4  23
ATOM     23  C   UNL     1      -1.501  10.881  17.922  0.00  0.00    +0.000 C 
ATOM     24  O   UNL     1      -1.623  10.052  17.030  0.00  0.00    +0.000 OA
BRANCH  23  25
ATOM     25  O   UNL     1      -1.787  12.184  17.729  0.00  0.00    +0.000 OA
ATOM     26  H   UNL     1      -2.741  12.367  17.529  0.00  0.00    +0.000 HD
ENDBRANCH  23  25
ENDBRANCH   4  23
BRANCH   3  27
ATOM     27  S   UNL     1       0.970   9.146  20.777  0.00  0.00    +0.000 S 
BRANCH  27  28
ATOM     28  C   UNL     1       1.781   7.667  20.061  0.00  0.00    +0.000 C 
BRANCH  28  29
ATOM     29  C   UNL     1       2.245   7.951  18.637  0.00  0.00    +0.000 C 
BRANCH  29  30
ATOM     30  C   UNL     1       2.955   6.790  17.998  0.00  0.00    +0.000 A 
ATOM     31  C   UNL     1       4.169   6.991  17.326  0.00  0.00    +0.000 A 
ATOM     32  C   UNL     1       4.875   5.904  16.811  0.00  0.00    +0.000 A 
ATOM     33  C   UNL     1       4.366   4.614  16.955  0.00  0.00    +0.000 A 
ATOM     34  C   UNL     1       3.149   4.410  17.600  0.00  0.00    +0.000 A 
ATOM     35  C   UNL     1       2.441   5.495  18.117  0.00  0.00    +0.000 A 
ENDBRANCH  29  30
ENDBRANCH  28  29
ENDBRANCH  27  28
ENDBRANCH   3  27
TORSDOF 9
ENDMDL
MODEL 9
REMARK VINA RESULT:      -6.9      2.096      4.608
REMARK  Name = 
REMARK  10 active torsions:
REMARK  status: ('A' for Active; 'I' for Inactive)
REMARK    1  A    between atoms: C_1  and  C_2
REMARK    2  A    between atoms: C_5  and  C_6
REMARK    3  A    between atoms: C_8  and  S_9
REMARK    4  A    between atoms: S_9  and  C_10
REMARK    5  A    between atoms: C_10  and  C_11
REMARK    6  A    between atoms: C_11  and  C_12
REMARK    7  A    between atoms: C_18  and  C_19
REMARK    8  A    between atoms: C_19  and  O_21
REMARK    9  A    between atoms: N_23  and  S_24
REMARK   10  A    between atoms: S_24  and  C_27
REMARK                            x       y       z     vdW  Elec       q    Type
REMARK                         _______ _______ _______ _____ _____    ______ ____
ROOT
ATOM      1  C   UNL     1      -0.877  11.230  18.779  0.00  0.00    +0.000 C 
ATOM      2  C   UNL     1      -0.716   9.742  19.152  0.00  0.00    +0.000 C 
ATOM      3  C   UNL     1       0.688   9.365  19.620  0.00  0.00    +0.000 C 
ATOM      4  C   UNL     1       1.159  10.319  20.713  0.00  0.00    +0.000 C 
ATOM      5  C   UNL     1       1.039  11.772  20.296  0.00  0.00    +0.000 C 
ATOM      6  N   UNL     1      -0.374  12.135  19.911  0.00  0.00    +0.000 NA
ENDROOT
BRANCH   1  11
ATOM      7  C   UNL     1      -6.468  12.215  17.432  0.00  0.00    +0.000 C 
ATOM      8  C   UNL     1      -5.033  11.945  17.772  0.00  0.00    +0.000 A 
ATOM      9  C   UNL     1      -4.140  11.502  16.793  0.00  0.00    +0.000 A 
ATOM     10  C   UNL     1      -2.810  11.244  17.119  0.00  0.00    +0.000 A 
ATOM     11  C   UNL     1      -2.339  11.447  18.426  0.00  0.00    +0.000 A 
ATOM     12  C   UNL     1      -3.242  11.880  19.408  0.00  0.00    +0.000 A 
ATOM     13  C   UNL     1      -4.577  12.123  19.083  0.00  0.00    +0.000 A 
ENDBRANCH   1  11
BRANCH   6  14
ATOM     14  S   UNL     1      -0.454  13.826  19.363  0.00  0.00    +0.000 S 
ATOM     15  O   UNL     1      -0.416  13.802  17.917  0.00  0.00    +0.000 OA
ATOM     16  O   UNL     1      -1.506  14.496  20.088  0.00  0.00    +0.000 OA
BRANCH  14  17
ATOM     17  C   UNL     1       1.085  14.511  19.928  0.00  0.00    +0.000 A 
ATOM     18  C   UNL     1       1.223  14.869  21.273  0.00  0.00    +0.000 A 
ATOM     19  C   UNL     1       2.404  15.473  21.701  0.00  0.00    +0.000 A 
ATOM     20  C   UNL     1       3.448  15.675  20.798  0.00  0.00    +0.000 A 
ATOM     21  C   UNL     1       3.323  15.265  19.469  0.00  0.00    +0.000 A 
ATOM     22  C   UNL     1       2.136  14.681  19.025  0.00  0.00    +0.000 A 
ENDBRANCH  14  17
ENDBRANCH   6  14
BRANCH   4  23
ATOM     23  C   UNL     1       0.500  10.018  22.044  0.00  0.00    +0.000 C 
ATOM     24  O   UNL     1       0.431   8.881  22.493  0.00  0.00    +0.000 OA
BRANCH  23  25
ATOM     25  O   UNL     1      -0.042  11.072  22.684  0.00  0.00    +0.000 OA
ATOM     26  H   UNL     1       0.588  11.557  23.277  0.00  0.00    +0.000 HD
ENDBRANCH  23  25
ENDBRANCH   4  23
BRANCH   3  27
ATOM     27  S   UNL     1       1.833   9.377  18.160  0.00  0.00    +0.000 S 
BRANCH  27  28
ATOM     28  C   UNL     1       2.574   7.704  18.274  0.00  0.00    +0.000 C 
BRANCH  28  29
ATOM     29  C   UNL     1       2.208   7.049  19.600  0.00  0.00    +0.000 C 
BRANCH  29  30
ATOM     30  C   UNL     1       1.891   5.585  19.474  0.00  0.00    +0.000 A 
ATOM     31  C   UNL     1       1.465   4.858  20.595  0.00  0.00    +0.000 A 
ATOM     32  C   UNL     1       1.083   3.523  20.463  0.00  0.00    +0.000 A 
ATOM     33  C   UNL     1       1.135   2.906  19.215  0.00  0.00    +0.000 A 
ATOM     34  C   UNL     1       1.580   3.616  18.101  0.00  0.00    +0.000 A 
ATOM     35  C   UNL     1       1.961   4.951  18.231  0.00  0.00    +0.000 A 
ENDBRANCH  29  30
ENDBRANCH  28  29
ENDBRANCH  27  28
ENDBRANCH   3  27
TORSDOF 9
ENDMDL
