MODEL 1
REMARK VINA RESULT:      -8.7      0.000      0.000
REMARK  Name = 
REMARK  9 active torsions:
REMARK  status: ('A' for Active; 'I' for Inactive)
REMARK    1  A    between atoms: C_1  and  O_2
REMARK    2  A    between atoms: O_2  and  C_3
REMARK    3  A    between atoms: C_6  and  C_7
REMARK    4  A    between atoms: N_9  and  C_10
REMARK    5  A    between atoms: C_13  and  C_14
REMARK    6  A    between atoms: C_14  and  C_16
REMARK    7  A    between atoms: C_19  and  C_20
REMARK    8  A    between atoms: C_20  and  C_21
REMARK    9  A    between atoms: C_21  and  O_23
REMARK                            x       y       z     vdW  Elec       q    Type
REMARK                         _______ _______ _______ _____ _____    ______ ____
ROOT
ATOM      1  C   UNL     1       8.679  10.194  18.314  0.00  0.00    +0.000 A 
ATOM      2  C   UNL     1       9.183   9.366  19.305  0.00  0.00    +0.000 A 
ATOM      3  C   UNL     1       8.770   7.869  19.358  0.00  0.00    +0.000 A 
ATOM      4  C   UNL     1       7.764   7.105  18.467  0.00  0.00    +0.000 A 
ATOM      5  C   UNL     1       7.521   7.993  17.421  0.00  0.00    +0.000 A 
ATOM      6  C   UNL     1       7.917   9.462  17.383  0.00  0.00    +0.000 A 
ENDROOT
BRANCH   1   9
ATOM      7  C   UNL     1      10.283  12.157  18.068  0.00  0.00    +0.000 C 
ATOM      8  O   UNL     1      11.292  11.458  18.154  0.00  0.00    +0.000 OA
ATOM      9  N   UNL     1       8.966  11.627  18.134  0.00  0.00    +0.000 N 
ATOM     10  H   UNL     1       8.193  12.263  17.961  0.00  0.00    +0.000 HD
BRANCH   7  14
ATOM     11  C   UNL     1      11.259  16.370  17.472  0.00  0.00    +0.000 A 
ATOM     12  C   UNL     1      11.987  15.365  16.839  0.00  0.00    +0.000 A 
ATOM     13  C   UNL     1      11.600  14.020  16.986  0.00  0.00    +0.000 A 
ATOM     14  C   UNL     1      10.547  13.636  17.856  0.00  0.00    +0.000 A 
ATOM     15  C   UNL     1       9.847  14.655  18.495  0.00  0.00    +0.000 A 
ATOM     16  C   UNL     1      10.200  16.004  18.301  0.00  0.00    +0.000 A 
BRANCH  11  18
ATOM     17  C   UNL     1      10.543  18.630  17.329  0.00  0.00    +0.000 C 
ATOM     18  O   UNL     1      11.571  17.660  17.140  0.00  0.00    +0.000 OA
ENDBRANCH  11  18
ENDBRANCH   7  14
ENDBRANCH   1   9
BRANCH   4  19
ATOM     19  C   UNL     1       7.093   5.423  18.742  0.00  0.00    +0.000 C 
ATOM     20  O   UNL     1       7.966   4.896  18.014  0.00  0.00    +0.000 OA
BRANCH  19  21
ATOM     21  C   UNL     1       5.387   4.567  19.049  0.00  0.00    +0.000 A 
ATOM     22  N   UNL     1       4.998   5.738  18.541  0.00  0.00    +0.000 NA
ATOM     23  C   UNL     1       3.740   5.785  18.279  0.00  0.00    +0.000 A 
ATOM     24  C   UNL     1       3.218   4.707  17.666  0.00  0.00    +0.000 A 
ATOM     25  C   UNL     1       2.909   4.022  18.798  0.00  0.00    +0.000 A 
ATOM     26  C   UNL     1       1.983   4.208  20.022  0.00  0.00    +0.000 A 
ATOM     27  C   UNL     1       1.164   3.195  20.513  0.00  0.00    +0.000 A 
ATOM     28  C   UNL     1       1.287   2.118  19.726  0.00  0.00    +0.000 A 
ATOM     29  C   UNL     1       2.664   2.117  19.002  0.00  0.00    +0.000 A 
ATOM     30  C   UNL     1       3.986   3.324  19.029  0.00  0.00    +0.000 A 
BRANCH  24  31
ATOM     31  C   UNL     1       3.830   3.817  16.382  0.00  0.00    +0.000 C 
BRANCH  31  32
ATOM     32  C   UNL     1       5.115   4.191  15.699  0.00  0.00    +0.000 C 
ATOM     33  O   UNL     1       5.365   5.227  15.146  0.00  0.00    +0.000 OA
BRANCH  32  34
ATOM     34  O   UNL     1       6.248   3.440  15.888  0.00  0.00    +0.000 OA
ATOM     35  H   UNL     1       6.177   2.483  15.988  0.00  0.00    +0.000 HD
ENDBRANCH  32  34
ENDBRANCH  31  32
ENDBRANCH  24  31
ENDBRANCH  19  21
ENDBRANCH   4  19
TORSDOF 8
ENDMDL
MODEL 2
REMARK VINA RESULT:      -8.5      7.689     11.151
REMARK  Name = 
REMARK  9 active torsions:
REMARK  status: ('A' for Active; 'I' for Inactive)
REMARK    1  A    between atoms: C_1  and  O_2
REMARK    2  A    between atoms: O_2  and  C_3
REMARK    3  A    between atoms: C_6  and  C_7
REMARK    4  A    between atoms: N_9  and  C_10
REMARK    5  A    between atoms: C_13  and  C_14
REMARK    6  A    between atoms: C_14  and  C_16
REMARK    7  A    between atoms: C_19  and  C_20
REMARK    8  A    between atoms: C_20  and  C_21
REMARK    9  A    between atoms: C_21  and  O_23
REMARK                            x       y       z     vdW  Elec       q    Type
REMARK                         _______ _______ _______ _____ _____    ______ ____
ROOT
ATOM      1  C   UNL     1       2.248   7.811  19.013  0.00  0.00    +0.000 A 
ATOM      2  C   UNL     1       1.991   7.192  20.226  0.00  0.00    +0.000 A 
ATOM      3  C   UNL     1       1.149   7.918  21.312  0.00  0.00    +0.000 A 
ATOM      4  C   UNL     1       0.564   9.349  21.294  0.00  0.00    +0.000 A 
ATOM      5  C   UNL     1       0.717   9.743  19.967  0.00  0.00    +0.000 A 
ATOM      6  C   UNL     1       1.554   9.032  18.913  0.00  0.00    +0.000 A 
ENDROOT
BRANCH   1   9
ATOM      7  C   UNL     1       3.808   6.077  17.991  0.00  0.00    +0.000 C 
ATOM      8  O   UNL     1       3.891   5.413  19.023  0.00  0.00    +0.000 OA
ATOM      9  N   UNL     1       3.029   7.262  17.892  0.00  0.00    +0.000 N 
ATOM     10  H   UNL     1       2.944   7.696  16.978  0.00  0.00    +0.000 HD
BRANCH   7  14
ATOM     11  C   UNL     1       6.132   4.335  14.732  0.00  0.00    +0.000 A 
ATOM     12  C   UNL     1       5.534   3.532  15.700  0.00  0.00    +0.000 A 
ATOM     13  C   UNL     1       4.725   4.115  16.693  0.00  0.00    +0.000 A 
ATOM     14  C   UNL     1       4.583   5.522  16.810  0.00  0.00    +0.000 A 
ATOM     15  C   UNL     1       5.207   6.306  15.844  0.00  0.00    +0.000 A 
ATOM     16  C   UNL     1       5.968   5.717  14.818  0.00  0.00    +0.000 A 
BRANCH  11  18
ATOM     17  C   UNL     1       5.941   3.415  12.550  0.00  0.00    +0.000 C 
ATOM     18  O   UNL     1       6.748   3.692  13.693  0.00  0.00    +0.000 OA
ENDBRANCH  11  18
ENDBRANCH   7  14
ENDBRANCH   1   9
BRANCH   4  19
ATOM     19  C   UNL     1      -0.170  10.265  22.701  0.00  0.00    +0.000 C 
ATOM     20  O   UNL     1      -0.055   9.283  23.471  0.00  0.00    +0.000 OA
BRANCH  19  21
ATOM     21  C   UNL     1      -1.493  11.640  23.012  0.00  0.00    +0.000 A 
ATOM     22  N   UNL     1      -0.518  12.348  22.440  0.00  0.00    +0.000 NA
ATOM     23  C   UNL     1      -0.868  13.550  22.149  0.00  0.00    +0.000 A 
ATOM     24  C   UNL     1      -2.078  13.698  21.578  0.00  0.00    +0.000 A 
ATOM     25  C   UNL     1      -2.779  13.824  22.736  0.00  0.00    +0.000 A 
ATOM     26  C   UNL     1      -2.835  14.805  23.929  0.00  0.00    +0.000 A 
ATOM     27  C   UNL     1      -4.030  15.294  24.452  0.00  0.00    +0.000 A 
ATOM     28  C   UNL     1      -5.048  14.821  23.720  0.00  0.00    +0.000 A 
ATOM     29  C   UNL     1      -4.658  13.484  23.027  0.00  0.00    +0.000 A 
ATOM     30  C   UNL     1      -3.105  12.594  23.023  0.00  0.00    +0.000 A 
BRANCH  24  31
ATOM     31  C   UNL     1      -2.788  12.799  20.352  0.00  0.00    +0.000 C 
BRANCH  31  32
ATOM     32  C   UNL     1      -2.002  12.313  19.168  0.00  0.00    +0.000 C 
ATOM     33  O   UNL     1      -0.977  12.771  18.743  0.00  0.00    +0.000 OA
BRANCH  32  34
ATOM     34  O   UNL     1      -2.272  11.089  18.609  0.00  0.00    +0.000 OA
ATOM     35  H   UNL     1      -1.712  10.752  17.899  0.00  0.00    +0.000 HD
ENDBRANCH  32  34
ENDBRANCH  31  32
ENDBRANCH  24  31
ENDBRANCH  19  21
ENDBRANCH   4  19
TORSDOF 8
ENDMDL
MODEL 3
REMARK VINA RESULT:      -8.5      7.529     11.084
REMARK  Name = 
REMARK  9 active torsions:
REMARK  status: ('A' for Active; 'I' for Inactive)
REMARK    1  A    between atoms: C_1  and  O_2
REMARK    2  A    between atoms: O_2  and  C_3
REMARK    3  A    between atoms: C_6  and  C_7
REMARK    4  A    between atoms: N_9  and  C_10
REMARK    5  A    between atoms: C_13  and  C_14
REMARK    6  A    between atoms: C_14  and  C_16
REMARK    7  A    between atoms: C_19  and  C_20
REMARK    8  A    between atoms: C_20  and  C_21
REMARK    9  A    between atoms: C_21  and  O_23
REMARK                            x       y       z     vdW  Elec       q    Type
REMARK                         _______ _______ _______ _____ _____    ______ ____
ROOT
ATOM      1  C   UNL     1       2.243   7.826  18.723  0.00  0.00    +0.000 A 
ATOM      2  C   UNL     1       1.618   9.060  18.629  0.00  0.00    +0.000 A 
ATOM      3  C   UNL     1       0.877   9.657  19.857  0.00  0.00    +0.000 A 
ATOM      4  C   UNL     1       0.641   9.029  21.250  0.00  0.00    +0.000 A 
ATOM      5  C   UNL     1       1.489   7.924  21.254  0.00  0.00    +0.000 A 
ATOM      6  C   UNL     1       2.202   7.339  20.043  0.00  0.00    +0.000 A 
ENDROOT
BRANCH   1   9
ATOM      7  C   UNL     1       3.996   6.169  17.905  0.00  0.00    +0.000 C 
ATOM      8  O   UNL     1       4.348   5.844  19.039  0.00  0.00    +0.000 OA
ATOM      9  N   UNL     1       2.977   7.127  17.655  0.00  0.00    +0.000 N 
ATOM     10  H   UNL     1       2.687   7.266  16.691  0.00  0.00    +0.000 HD
BRANCH   7  14
ATOM     11  C   UNL     1       5.961   4.217  14.531  0.00  0.00    +0.000 A 
ATOM     12  C   UNL     1       5.776   5.597  14.557  0.00  0.00    +0.000 A 
ATOM     13  C   UNL     1       5.212   6.208  15.692  0.00  0.00    +0.000 A 
ATOM     14  C   UNL     1       4.717   5.446  16.782  0.00  0.00    +0.000 A 
ATOM     15  C   UNL     1       4.893   4.066  16.726  0.00  0.00    +0.000 A 
ATOM     16  C   UNL     1       5.510   3.464  15.614  0.00  0.00    +0.000 A 
BRANCH  11  18
ATOM     17  C   UNL     1       5.936   3.313  12.334  0.00  0.00    +0.000 C 
ATOM     18  O   UNL     1       6.681   3.711  13.483  0.00  0.00    +0.000 OA
ENDBRANCH  11  18
ENDBRANCH   7  14
ENDBRANCH   1   9
BRANCH   4  19
ATOM     19  C   UNL     1      -0.479   9.639  22.566  0.00  0.00    +0.000 C 
ATOM     20  O   UNL     1      -0.978   8.504  22.744  0.00  0.00    +0.000 OA
BRANCH  19  21
ATOM     21  C   UNL     1      -1.449  11.248  23.023  0.00  0.00    +0.000 A 
ATOM     22  N   UNL     1      -0.371  11.760  22.426  0.00  0.00    +0.000 NA
ATOM     23  C   UNL     1      -0.461  13.025  22.214  0.00  0.00    +0.000 A 
ATOM     24  C   UNL     1      -1.635  13.466  21.726  0.00  0.00    +0.000 A 
ATOM     25  C   UNL     1      -2.233  13.673  22.930  0.00  0.00    +0.000 A 
ATOM     26  C   UNL     1      -2.012  14.569  24.169  0.00  0.00    +0.000 A 
ATOM     27  C   UNL     1      -3.041  15.274  24.787  0.00  0.00    +0.000 A 
ATOM     28  C   UNL     1      -4.174  15.080  24.098  0.00  0.00    +0.000 A 
ATOM     29  C   UNL     1      -4.123  13.733  23.319  0.00  0.00    +0.000 A 
ATOM     30  C   UNL     1      -2.807  12.529  23.178  0.00  0.00    +0.000 A 
BRANCH  24  31
ATOM     31  C   UNL     1      -2.586  12.819  20.505  0.00  0.00    +0.000 C 
BRANCH  31  32
ATOM     32  C   UNL     1      -1.985  12.218  19.266  0.00  0.00    +0.000 C 
ATOM     33  O   UNL     1      -2.187  11.121  18.824  0.00  0.00    +0.000 OA
BRANCH  32  34
ATOM     34  O   UNL     1      -1.327  13.009  18.358  0.00  0.00    +0.000 OA
ATOM     35  H   UNL     1      -1.557  12.959  17.422  0.00  0.00    +0.000 HD
ENDBRANCH  32  34
ENDBRANCH  31  32
ENDBRANCH  24  31
ENDBRANCH  19  21
ENDBRANCH   4  19
TORSDOF 8
ENDMDL
MODEL 4
REMARK VINA RESULT:      -8.5      9.086     12.397
REMARK  Name = 
REMARK  9 active torsions:
REMARK  status: ('A' for Active; 'I' for Inactive)
REMARK    1  A    between atoms: C_1  and  O_2
REMARK    2  A    between atoms: O_2  and  C_3
REMARK    3  A    between atoms: C_6  and  C_7
REMARK    4  A    between atoms: N_9  and  C_10
REMARK    5  A    between atoms: C_13  and  C_14
REMARK    6  A    between atoms: C_14  and  C_16
REMARK    7  A    between atoms: C_19  and  C_20
REMARK    8  A    between atoms: C_20  and  C_21
REMARK    9  A    between atoms: C_21  and  O_23
REMARK                            x       y       z     vdW  Elec       q    Type
REMARK                         _______ _______ _______ _____ _____    ______ ____
ROOT
ATOM      1  C   UNL     1       1.558   8.738  19.416  0.00  0.00    +0.000 A 
ATOM      2  C   UNL     1       1.289   8.514  20.758  0.00  0.00    +0.000 A 
ATOM      3  C   UNL     1       0.298   9.438  21.520  0.00  0.00    +0.000 A 
ATOM      4  C   UNL     1      -0.439  10.700  21.017  0.00  0.00    +0.000 A 
ATOM      5  C   UNL     1      -0.239  10.662  19.639  0.00  0.00    +0.000 A 
ATOM      6  C   UNL     1       0.742   9.762  18.901  0.00  0.00    +0.000 A 
ENDROOT
BRANCH   1   9
ATOM      7  C   UNL     1       2.693   6.566  18.720  0.00  0.00    +0.000 C 
ATOM      8  O   UNL     1       2.137   5.893  19.588  0.00  0.00    +0.000 OA
ATOM      9  N   UNL     1       2.471   7.961  18.561  0.00  0.00    +0.000 N 
ATOM     10  H   UNL     1       2.901   8.418  17.762  0.00  0.00    +0.000 HD
BRANCH   7  14
ATOM     11  C   UNL     1       5.327   4.478  15.935  0.00  0.00    +0.000 A 
ATOM     12  C   UNL     1       5.345   5.866  16.040  0.00  0.00    +0.000 A 
ATOM     13  C   UNL     1       4.543   6.508  17.002  0.00  0.00    +0.000 A 
ATOM     14  C   UNL     1       3.622   5.788  17.806  0.00  0.00    +0.000 A 
ATOM     15  C   UNL     1       3.606   4.403  17.670  0.00  0.00    +0.000 A 
ATOM     16  C   UNL     1       4.451   3.760  16.747  0.00  0.00    +0.000 A 
BRANCH  11  18
ATOM     17  C   UNL     1       5.961   3.898  13.720  0.00  0.00    +0.000 C 
ATOM     18  O   UNL     1       6.263   3.909  15.114  0.00  0.00    +0.000 OA
ENDBRANCH  11  18
ENDBRANCH   7  14
ENDBRANCH   1   9
BRANCH   4  19
ATOM     19  C   UNL     1      -1.365  11.918  22.024  0.00  0.00    +0.000 C 
ATOM     20  O   UNL     1      -0.633  11.731  23.024  0.00  0.00    +0.000 OA
BRANCH  19  21
ATOM     21  C   UNL     1      -3.172  12.581  22.209  0.00  0.00    +0.000 A 
ATOM     22  N   UNL     1      -2.986  12.010  23.399  0.00  0.00    +0.000 NA
ATOM     23  C   UNL     1      -3.929  12.263  24.237  0.00  0.00    +0.000 A 
ATOM     24  C   UNL     1      -4.355  13.538  24.287  0.00  0.00    +0.000 A 
ATOM     25  C   UNL     1      -5.307  13.420  23.323  0.00  0.00    +0.000 A 
ATOM     26  C   UNL     1      -6.614  12.624  23.108  0.00  0.00    +0.000 A 
ATOM     27  C   UNL     1      -7.786  13.207  22.632  0.00  0.00    +0.000 A 
ATOM     28  C   UNL     1      -7.581  14.520  22.467  0.00  0.00    +0.000 A 
ATOM     29  C   UNL     1      -6.071  14.820  22.233  0.00  0.00    +0.000 A 
ATOM     30  C   UNL     1      -4.662  13.717  22.229  0.00  0.00    +0.000 A 
BRANCH  24  31
ATOM     31  C   UNL     1      -3.459  14.957  24.301  0.00  0.00    +0.000 C 
BRANCH  31  32
ATOM     32  C   UNL     1      -2.087  15.021  24.909  0.00  0.00    +0.000 C 
ATOM     33  O   UNL     1      -1.808  15.341  26.032  0.00  0.00    +0.000 OA
BRANCH  32  34
ATOM     34  O   UNL     1      -1.016  14.442  24.274  0.00  0.00    +0.000 OA
ATOM     35  H   UNL     1      -0.119  14.715  24.501  0.00  0.00    +0.000 HD
ENDBRANCH  32  34
ENDBRANCH  31  32
ENDBRANCH  24  31
ENDBRANCH  19  21
ENDBRANCH   4  19
TORSDOF 8
ENDMDL
MODEL 5
REMARK VINA RESULT:      -8.4      7.921     11.225
REMARK  Name = 
REMARK  9 active torsions:
REMARK  status: ('A' for Active; 'I' for Inactive)
REMARK    1  A    between atoms: C_1  and  O_2
REMARK    2  A    between atoms: O_2  and  C_3
REMARK    3  A    between atoms: C_6  and  C_7
REMARK    4  A    between atoms: N_9  and  C_10
REMARK    5  A    between atoms: C_13  and  C_14
REMARK    6  A    between atoms: C_14  and  C_16
REMARK    7  A    between atoms: C_19  and  C_20
REMARK    8  A    between atoms: C_20  and  C_21
REMARK    9  A    between atoms: C_21  and  O_23
REMARK                            x       y       z     vdW  Elec       q    Type
REMARK                         _______ _______ _______ _____ _____    ______ ____
ROOT
ATOM      1  C   UNL     1       2.088   7.988  19.214  0.00  0.00    +0.000 A 
ATOM      2  C   UNL     1       1.819   7.494  20.481  0.00  0.00    +0.000 A 
ATOM      3  C   UNL     1       0.958   8.322  21.476  0.00  0.00    +0.000 A 
ATOM      4  C   UNL     1       0.365   9.739  21.303  0.00  0.00    +0.000 A 
ATOM      5  C   UNL     1       0.533   9.996  19.945  0.00  0.00    +0.000 A 
ATOM      6  C   UNL     1       1.388   9.187  18.980  0.00  0.00    +0.000 A 
ENDROOT
BRANCH   1   9
ATOM      7  C   UNL     1       3.669   6.166  18.394  0.00  0.00    +0.000 C 
ATOM      8  O   UNL     1       3.738   5.609  19.489  0.00  0.00    +0.000 OA
ATOM      9  N   UNL     1       2.888   7.332  18.166  0.00  0.00    +0.000 N 
ATOM     10  H   UNL     1       2.816   7.671  17.211  0.00  0.00    +0.000 HD
BRANCH   7  14
ATOM     11  C   UNL     1       5.841   4.366  15.063  0.00  0.00    +0.000 A 
ATOM     12  C   UNL     1       5.575   5.733  15.095  0.00  0.00    +0.000 A 
ATOM     13  C   UNL     1       4.943   6.298  16.218  0.00  0.00    +0.000 A 
ATOM     14  C   UNL     1       4.463   5.498  17.287  0.00  0.00    +0.000 A 
ATOM     15  C   UNL     1       4.722   4.132  17.225  0.00  0.00    +0.000 A 
ATOM     16  C   UNL     1       5.405   3.577  16.127  0.00  0.00    +0.000 A 
BRANCH  11  18
ATOM     17  C   UNL     1       7.407   4.891  13.355  0.00  0.00    +0.000 C 
ATOM     18  O   UNL     1       6.620   3.914  14.033  0.00  0.00    +0.000 OA
ENDBRANCH  11  18
ENDBRANCH   7  14
ENDBRANCH   1   9
BRANCH   4  19
ATOM     19  C   UNL     1      -0.394  10.789  22.599  0.00  0.00    +0.000 C 
ATOM     20  O   UNL     1      -0.005  10.031  23.518  0.00  0.00    +0.000 OA
BRANCH  19  21
ATOM     21  C   UNL     1      -1.930  11.941  22.825  0.00  0.00    +0.000 A 
ATOM     22  N   UNL     1      -1.083  12.763  22.203  0.00  0.00    +0.000 NA
ATOM     23  C   UNL     1      -1.627  13.868  21.834  0.00  0.00    +0.000 A 
ATOM     24  C   UNL     1      -2.841  13.774  21.261  0.00  0.00    +0.000 A 
ATOM     25  C   UNL     1      -3.561  13.857  22.412  0.00  0.00    +0.000 A 
ATOM     26  C   UNL     1      -3.787  14.891  23.537  0.00  0.00    +0.000 A 
ATOM     27  C   UNL     1      -5.049  15.208  24.033  0.00  0.00    +0.000 A 
ATOM     28  C   UNL     1      -5.970  14.525  23.340  0.00  0.00    +0.000 A 
ATOM     29  C   UNL     1      -5.358  13.228  22.734  0.00  0.00    +0.000 A 
ATOM     30  C   UNL     1      -3.678  12.612  22.781  0.00  0.00    +0.000 A 
BRANCH  24  31
ATOM     31  C   UNL     1      -3.385  12.690  20.101  0.00  0.00    +0.000 C 
BRANCH  31  32
ATOM     32  C   UNL     1      -2.476  12.151  19.033  0.00  0.00    +0.000 C 
ATOM     33  O   UNL     1      -1.449  12.635  18.645  0.00  0.00    +0.000 OA
BRANCH  32  34
ATOM     34  O   UNL     1      -2.626  10.865  18.576  0.00  0.00    +0.000 OA
ATOM     35  H   UNL     1      -2.050  10.167  18.912  0.00  0.00    +0.000 HD
ENDBRANCH  32  34
ENDBRANCH  31  32
ENDBRANCH  24  31
ENDBRANCH  19  21
ENDBRANCH   4  19
TORSDOF 8
ENDMDL
MODEL 6
REMARK VINA RESULT:      -8.3      6.904      9.414
REMARK  Name = 
REMARK  9 active torsions:
REMARK  status: ('A' for Active; 'I' for Inactive)
REMARK    1  A    between atoms: C_1  and  O_2
REMARK    2  A    between atoms: O_2  and  C_3
REMARK    3  A    between atoms: C_6  and  C_7
REMARK    4  A    between atoms: N_9  and  C_10
REMARK    5  A    between atoms: C_13  and  C_14
REMARK    6  A    between atoms: C_14  and  C_16
REMARK    7  A    between atoms: C_19  and  C_20
REMARK    8  A    between atoms: C_20  and  C_21
REMARK    9  A    between atoms: C_21  and  O_23
REMARK                            x       y       z     vdW  Elec       q    Type
REMARK                         _______ _______ _______ _____ _____    ______ ____
ROOT
ATOM      1  C   UNL     1       0.297   9.380  20.869  0.00  0.00    +0.000 A 
ATOM      2  C   UNL     1       0.483   8.218  21.604  0.00  0.00    +0.000 A 
ATOM      3  C   UNL     1       1.416   7.096  21.071  0.00  0.00    +0.000 A 
ATOM      4  C   UNL     1       2.174   7.018  19.725  0.00  0.00    +0.000 A 
ATOM      5  C   UNL     1       2.062   8.311  19.218  0.00  0.00    +0.000 A 
ATOM      6  C   UNL     1       1.137   9.401  19.740  0.00  0.00    +0.000 A 
ENDROOT
BRANCH   1   9
ATOM      7  C   UNL     1      -0.744  10.961  22.572  0.00  0.00    +0.000 C 
ATOM      8  O   UNL     1      -0.210  10.416  23.538  0.00  0.00    +0.000 OA
ATOM      9  N   UNL     1      -0.554  10.525  21.233  0.00  0.00    +0.000 N 
ATOM     10  H   UNL     1      -0.959  11.088  20.492  0.00  0.00    +0.000 HD
BRANCH   7  14
ATOM     11  C   UNL     1      -3.058  14.497  23.668  0.00  0.00    +0.000 A 
ATOM     12  C   UNL     1      -1.724  14.600  23.283  0.00  0.00    +0.000 A 
ATOM     13  C   UNL     1      -1.026  13.454  22.859  0.00  0.00    +0.000 A 
ATOM     14  C   UNL     1      -1.608  12.162  22.914  0.00  0.00    +0.000 A 
ATOM     15  C   UNL     1      -2.936  12.079  23.322  0.00  0.00    +0.000 A 
ATOM     16  C   UNL     1      -3.649  13.234  23.691  0.00  0.00    +0.000 A 
BRANCH  11  18
ATOM     17  C   UNL     1      -3.083  16.862  23.451  0.00  0.00    +0.000 C 
ATOM     18  O   UNL     1      -3.729  15.669  23.889  0.00  0.00    +0.000 OA
ENDBRANCH  11  18
ENDBRANCH   7  14
ENDBRANCH   1   9
BRANCH   4  19
ATOM     19  C   UNL     1       3.025   5.560  19.014  0.00  0.00    +0.000 C 
ATOM     20  O   UNL     1       3.400   5.161  20.141  0.00  0.00    +0.000 OA
BRANCH  19  21
ATOM     21  C   UNL     1       3.977   5.071  17.404  0.00  0.00    +0.000 A 
ATOM     22  N   UNL     1       4.277   6.368  17.495  0.00  0.00    +0.000 NA
ATOM     23  C   UNL     1       5.179   6.740  16.657  0.00  0.00    +0.000 A 
ATOM     24  C   UNL     1       6.241   5.926  16.523  0.00  0.00    +0.000 A 
ATOM     25  C   UNL     1       5.715   5.147  15.541  0.00  0.00    +0.000 A 
ATOM     26  C   UNL     1       5.230   5.329  14.084  0.00  0.00    +0.000 A 
ATOM     27  C   UNL     1       5.580   4.458  13.056  0.00  0.00    +0.000 A 
ATOM     28  C   UNL     1       6.416   3.529  13.539  0.00  0.00    +0.000 A 
ATOM     29  C   UNL     1       6.206   3.340  15.070  0.00  0.00    +0.000 A 
ATOM     30  C   UNL     1       5.116   4.196  16.202  0.00  0.00    +0.000 A 
BRANCH  24  31
ATOM     31  C   UNL     1       7.139   5.150  17.709  0.00  0.00    +0.000 C 
BRANCH  31  32
ATOM     32  C   UNL     1       7.470   5.816  19.015  0.00  0.00    +0.000 C 
ATOM     33  O   UNL     1       7.177   5.435  20.115  0.00  0.00    +0.000 OA
BRANCH  32  34
ATOM     34  O   UNL     1       8.401   6.823  19.066  0.00  0.00    +0.000 OA
ATOM     35  H   UNL     1       9.305   6.627  19.342  0.00  0.00    +0.000 HD
ENDBRANCH  32  34
ENDBRANCH  31  32
ENDBRANCH  24  31
ENDBRANCH  19  21
ENDBRANCH   4  19
TORSDOF 8
ENDMDL
MODEL 7
REMARK VINA RESULT:      -8.3      8.537     11.774
REMARK  Name = 
REMARK  9 active torsions:
REMARK  status: ('A' for Active; 'I' for Inactive)
REMARK    1  A    between atoms: C_1  and  O_2
REMARK    2  A    between atoms: O_2  and  C_3
REMARK    3  A    between atoms: C_6  and  C_7
REMARK    4  A    between atoms: N_9  and  C_10
REMARK    5  A    between atoms: C_13  and  C_14
REMARK    6  A    between atoms: C_14  and  C_16
REMARK    7  A    between atoms: C_19  and  C_20
REMARK    8  A    between atoms: C_20  and  C_21
REMARK    9  A    between atoms: C_21  and  O_23
REMARK                            x       y       z     vdW  Elec       q    Type
REMARK                         _______ _______ _______ _____ _____    ______ ____
ROOT
ATOM      1  C   UNL     1       1.894   8.369  19.318  0.00  0.00    +0.000 A 
ATOM      2  C   UNL     1       1.678   7.889  20.600  0.00  0.00    +0.000 A 
ATOM      3  C   UNL     1       0.775   8.677  21.589  0.00  0.00    +0.000 A 
ATOM      4  C   UNL     1       0.082  10.046  21.394  0.00  0.00    +0.000 A 
ATOM      5  C   UNL     1       0.213  10.281  20.028  0.00  0.00    +0.000 A 
ATOM      6  C   UNL     1       1.108   9.511  19.068  0.00  0.00    +0.000 A 
ENDROOT
BRANCH   1   9
ATOM      7  C   UNL     1       3.329   6.469  18.415  0.00  0.00    +0.000 C 
ATOM      8  O   UNL     1       3.209   5.779  19.427  0.00  0.00    +0.000 OA
ATOM      9  N   UNL     1       2.722   7.746  18.272  0.00  0.00    +0.000 N 
ATOM     10  H   UNL     1       2.798   8.206  17.369  0.00  0.00    +0.000 HD
BRANCH   7  14
ATOM     11  C   UNL     1       5.789   4.520  15.381  0.00  0.00    +0.000 A 
ATOM     12  C   UNL     1       5.082   3.776  16.322  0.00  0.00    +0.000 A 
ATOM     13  C   UNL     1       4.235   4.427  17.238  0.00  0.00    +0.000 A 
ATOM     14  C   UNL     1       4.158   5.842  17.309  0.00  0.00    +0.000 A 
ATOM     15  C   UNL     1       4.888   6.566  16.372  0.00  0.00    +0.000 A 
ATOM     16  C   UNL     1       5.691   5.910  15.420  0.00  0.00    +0.000 A 
BRANCH  11  18
ATOM     17  C   UNL     1       5.752   3.650  13.171  0.00  0.00    +0.000 C 
ATOM     18  O   UNL     1       6.445   3.818  14.406  0.00  0.00    +0.000 OA
ENDBRANCH  11  18
ENDBRANCH   7  14
ENDBRANCH   1   9
BRANCH   4  19
ATOM     19  C   UNL     1      -0.729  11.070  22.678  0.00  0.00    +0.000 C 
ATOM     20  O   UNL     1      -0.354  10.310  23.601  0.00  0.00    +0.000 OA
BRANCH  19  21
ATOM     21  C   UNL     1      -2.290  12.195  22.872  0.00  0.00    +0.000 A 
ATOM     22  N   UNL     1      -1.539  12.938  22.057  0.00  0.00    +0.000 NA
ATOM     23  C   UNL     1      -2.162  13.956  21.580  0.00  0.00    +0.000 A 
ATOM     24  C   UNL     1      -3.416  13.737  21.143  0.00  0.00    +0.000 A 
ATOM     25  C   UNL     1      -4.035  13.973  22.330  0.00  0.00    +0.000 A 
ATOM     26  C   UNL     1      -4.209  15.160  23.305  0.00  0.00    +0.000 A 
ATOM     27  C   UNL     1      -5.436  15.509  23.863  0.00  0.00    +0.000 A 
ATOM     28  C   UNL     1      -6.382  14.699  23.369  0.00  0.00    +0.000 A 
ATOM     29  C   UNL     1      -5.767  13.345  22.910  0.00  0.00    +0.000 A 
ATOM     30  C   UNL     1      -4.064  12.796  22.891  0.00  0.00    +0.000 A 
BRANCH  24  31
ATOM     31  C   UNL     1      -4.010  12.473  20.214  0.00  0.00    +0.000 C 
BRANCH  31  32
ATOM     32  C   UNL     1      -5.288  12.595  19.433  0.00  0.00    +0.000 C 
ATOM     33  O   UNL     1      -5.886  13.604  19.178  0.00  0.00    +0.000 OA
BRANCH  32  34
ATOM     34  O   UNL     1      -5.755  11.537  18.694  0.00  0.00    +0.000 OA
ATOM     35  H   UNL     1      -5.283  11.263  17.898  0.00  0.00    +0.000 HD
ENDBRANCH  32  34
ENDBRANCH  31  32
ENDBRANCH  24  31
ENDBRANCH  19  21
ENDBRANCH   4  19
TORSDOF 8
ENDMDL
MODEL 8
REMARK VINA RESULT:      -8.3      9.481     12.389
REMARK  Name = 
REMARK  9 active torsions:
REMARK  status: ('A' for Active; 'I' for Inactive)
REMARK    1  A    between atoms: C_1  and  O_2
REMARK    2  A    between atoms: O_2  and  C_3
REMARK    3  A    between atoms: C_6  and  C_7
REMARK    4  A    between atoms: N_9  and  C_10
REMARK    5  A    between atoms: C_13  and  C_14
REMARK    6  A    between atoms: C_14  and  C_16
REMARK    7  A    between atoms: C_19  and  C_20
REMARK    8  A    between atoms: C_20  and  C_21
REMARK    9  A    between atoms: C_21  and  O_23
REMARK                            x       y       z     vdW  Elec       q    Type
REMARK                         _______ _______ _______ _____ _____    ______ ____
ROOT
ATOM      1  C   UNL     1       0.778  10.091  18.418  0.00  0.00    +0.000 A 
ATOM      2  C   UNL     1      -0.608  10.086  18.359  0.00  0.00    +0.000 A 
ATOM      3  C   UNL     1      -1.423  11.242  19.002  0.00  0.00    +0.000 A 
ATOM      4  C   UNL     1      -0.916  12.452  19.820  0.00  0.00    +0.000 A 
ATOM      5  C   UNL     1       0.461  12.430  19.607  0.00  0.00    +0.000 A 
ATOM      6  C   UNL     1       1.253  11.288  18.987  0.00  0.00    +0.000 A 
ENDROOT
BRANCH   1   9
ATOM      7  C   UNL     1       2.189   7.982  18.625  0.00  0.00    +0.000 C 
ATOM      8  O   UNL     1       1.904   7.800  19.808  0.00  0.00    +0.000 OA
ATOM      9  N   UNL     1       1.686   9.073  17.866  0.00  0.00    +0.000 N 
ATOM     10  H   UNL     1       1.900   9.095  16.873  0.00  0.00    +0.000 HD
BRANCH   7  14
ATOM     11  C   UNL     1       4.816   5.077  16.697  0.00  0.00    +0.000 A 
ATOM     12  C   UNL     1       4.975   6.444  16.484  0.00  0.00    +0.000 A 
ATOM     13  C   UNL     1       4.165   7.361  17.181  0.00  0.00    +0.000 A 
ATOM     14  C   UNL     1       3.105   6.933  18.021  0.00  0.00    +0.000 A 
ATOM     15  C   UNL     1       2.951   5.562  18.202  0.00  0.00    +0.000 A 
ATOM     16  C   UNL     1       3.800   4.649  17.549  0.00  0.00    +0.000 A 
BRANCH  11  18
ATOM     17  C   UNL     1       7.106   4.467  16.532  0.00  0.00    +0.000 C 
ATOM     18  O   UNL     1       5.753   4.253  16.135  0.00  0.00    +0.000 OA
ENDBRANCH  11  18
ENDBRANCH   7  14
ENDBRANCH   1   9
BRANCH   4  19
ATOM     19  C   UNL     1      -1.921  13.627  20.801  0.00  0.00    +0.000 C 
ATOM     20  O   UNL     1      -0.905  14.183  21.279  0.00  0.00    +0.000 OA
BRANCH  19  21
ATOM     21  C   UNL     1      -3.622  13.675  21.720  0.00  0.00    +0.000 A 
ATOM     22  N   UNL     1      -3.921  14.325  20.595  0.00  0.00    +0.000 NA
ATOM     23  C   UNL     1      -5.180  14.552  20.460  0.00  0.00    +0.000 A 
ATOM     24  C   UNL     1      -6.005  13.531  20.754  0.00  0.00    +0.000 A 
ATOM     25  C   UNL     1      -6.142  13.821  22.075  0.00  0.00    +0.000 A 
ATOM     26  C   UNL     1      -6.702  14.979  22.932  0.00  0.00    +0.000 A 
ATOM     27  C   UNL     1      -7.535  14.775  24.029  0.00  0.00    +0.000 A 
ATOM     28  C   UNL     1      -7.785  13.464  24.146  0.00  0.00    +0.000 A 
ATOM     29  C   UNL     1      -6.642  12.624  23.506  0.00  0.00    +0.000 A 
ATOM     30  C   UNL     1      -5.172  13.149  22.631  0.00  0.00    +0.000 A 
BRANCH  24  31
ATOM     31  C   UNL     1      -5.876  11.910  20.341  0.00  0.00    +0.000 C 
BRANCH  31  32
ATOM     32  C   UNL     1      -6.913  11.222  19.499  0.00  0.00    +0.000 C 
ATOM     33  O   UNL     1      -6.965  11.188  18.300  0.00  0.00    +0.000 OA
BRANCH  32  34
ATOM     34  O   UNL     1      -7.778  10.317  20.062  0.00  0.00    +0.000 OA
ATOM     35  H   UNL     1      -7.475   9.422  20.257  0.00  0.00    +0.000 HD
ENDBRANCH  32  34
ENDBRANCH  31  32
ENDBRANCH  24  31
ENDBRANCH  19  21
ENDBRANCH   4  19
TORSDOF 8
ENDMDL
MODEL 9
REMARK VINA RESULT:      -8.1      7.812      9.753
REMARK  Name = 
REMARK  9 active torsions:
REMARK  status: ('A' for Active; 'I' for Inactive)
REMARK    1  A    between atoms: C_1  and  O_2
REMARK    2  A    between atoms: O_2  and  C_3
REMARK    3  A    between atoms: C_6  and  C_7
REMARK    4  A    between atoms: N_9  and  C_10
REMARK    5  A    between atoms: C_13  and  C_14
REMARK    6  A    between atoms: C_14  and  C_16
REMARK    7  A    between atoms: C_19  and  C_20
REMARK    8  A    between atoms: C_20  and  C_21
REMARK    9  A    between atoms: C_21  and  O_23
REMARK                            x       y       z     vdW  Elec       q    Type
REMARK                         _______ _______ _______ _____ _____    ______ ____
ROOT
ATOM      1  C   UNL     1       0.268  10.753  21.511  0.00  0.00    +0.000 A 
ATOM      2  C   UNL     1       0.802   9.730  22.280  0.00  0.00    +0.000 A 
ATOM      3  C   UNL     1       1.478   8.509  21.597  0.00  0.00    +0.000 A 
ATOM      4  C   UNL     1       1.602   8.182  20.091  0.00  0.00    +0.000 A 
ATOM      5  C   UNL     1       1.225   9.371  19.471  0.00  0.00    +0.000 A 
ATOM      6  C   UNL     1       0.553  10.558  20.146  0.00  0.00    +0.000 A 
ENDROOT
BRANCH   1   9
ATOM      7  C   UNL     1      -1.474  11.939  22.942  0.00  0.00    +0.000 C 
ATOM      8  O   UNL     1      -1.921  10.896  23.419  0.00  0.00    +0.000 OA
ATOM      9  N   UNL     1      -0.406  11.966  22.004  0.00  0.00    +0.000 N 
ATOM     10  H   UNL     1      -0.039  12.873  21.733  0.00  0.00    +0.000 HD
BRANCH   7  14
ATOM     11  C   UNL     1      -3.212  15.600  24.563  0.00  0.00    +0.000 A 
ATOM     12  C   UNL     1      -1.833  15.451  24.440  0.00  0.00    +0.000 A 
ATOM     13  C   UNL     1      -1.304  14.292  23.840  0.00  0.00    +0.000 A 
ATOM     14  C   UNL     1      -2.132  13.208  23.451  0.00  0.00    +0.000 A 
ATOM     15  C   UNL     1      -3.506  13.370  23.602  0.00  0.00    +0.000 A 
ATOM     16  C   UNL     1      -4.035  14.554  24.150  0.00  0.00    +0.000 A 
BRANCH  11  18
ATOM     17  C   UNL     1      -4.379  17.596  24.020  0.00  0.00    +0.000 C 
ATOM     18  O   UNL     1      -3.665  16.822  24.981  0.00  0.00    +0.000 OA
ENDBRANCH  11  18
ENDBRANCH   7  14
ENDBRANCH   1   9
BRANCH   4  19
ATOM     19  C   UNL     1       2.146   6.602  19.341  0.00  0.00    +0.000 C 
ATOM     20  O   UNL     1       1.779   5.938  20.338  0.00  0.00    +0.000 OA
BRANCH  19  21
ATOM     21  C   UNL     1       3.525   5.953  18.151  0.00  0.00    +0.000 A 
ATOM     22  N   UNL     1       3.964   5.496  19.324  0.00  0.00    +0.000 NA
ATOM     23  C   UNL     1       4.958   4.688  19.215  0.00  0.00    +0.000 A 
ATOM     24  C   UNL     1       4.864   3.755  18.249  0.00  0.00    +0.000 A 
ATOM     25  C   UNL     1       5.423   4.503  17.260  0.00  0.00    +0.000 A 
ATOM     26  C   UNL     1       6.788   5.167  16.972  0.00  0.00    +0.000 A 
ATOM     27  C   UNL     1       7.433   5.071  15.741  0.00  0.00    +0.000 A 
ATOM     28  C   UNL     1       6.707   4.287  14.933  0.00  0.00    +0.000 A 
ATOM     29  C   UNL     1       5.209   4.295  15.352  0.00  0.00    +0.000 A 
ATOM     30  C   UNL     1       4.398   5.106  16.726  0.00  0.00    +0.000 A 
BRANCH  24  31
ATOM     31  C   UNL     1       3.557   2.792  17.828  0.00  0.00    +0.000 C 
BRANCH  31  32
ATOM     32  C   UNL     1       2.358   2.648  18.721  0.00  0.00    +0.000 C 
ATOM     33  O   UNL     1       2.325   2.152  19.813  0.00  0.00    +0.000 OA
BRANCH  32  34
ATOM     34  O   UNL     1       1.203   3.340  18.452  0.00  0.00    +0.000 OA
ATOM     35  H   UNL     1       0.894   4.016  19.067  0.00  0.00    +0.000 HD
ENDBRANCH  32  34
ENDBRANCH  31  32
ENDBRANCH  24  31
ENDBRANCH  19  21
ENDBRANCH   4  19
TORSDOF 8
ENDMDL
