MODEL 1
REMARK VINA RESULT:      -6.5      0.000      0.000
REMARK  Name = 
REMARK  4 active torsions:
REMARK  status: ('A' for Active; 'I' for Inactive)
REMARK    1  A    between atoms: C_2  and  C_3
REMARK    2  A    between atoms: C_6  and  N_7
REMARK    3  A    between atoms: C_11  and  C_13
REMARK    4  A    between atoms: C_16  and  N_17
REMARK                            x       y       z     vdW  Elec       q    Type
REMARK                         _______ _______ _______ _____ _____    ______ ____
ROOT
ATOM      1  C   UNL     1       1.443  13.065  18.667  0.00  0.00    +0.000 A 
ATOM      2  C   UNL     1       2.604  12.493  18.164  0.00  0.00    +0.000 A 
ATOM      3  C   UNL     1       2.662  11.123  17.908  0.00  0.00    +0.000 A 
ATOM      4  C   UNL     1       1.627  10.251  18.274  0.00  0.00    +0.000 A 
ATOM      5  C   UNL     1       0.475  10.817  18.832  0.00  0.00    +0.000 A 
ATOM      6  C   UNL     1       0.388  12.214  19.031  0.00  0.00    +0.000 A 
ENDROOT
BRANCH   4   7
ATOM      7  N   UNL     1       1.744   8.832  18.118  0.00  0.00    +0.000 N 
ATOM      8  C   UNL     1       1.908   7.982  19.186  0.00  0.00    +0.000 C 
ATOM      9  O   UNL     1       1.914   8.365  20.360  0.00  0.00    +0.000 OA
ATOM     10  N   UNL     1       2.056   6.643  18.953  0.00  0.00    +0.000 N 
ATOM     11  C   UNL     1       2.172   5.829  20.156  0.00  0.00    +0.000 C 
ATOM     12  C   UNL     1       2.204   4.432  19.659  0.00  0.00    +0.000 A 
ATOM     13  C   UNL     1       2.141   3.274  20.415  0.00  0.00    +0.000 A 
ATOM     14  C   UNL     1       2.359   2.065  19.768  0.00  0.00    +0.000 A 
ATOM     15  C   UNL     1       2.673   2.047  18.400  0.00  0.00    +0.000 A 
ATOM     16  C   UNL     1       2.672   3.228  17.637  0.00  0.00    +0.000 A 
ATOM     17  C   UNL     1       2.386   4.425  18.273  0.00  0.00    +0.000 A 
ATOM     18  C   UNL     1       2.175   5.823  17.734  0.00  0.00    +0.000 C 
ATOM     19  H   UNL     1       1.424   8.429  17.249  0.00  0.00    +0.000 HD
ENDBRANCH   4   7
BRANCH   1  24
ATOM     20  N   UNL     1      -1.789  16.112  21.248  0.00  0.00    +0.000 N 
ATOM     21  C   UNL     1      -1.141  16.942  20.210  0.00  0.00    +0.000 C 
ATOM     22  C   UNL     1       0.337  16.511  20.016  0.00  0.00    +0.000 C 
ATOM     23  N   UNL     1       0.487  15.050  19.877  0.00  0.00    +0.000 N 
ATOM     24  C   UNL     1       1.340  14.539  18.896  0.00  0.00    +0.000 C 
ATOM     25  O   UNL     1       2.022  15.266  18.174  0.00  0.00    +0.000 OA
ATOM     26  C   UNL     1      -0.155  14.309  20.976  0.00  0.00    +0.000 C 
ATOM     27  C   UNL     1      -1.650  14.661  21.040  0.00  0.00    +0.000 C 
BRANCH  20  31
ATOM     28  C   UNL     1      -4.117  17.686  24.405  0.00  0.00    +0.000 A 
ATOM     29  C   UNL     1      -4.671  17.520  23.135  0.00  0.00    +0.000 A 
ATOM     30  C   UNL     1      -3.896  16.999  22.084  0.00  0.00    +0.000 A 
ATOM     31  C   UNL     1      -2.558  16.628  22.269  0.00  0.00    +0.000 A 
ATOM     32  C   UNL     1      -2.027  16.814  23.556  0.00  0.00    +0.000 A 
ATOM     33  C   UNL     1      -2.791  17.333  24.615  0.00  0.00    +0.000 A 
BRANCH  28  35
ATOM     34  N   UNL     1      -5.557  18.628  26.355  0.00  0.00    +0.000 NA
ATOM     35  C   UNL     1      -4.915  18.214  25.473  0.00  0.00    +0.000 C 
ENDBRANCH  28  35
ENDBRANCH  20  31
ENDBRANCH   1  24
TORSDOF 4
ENDMDL
MODEL 2
REMARK VINA RESULT:      -6.4      5.834      9.609
REMARK  Name = 
REMARK  4 active torsions:
REMARK  status: ('A' for Active; 'I' for Inactive)
REMARK    1  A    between atoms: C_2  and  C_3
REMARK    2  A    between atoms: C_6  and  N_7
REMARK    3  A    between atoms: C_11  and  C_13
REMARK    4  A    between atoms: C_16  and  N_17
REMARK                            x       y       z     vdW  Elec       q    Type
REMARK                         _______ _______ _______ _____ _____    ______ ____
ROOT
ATOM      1  C   UNL     1       2.228  14.677  18.658  0.00  0.00    +0.000 A 
ATOM      2  C   UNL     1       1.826  13.351  18.742  0.00  0.00    +0.000 A 
ATOM      3  C   UNL     1       0.484  13.031  18.952  0.00  0.00    +0.000 A 
ATOM      4  C   UNL     1      -0.481  14.010  19.229  0.00  0.00    +0.000 A 
ATOM      5  C   UNL     1      -0.070  15.347  19.199  0.00  0.00    +0.000 A 
ATOM      6  C   UNL     1       1.277  15.676  18.920  0.00  0.00    +0.000 A 
ENDROOT
BRANCH   4   7
ATOM      7  N   UNL     1      -1.831  13.666  19.562  0.00  0.00    +0.000 N 
ATOM      8  C   UNL     1      -2.273  13.580  20.861  0.00  0.00    +0.000 C 
ATOM      9  O   UNL     1      -1.561  13.842  21.836  0.00  0.00    +0.000 OA
ATOM     10  N   UNL     1      -3.566  13.203  21.100  0.00  0.00    +0.000 N 
ATOM     11  C   UNL     1      -3.942  13.193  22.508  0.00  0.00    +0.000 C 
ATOM     12  C   UNL     1      -5.390  12.874  22.504  0.00  0.00    +0.000 A 
ATOM     13  C   UNL     1      -6.257  12.908  23.582  0.00  0.00    +0.000 A 
ATOM     14  C   UNL     1      -7.539  12.406  23.400  0.00  0.00    +0.000 A 
ATOM     15  C   UNL     1      -7.906  11.850  22.165  0.00  0.00    +0.000 A 
ATOM     16  C   UNL     1      -7.032  11.880  21.064  0.00  0.00    +0.000 A 
ATOM     17  C   UNL     1      -5.778  12.444  21.231  0.00  0.00    +0.000 A 
ATOM     18  C   UNL     1      -4.675  12.749  20.242  0.00  0.00    +0.000 C 
ATOM     19  H   UNL     1      -2.530  13.763  18.839  0.00  0.00    +0.000 HD
ENDBRANCH   4   7
BRANCH   1  24
ATOM     20  N   UNL     1       6.246  16.069  21.541  0.00  0.00    +0.000 N 
ATOM     21  C   UNL     1       6.493  16.575  20.175  0.00  0.00    +0.000 C 
ATOM     22  C   UNL     1       5.957  15.572  19.119  0.00  0.00    +0.000 C 
ATOM     23  N   UNL     1       4.584  15.119  19.414  0.00  0.00    +0.000 N 
ATOM     24  C   UNL     1       3.650  15.041  18.378  0.00  0.00    +0.000 C 
ATOM     25  O   UNL     1       3.946  15.282  17.208  0.00  0.00    +0.000 OA
ATOM     26  C   UNL     1       4.443  14.594  20.783  0.00  0.00    +0.000 C 
ATOM     27  C   UNL     1       4.851  15.673  21.800  0.00  0.00    +0.000 C 
BRANCH  20  31
ATOM     28  C   UNL     1       9.178  16.088  24.586  0.00  0.00    +0.000 A 
ATOM     29  C   UNL     1       8.394  14.953  24.367  0.00  0.00    +0.000 A 
ATOM     30  C   UNL     1       7.417  14.948  23.357  0.00  0.00    +0.000 A 
ATOM     31  C   UNL     1       7.197  16.064  22.538  0.00  0.00    +0.000 A 
ATOM     32  C   UNL     1       7.996  17.192  22.787  0.00  0.00    +0.000 A 
ATOM     33  C   UNL     1       8.976  17.211  23.794  0.00  0.00    +0.000 A 
BRANCH  28  35
ATOM     34  N   UNL     1      10.987  16.104  26.454  0.00  0.00    +0.000 NA
ATOM     35  C   UNL     1      10.174  16.084  25.617  0.00  0.00    +0.000 C 
ENDBRANCH  28  35
ENDBRANCH  20  31
ENDBRANCH   1  24
TORSDOF 4
ENDMDL
MODEL 3
REMARK VINA RESULT:      -6.1      3.910      5.672
REMARK  Name = 
REMARK  4 active torsions:
REMARK  status: ('A' for Active; 'I' for Inactive)
REMARK    1  A    between atoms: C_2  and  C_3
REMARK    2  A    between atoms: C_6  and  N_7
REMARK    3  A    between atoms: C_11  and  C_13
REMARK    4  A    between atoms: C_16  and  N_17
REMARK                            x       y       z     vdW  Elec       q    Type
REMARK                         _______ _______ _______ _____ _____    ______ ____
ROOT
ATOM      1  C   UNL     1       1.655   8.358  20.662  0.00  0.00    +0.000 A 
ATOM      2  C   UNL     1       1.974   7.018  20.840  0.00  0.00    +0.000 A 
ATOM      3  C   UNL     1       2.613   6.303  19.827  0.00  0.00    +0.000 A 
ATOM      4  C   UNL     1       2.831   6.847  18.553  0.00  0.00    +0.000 A 
ATOM      5  C   UNL     1       2.462   8.182  18.351  0.00  0.00    +0.000 A 
ATOM      6  C   UNL     1       1.874   8.929  19.398  0.00  0.00    +0.000 A 
ENDROOT
BRANCH   4   7
ATOM      7  N   UNL     1       3.379   6.069  17.483  0.00  0.00    +0.000 N 
ATOM      8  C   UNL     1       4.535   6.423  16.828  0.00  0.00    +0.000 C 
ATOM      9  O   UNL     1       5.217   7.402  17.144  0.00  0.00    +0.000 OA
ATOM     10  N   UNL     1       4.972   5.651  15.787  0.00  0.00    +0.000 N 
ATOM     11  C   UNL     1       6.232   6.088  15.199  0.00  0.00    +0.000 C 
ATOM     12  C   UNL     1       6.551   5.049  14.189  0.00  0.00    +0.000 A 
ATOM     13  C   UNL     1       7.727   4.913  13.472  0.00  0.00    +0.000 A 
ATOM     14  C   UNL     1       7.758   3.974  12.450  0.00  0.00    +0.000 A 
ATOM     15  C   UNL     1       6.608   3.228  12.146  0.00  0.00    +0.000 A 
ATOM     16  C   UNL     1       5.443   3.337  12.925  0.00  0.00    +0.000 A 
ATOM     17  C   UNL     1       5.439   4.226  13.987  0.00  0.00    +0.000 A 
ATOM     18  C   UNL     1       4.422   4.482  15.078  0.00  0.00    +0.000 C 
ATOM     19  H   UNL     1       3.070   5.111  17.395  0.00  0.00    +0.000 HD
ENDBRANCH   4   7
BRANCH   1  24
ATOM     20  N   UNL     1      -1.905  12.058  20.842  0.00  0.00    +0.000 N 
ATOM     21  C   UNL     1      -1.091  12.174  22.071  0.00  0.00    +0.000 C 
ATOM     22  C   UNL     1      -0.674  10.769  22.580  0.00  0.00    +0.000 C 
ATOM     23  N   UNL     1      -0.125   9.917  21.507  0.00  0.00    +0.000 N 
ATOM     24  C   UNL     1       1.021   9.157  21.753  0.00  0.00    +0.000 C 
ATOM     25  O   UNL     1       1.562   9.124  22.858  0.00  0.00    +0.000 OA
ATOM     26  C   UNL     1      -1.022   9.829  20.342  0.00  0.00    +0.000 C 
ATOM     27  C   UNL     1      -1.294  11.235  19.784  0.00  0.00    +0.000 C 
BRANCH  20  31
ATOM     28  C   UNL     1      -5.529  14.132  20.186  0.00  0.00    +0.000 A 
ATOM     29  C   UNL     1      -4.634  14.566  21.166  0.00  0.00    +0.000 A 
ATOM     30  C   UNL     1      -3.431  13.875  21.386  0.00  0.00    +0.000 A 
ATOM     31  C   UNL     1      -3.084  12.741  20.638  0.00  0.00    +0.000 A 
ATOM     32  C   UNL     1      -4.007  12.325  19.665  0.00  0.00    +0.000 A 
ATOM     33  C   UNL     1      -5.214  13.007  19.435  0.00  0.00    +0.000 A 
BRANCH  28  35
ATOM     34  N   UNL     1      -7.743  15.430  19.764  0.00  0.00    +0.000 NA
ATOM     35  C   UNL     1      -6.753  14.844  19.965  0.00  0.00    +0.000 C 
ENDBRANCH  28  35
ENDBRANCH  20  31
ENDBRANCH   1  24
TORSDOF 4
ENDMDL
MODEL 4
REMARK VINA RESULT:      -6.1      3.835      5.532
REMARK  Name = 
REMARK  4 active torsions:
REMARK  status: ('A' for Active; 'I' for Inactive)
REMARK    1  A    between atoms: C_2  and  C_3
REMARK    2  A    between atoms: C_6  and  N_7
REMARK    3  A    between atoms: C_11  and  C_13
REMARK    4  A    between atoms: C_16  and  N_17
REMARK                            x       y       z     vdW  Elec       q    Type
REMARK                         _______ _______ _______ _____ _____    ______ ____
ROOT
ATOM      1  C   UNL     1       1.607   8.260  20.684  0.00  0.00    +0.000 A 
ATOM      2  C   UNL     1       1.864   8.843  19.450  0.00  0.00    +0.000 A 
ATOM      3  C   UNL     1       2.338   8.071  18.389  0.00  0.00    +0.000 A 
ATOM      4  C   UNL     1       2.708   6.728  18.551  0.00  0.00    +0.000 A 
ATOM      5  C   UNL     1       2.502   6.150  19.808  0.00  0.00    +0.000 A 
ATOM      6  C   UNL     1       1.959   6.914  20.867  0.00  0.00    +0.000 A 
ENDROOT
BRANCH   4   7
ATOM      7  N   UNL     1       3.305   5.976  17.488  0.00  0.00    +0.000 N 
ATOM      8  C   UNL     1       4.456   6.381  16.853  0.00  0.00    +0.000 C 
ATOM      9  O   UNL     1       5.091   7.387  17.181  0.00  0.00    +0.000 OA
ATOM     10  N   UNL     1       4.942   5.631  15.817  0.00  0.00    +0.000 N 
ATOM     11  C   UNL     1       6.192   6.121  15.250  0.00  0.00    +0.000 C 
ATOM     12  C   UNL     1       6.570   5.100  14.244  0.00  0.00    +0.000 A 
ATOM     13  C   UNL     1       7.762   5.015  13.546  0.00  0.00    +0.000 A 
ATOM     14  C   UNL     1       7.849   4.081  12.522  0.00  0.00    +0.000 A 
ATOM     15  C   UNL     1       6.737   3.288  12.199  0.00  0.00    +0.000 A 
ATOM     16  C   UNL     1       5.555   3.345  12.959  0.00  0.00    +0.000 A 
ATOM     17  C   UNL     1       5.497   4.231  14.023  0.00  0.00    +0.000 A 
ATOM     18  C   UNL     1       4.453   4.441  15.097  0.00  0.00    +0.000 C 
ATOM     19  H   UNL     1       3.039   5.007  17.394  0.00  0.00    +0.000 HD
ENDBRANCH   4   7
BRANCH   1  24
ATOM     20  N   UNL     1      -1.796  12.088  21.085  0.00  0.00    +0.000 N 
ATOM     21  C   UNL     1      -0.932  12.144  22.284  0.00  0.00    +0.000 C 
ATOM     22  C   UNL     1      -0.550  10.713  22.745  0.00  0.00    +0.000 C 
ATOM     23  N   UNL     1      -0.077   9.866  21.633  0.00  0.00    +0.000 N 
ATOM     24  C   UNL     1       1.047   9.057  21.817  0.00  0.00    +0.000 C 
ATOM     25  O   UNL     1       1.629   8.978  22.899  0.00  0.00    +0.000 OA
ATOM     26  C   UNL     1      -1.021   9.839  20.502  0.00  0.00    +0.000 C 
ATOM     27  C   UNL     1      -1.259  11.268  19.987  0.00  0.00    +0.000 C 
BRANCH  20  31
ATOM     28  C   UNL     1      -5.340  14.356  20.683  0.00  0.00    +0.000 A 
ATOM     29  C   UNL     1      -5.099  13.268  19.842  0.00  0.00    +0.000 A 
ATOM     30  C   UNL     1      -3.919  12.516  19.974  0.00  0.00    +0.000 A 
ATOM     31  C   UNL     1      -2.955  12.821  20.944  0.00  0.00    +0.000 A 
ATOM     32  C   UNL     1      -3.223  13.925  21.769  0.00  0.00    +0.000 A 
ATOM     33  C   UNL     1      -4.398  14.686  21.648  0.00  0.00    +0.000 A 
BRANCH  28  35
ATOM     34  N   UNL     1      -7.518  15.754  20.427  0.00  0.00    +0.000 NA
ATOM     35  C   UNL     1      -6.548  15.116  20.544  0.00  0.00    +0.000 C 
ENDBRANCH  28  35
ENDBRANCH  20  31
ENDBRANCH   1  24
TORSDOF 4
ENDMDL
MODEL 5
REMARK VINA RESULT:      -5.9      6.112      9.189
REMARK  Name = 
REMARK  4 active torsions:
REMARK  status: ('A' for Active; 'I' for Inactive)
REMARK    1  A    between atoms: C_2  and  C_3
REMARK    2  A    between atoms: C_6  and  N_7
REMARK    3  A    between atoms: C_11  and  C_13
REMARK    4  A    between atoms: C_16  and  N_17
REMARK                            x       y       z     vdW  Elec       q    Type
REMARK                         _______ _______ _______ _____ _____    ______ ____
ROOT
ATOM      1  C   UNL     1       3.246  14.565  18.788  0.00  0.00    +0.000 A 
ATOM      2  C   UNL     1       2.192  15.442  19.000  0.00  0.00    +0.000 A 
ATOM      3  C   UNL     1       0.881  14.970  19.065  0.00  0.00    +0.000 A 
ATOM      4  C   UNL     1       0.554  13.636  18.783  0.00  0.00    +0.000 A 
ATOM      5  C   UNL     1       1.610  12.757  18.515  0.00  0.00    +0.000 A 
ATOM      6  C   UNL     1       2.945  13.221  18.514  0.00  0.00    +0.000 A 
ENDROOT
BRANCH   4   7
ATOM      7  N   UNL     1      -0.804  13.185  18.735  0.00  0.00    +0.000 N 
ATOM      8  C   UNL     1      -1.637  13.229  19.829  0.00  0.00    +0.000 C 
ATOM      9  O   UNL     1      -1.299  13.706  20.917  0.00  0.00    +0.000 OA
ATOM     10  N   UNL     1      -2.909  12.739  19.716  0.00  0.00    +0.000 N 
ATOM     11  C   UNL     1      -3.720  12.881  20.919  0.00  0.00    +0.000 C 
ATOM     12  C   UNL     1      -5.063  12.395  20.521  0.00  0.00    +0.000 A 
ATOM     13  C   UNL     1      -6.233  12.477  21.256  0.00  0.00    +0.000 A 
ATOM     14  C   UNL     1      -7.350  11.806  20.775  0.00  0.00    +0.000 A 
ATOM     15  C   UNL     1      -7.258  11.044  19.600  0.00  0.00    +0.000 A 
ATOM     16  C   UNL     1      -6.078  11.023  18.835  0.00  0.00    +0.000 A 
ATOM     17  C   UNL     1      -4.987  11.749  19.284  0.00  0.00    +0.000 A 
ATOM     18  C   UNL     1      -3.646  12.042  18.648  0.00  0.00    +0.000 C 
ATOM     19  H   UNL     1      -1.237  13.097  17.827  0.00  0.00    +0.000 HD
ENDBRANCH   4   7
BRANCH   1  24
ATOM     20  N   UNL     1       6.547  16.248  22.346  0.00  0.00    +0.000 N 
ATOM     21  C   UNL     1       6.999  16.782  21.044  0.00  0.00    +0.000 C 
ATOM     22  C   UNL     1       6.746  15.747  19.916  0.00  0.00    +0.000 C 
ATOM     23  N   UNL     1       5.382  15.185  19.958  0.00  0.00    +0.000 N 
ATOM     24  C   UNL     1       4.662  15.042  18.770  0.00  0.00    +0.000 C 
ATOM     25  O   UNL     1       5.147  15.313  17.671  0.00  0.00    +0.000 OA
ATOM     26  C   UNL     1       5.036  14.641  21.283  0.00  0.00    +0.000 C 
ATOM     27  C   UNL     1       5.164  15.741  22.349  0.00  0.00    +0.000 C 
BRANCH  20  31
ATOM     28  C   UNL     1       8.872  16.409  25.873  0.00  0.00    +0.000 A 
ATOM     29  C   UNL     1       7.760  17.239  25.722  0.00  0.00    +0.000 A 
ATOM     30  C   UNL     1       6.989  17.188  24.548  0.00  0.00    +0.000 A 
ATOM     31  C   UNL     1       7.298  16.311  23.500  0.00  0.00    +0.000 A 
ATOM     32  C   UNL     1       8.426  15.493  23.679  0.00  0.00    +0.000 A 
ATOM     33  C   UNL     1       9.206  15.535  24.847  0.00  0.00    +0.000 A 
BRANCH  28  35
ATOM     34  N   UNL     1      10.299  16.494  28.045  0.00  0.00    +0.000 NA
ATOM     35  C   UNL     1       9.651  16.465  27.075  0.00  0.00    +0.000 C 
ENDBRANCH  28  35
ENDBRANCH  20  31
ENDBRANCH   1  24
TORSDOF 4
ENDMDL
MODEL 6
REMARK VINA RESULT:      -5.8      6.632     10.918
REMARK  Name = 
REMARK  4 active torsions:
REMARK  status: ('A' for Active; 'I' for Inactive)
REMARK    1  A    between atoms: C_2  and  C_3
REMARK    2  A    between atoms: C_6  and  N_7
REMARK    3  A    between atoms: C_11  and  C_13
REMARK    4  A    between atoms: C_16  and  N_17
REMARK                            x       y       z     vdW  Elec       q    Type
REMARK                         _______ _______ _______ _____ _____    ______ ____
ROOT
ATOM      1  C   UNL     1       1.477  16.619  18.971  0.00  0.00    +0.000 A 
ATOM      2  C   UNL     1       0.640  15.560  18.648  0.00  0.00    +0.000 A 
ATOM      3  C   UNL     1      -0.547  15.356  19.353  0.00  0.00    +0.000 A 
ATOM      4  C   UNL     1      -0.876  16.106  20.490  0.00  0.00    +0.000 A 
ATOM      5  C   UNL     1      -0.008  17.142  20.853  0.00  0.00    +0.000 A 
ATOM      6  C   UNL     1       1.162  17.392  20.100  0.00  0.00    +0.000 A 
ENDROOT
BRANCH   4   7
ATOM      7  N   UNL     1      -2.036  15.813  21.278  0.00  0.00    +0.000 N 
ATOM      8  C   UNL     1      -2.844  14.728  21.029  0.00  0.00    +0.000 C 
ATOM      9  O   UNL     1      -2.605  13.896  20.148  0.00  0.00    +0.000 OA
ATOM     10  N   UNL     1      -3.958  14.539  21.799  0.00  0.00    +0.000 N 
ATOM     11  C   UNL     1      -4.713  13.333  21.483  0.00  0.00    +0.000 C 
ATOM     12  C   UNL     1      -5.786  13.287  22.506  0.00  0.00    +0.000 A 
ATOM     13  C   UNL     1      -6.672  12.250  22.743  0.00  0.00    +0.000 A 
ATOM     14  C   UNL     1      -7.713  12.477  23.633  0.00  0.00    +0.000 A 
ATOM     15  C   UNL     1      -7.864  13.738  24.230  0.00  0.00    +0.000 A 
ATOM     16  C   UNL     1      -6.920  14.760  24.024  0.00  0.00    +0.000 A 
ATOM     17  C   UNL     1      -5.845  14.506  23.187  0.00  0.00    +0.000 A 
ATOM     18  C   UNL     1      -4.610  15.319  22.866  0.00  0.00    +0.000 C 
ATOM     19  H   UNL     1      -2.103  16.242  22.190  0.00  0.00    +0.000 HD
ENDBRANCH   4   7
BRANCH   1  24
ATOM     20  N   UNL     1       6.422  15.329  19.497  0.00  0.00    +0.000 N 
ATOM     21  C   UNL     1       6.375  16.549  18.663  0.00  0.00    +0.000 C 
ATOM     22  C   UNL     1       5.133  16.522  17.732  0.00  0.00    +0.000 C 
ATOM     23  N   UNL     1       3.894  16.170  18.450  0.00  0.00    +0.000 N 
ATOM     24  C   UNL     1       2.724  16.889  18.193  0.00  0.00    +0.000 C 
ATOM     25  O   UNL     1       2.672  17.775  17.341  0.00  0.00    +0.000 OA
ATOM     26  C   UNL     1       4.023  14.920  19.220  0.00  0.00    +0.000 C 
ATOM     27  C   UNL     1       5.176  15.046  20.229  0.00  0.00    +0.000 C 
BRANCH  20  31
ATOM     28  C   UNL     1       9.908  12.995  20.009  0.00  0.00    +0.000 A 
ATOM     29  C   UNL     1       9.143  13.374  21.114  0.00  0.00    +0.000 A 
ATOM     30  C   UNL     1       7.986  14.153  20.944  0.00  0.00    +0.000 A 
ATOM     31  C   UNL     1       7.557  14.569  19.677  0.00  0.00    +0.000 A 
ATOM     32  C   UNL     1       8.351  14.179  18.586  0.00  0.00    +0.000 A 
ATOM     33  C   UNL     1       9.511  13.400  18.742  0.00  0.00    +0.000 A 
BRANCH  28  35
ATOM     34  N   UNL     1      12.058  11.567  20.333  0.00  0.00    +0.000 NA
ATOM     35  C   UNL     1      11.086  12.198  20.191  0.00  0.00    +0.000 C 
ENDBRANCH  28  35
ENDBRANCH  20  31
ENDBRANCH   1  24
TORSDOF 4
ENDMDL
MODEL 7
REMARK VINA RESULT:      -5.7      6.131      9.722
REMARK  Name = 
REMARK  4 active torsions:
REMARK  status: ('A' for Active; 'I' for Inactive)
REMARK    1  A    between atoms: C_2  and  C_3
REMARK    2  A    between atoms: C_6  and  N_7
REMARK    3  A    between atoms: C_11  and  C_13
REMARK    4  A    between atoms: C_16  and  N_17
REMARK                            x       y       z     vdW  Elec       q    Type
REMARK                         _______ _______ _______ _____ _____    ______ ____
ROOT
ATOM      1  C   UNL     1       2.763  14.705  18.776  0.00  0.00    +0.000 A 
ATOM      2  C   UNL     1       2.494  13.414  19.210  0.00  0.00    +0.000 A 
ATOM      3  C   UNL     1       1.198  13.044  19.570  0.00  0.00    +0.000 A 
ATOM      4  C   UNL     1       0.152  13.974  19.648  0.00  0.00    +0.000 A 
ATOM      5  C   UNL     1       0.430  15.290  19.263  0.00  0.00    +0.000 A 
ATOM      6  C   UNL     1       1.729  15.652  18.834  0.00  0.00    +0.000 A 
ENDROOT
BRANCH   4   7
ATOM      7  N   UNL     1      -1.146  13.612  20.132  0.00  0.00    +0.000 N 
ATOM      8  C   UNL     1      -2.065  12.946  19.355  0.00  0.00    +0.000 C 
ATOM      9  O   UNL     1      -1.827  12.562  18.206  0.00  0.00    +0.000 OA
ATOM     10  N   UNL     1      -3.301  12.673  19.874  0.00  0.00    +0.000 N 
ATOM     11  C   UNL     1      -4.177  11.920  18.985  0.00  0.00    +0.000 C 
ATOM     12  C   UNL     1      -5.388  11.651  19.797  0.00  0.00    +0.000 A 
ATOM     13  C   UNL     1      -6.450  10.827  19.467  0.00  0.00    +0.000 A 
ATOM     14  C   UNL     1      -7.568  10.847  20.291  0.00  0.00    +0.000 A 
ATOM     15  C   UNL     1      -7.610  11.713  21.395  0.00  0.00    +0.000 A 
ATOM     16  C   UNL     1      -6.498  12.497  21.749  0.00  0.00    +0.000 A 
ATOM     17  C   UNL     1      -5.360  12.423  20.963  0.00  0.00    +0.000 A 
ATOM     18  C   UNL     1      -3.979  13.016  21.137  0.00  0.00    +0.000 C 
ATOM     19  H   UNL     1      -1.285  13.595  21.132  0.00  0.00    +0.000 HD
ENDBRANCH   4   7
BRANCH   1  24
ATOM     20  N   UNL     1       6.981  16.416  21.158  0.00  0.00    +0.000 N 
ATOM     21  C   UNL     1       7.069  16.851  19.748  0.00  0.00    +0.000 C 
ATOM     22  C   UNL     1       6.476  15.768  18.808  0.00  0.00    +0.000 C 
ATOM     23  N   UNL     1       5.160  15.280  19.264  0.00  0.00    +0.000 N 
ATOM     24  C   UNL     1       4.133  15.106  18.334  0.00  0.00    +0.000 C 
ATOM     25  O   UNL     1       4.300  15.290  17.128  0.00  0.00    +0.000 OA
ATOM     26  C   UNL     1       5.180  14.831  20.667  0.00  0.00    +0.000 C 
ATOM     27  C   UNL     1       5.638  15.982  21.577  0.00  0.00    +0.000 C 
BRANCH  20  31
ATOM     28  C   UNL     1      10.203  16.658  23.883  0.00  0.00    +0.000 A 
ATOM     29  C   UNL     1       9.104  17.509  24.012  0.00  0.00    +0.000 A 
ATOM     30  C   UNL     1       8.034  17.431  23.104  0.00  0.00    +0.000 A 
ATOM     31  C   UNL     1       8.026  16.506  22.052  0.00  0.00    +0.000 A 
ATOM     32  C   UNL     1       9.149  15.668  21.944  0.00  0.00    +0.000 A 
ATOM     33  C   UNL     1      10.225  15.736  22.845  0.00  0.00    +0.000 A 
BRANCH  28  35
ATOM     34  N   UNL     1      12.165  16.792  25.585  0.00  0.00    +0.000 NA
ATOM     35  C   UNL     1      11.289  16.743  24.815  0.00  0.00    +0.000 C 
ENDBRANCH  28  35
ENDBRANCH  20  31
ENDBRANCH   1  24
TORSDOF 4
ENDMDL
MODEL 8
REMARK VINA RESULT:      -5.7      6.217      9.293
REMARK  Name = 
REMARK  4 active torsions:
REMARK  status: ('A' for Active; 'I' for Inactive)
REMARK    1  A    between atoms: C_2  and  C_3
REMARK    2  A    between atoms: C_6  and  N_7
REMARK    3  A    between atoms: C_11  and  C_13
REMARK    4  A    between atoms: C_16  and  N_17
REMARK                            x       y       z     vdW  Elec       q    Type
REMARK                         _______ _______ _______ _____ _____    ______ ____
ROOT
ATOM      1  C   UNL     1       2.761  15.508  19.233  0.00  0.00    +0.000 A 
ATOM      2  C   UNL     1       1.589  16.172  19.566  0.00  0.00    +0.000 A 
ATOM      3  C   UNL     1       0.363  15.507  19.524  0.00  0.00    +0.000 A 
ATOM      4  C   UNL     1       0.238  14.206  19.016  0.00  0.00    +0.000 A 
ATOM      5  C   UNL     1       1.411  13.550  18.628  0.00  0.00    +0.000 A 
ATOM      6  C   UNL     1       2.663  14.200  18.732  0.00  0.00    +0.000 A 
ENDROOT
BRANCH   4   7
ATOM      7  N   UNL     1      -1.039  13.574  18.865  0.00  0.00    +0.000 N 
ATOM      8  C   UNL     1      -1.934  13.460  19.902  0.00  0.00    +0.000 C 
ATOM      9  O   UNL     1      -1.734  13.938  21.023  0.00  0.00    +0.000 OA
ATOM     10  N   UNL     1      -3.116  12.804  19.691  0.00  0.00    +0.000 N 
ATOM     11  C   UNL     1      -4.011  12.786  20.841  0.00  0.00    +0.000 C 
ATOM     12  C   UNL     1      -5.246  12.135  20.341  0.00  0.00    +0.000 A 
ATOM     13  C   UNL     1      -6.459  12.026  20.999  0.00  0.00    +0.000 A 
ATOM     14  C   UNL     1      -7.439  11.227  20.425  0.00  0.00    +0.000 A 
ATOM     15  C   UNL     1      -7.169  10.531  19.237  0.00  0.00    +0.000 A 
ATOM     16  C   UNL     1      -5.953  10.702  18.551  0.00  0.00    +0.000 A 
ATOM     17  C   UNL     1      -5.004  11.554  19.093  0.00  0.00    +0.000 A 
ATOM     18  C   UNL     1      -3.681  12.054  18.556  0.00  0.00    +0.000 C 
ATOM     19  H   UNL     1      -1.397  13.462  17.928  0.00  0.00    +0.000 HD
ENDBRANCH   4   7
BRANCH   1  24
ATOM     20  N   UNL     1       6.315  16.030  22.906  0.00  0.00    +0.000 N 
ATOM     21  C   UNL     1       6.503  17.145  21.955  0.00  0.00    +0.000 C 
ATOM     22  C   UNL     1       6.216  16.675  20.504  0.00  0.00    +0.000 C 
ATOM     23  N   UNL     1       4.953  15.922  20.391  0.00  0.00    +0.000 N 
ATOM     24  C   UNL     1       4.090  16.185  19.324  0.00  0.00    +0.000 C 
ATOM     25  O   UNL     1       4.372  16.986  18.433  0.00  0.00    +0.000 OA
ATOM     26  C   UNL     1       4.873  14.806  21.350  0.00  0.00    +0.000 C 
ATOM     27  C   UNL     1       5.020  15.339  22.784  0.00  0.00    +0.000 C 
BRANCH  20  31
ATOM     28  C   UNL     1       9.064  15.103  25.980  0.00  0.00    +0.000 A 
ATOM     29  C   UNL     1       8.883  14.228  24.907  0.00  0.00    +0.000 A 
ATOM     30  C   UNL     1       7.967  14.534  23.887  0.00  0.00    +0.000 A 
ATOM     31  C   UNL     1       7.213  15.716  23.903  0.00  0.00    +0.000 A 
ATOM     32  C   UNL     1       7.412  16.572  24.999  0.00  0.00    +0.000 A 
ATOM     33  C   UNL     1       8.325  16.277  26.026  0.00  0.00    +0.000 A 
BRANCH  28  35
ATOM     34  N   UNL     1      10.784  14.524  27.843  0.00  0.00    +0.000 NA
ATOM     35  C   UNL     1      10.003  14.784  27.016  0.00  0.00    +0.000 C 
ENDBRANCH  28  35
ENDBRANCH  20  31
ENDBRANCH   1  24
TORSDOF 4
ENDMDL
MODEL 9
REMARK VINA RESULT:      -5.7      1.441      2.040
REMARK  Name = 
REMARK  4 active torsions:
REMARK  status: ('A' for Active; 'I' for Inactive)
REMARK    1  A    between atoms: C_2  and  C_3
REMARK    2  A    between atoms: C_6  and  N_7
REMARK    3  A    between atoms: C_11  and  C_13
REMARK    4  A    between atoms: C_16  and  N_17
REMARK                            x       y       z     vdW  Elec       q    Type
REMARK                         _______ _______ _______ _____ _____    ______ ____
ROOT
ATOM      1  C   UNL     1       1.143  12.461  19.879  0.00  0.00    +0.000 A 
ATOM      2  C   UNL     1       1.296  11.736  21.053  0.00  0.00    +0.000 A 
ATOM      3  C   UNL     1       1.507  10.358  21.011  0.00  0.00    +0.000 A 
ATOM      4  C   UNL     1       1.432   9.629  19.816  0.00  0.00    +0.000 A 
ATOM      5  C   UNL     1       1.224  10.348  18.634  0.00  0.00    +0.000 A 
ATOM      6  C   UNL     1       1.076  11.754  18.668  0.00  0.00    +0.000 A 
ENDROOT
BRANCH   4   7
ATOM      7  N   UNL     1       1.531   8.200  19.795  0.00  0.00    +0.000 N 
ATOM      8  C   UNL     1       2.355   7.528  18.922  0.00  0.00    +0.000 C 
ATOM      9  O   UNL     1       3.109   8.100  18.130  0.00  0.00    +0.000 OA
ATOM     10  N   UNL     1       2.362   6.161  18.934  0.00  0.00    +0.000 N 
ATOM     11  C   UNL     1       3.307   5.553  18.006  0.00  0.00    +0.000 C 
ATOM     12  C   UNL     1       3.216   4.099  18.280  0.00  0.00    +0.000 A 
ATOM     13  C   UNL     1       4.032   3.100  17.778  0.00  0.00    +0.000 A 
ATOM     14  C   UNL     1       3.670   1.782  18.024  0.00  0.00    +0.000 A 
ATOM     15  C   UNL     1       2.489   1.498  18.726  0.00  0.00    +0.000 A 
ATOM     16  C   UNL     1       1.705   2.525  19.280  0.00  0.00    +0.000 A 
ATOM     17  C   UNL     1       2.107   3.837  19.091  0.00  0.00    +0.000 A 
ATOM     18  C   UNL     1       1.580   5.139  19.654  0.00  0.00    +0.000 C 
ATOM     19  H   UNL     1       1.209   7.697  20.610  0.00  0.00    +0.000 HD
ENDBRANCH   4   7
BRANCH   1  24
ATOM     20  N   UNL     1      -2.724  15.644  21.021  0.00  0.00    +0.000 N 
ATOM     21  C   UNL     1      -1.798  16.382  20.137  0.00  0.00    +0.000 C 
ATOM     22  C   UNL     1      -0.328  15.988  20.440  0.00  0.00    +0.000 C 
ATOM     23  N   UNL     1      -0.138  14.527  20.518  0.00  0.00    +0.000 N 
ATOM     24  C   UNL     1       0.971  13.945  19.899  0.00  0.00    +0.000 C 
ATOM     25  O   UNL     1       1.836  14.616  19.335  0.00  0.00    +0.000 OA
ATOM     26  C   UNL     1      -1.077  13.884  21.453  0.00  0.00    +0.000 C 
ATOM     27  C   UNL     1      -2.524  14.186  21.029  0.00  0.00    +0.000 C 
BRANCH  20  31
ATOM     28  C   UNL     1      -5.928  17.479  23.078  0.00  0.00    +0.000 A 
ATOM     29  C   UNL     1      -4.937  16.793  23.783  0.00  0.00    +0.000 A 
ATOM     30  C   UNL     1      -3.874  16.180  23.099  0.00  0.00    +0.000 A 
ATOM     31  C   UNL     1      -3.765  16.237  21.703  0.00  0.00    +0.000 A 
ATOM     32  C   UNL     1      -4.780  16.928  21.022  0.00  0.00    +0.000 A 
ATOM     33  C   UNL     1      -5.850  17.545  21.694  0.00  0.00    +0.000 A 
BRANCH  28  35
ATOM     34  N   UNL     1      -7.886  18.631  24.345  0.00  0.00    +0.000 NA
ATOM     35  C   UNL     1      -7.008  18.104  23.784  0.00  0.00    +0.000 C 
ENDBRANCH  28  35
ENDBRANCH  20  31
ENDBRANCH   1  24
TORSDOF 4
ENDMDL
