MODEL 1
REMARK VINA RESULT:      -9.2      0.000      0.000
REMARK  Name = 
REMARK  8 active torsions:
REMARK  status: ('A' for Active; 'I' for Inactive)
REMARK    1  A    between atoms: C_2  and  C_3
REMARK    2  A    between atoms: C_6  and  C_7
REMARK    3  A    between atoms: C_7  and  N_8
REMARK    4  A    between atoms: N_8  and  C_9
REMARK    5  A    between atoms: N_8  and  C_20
REMARK    6  A    between atoms: C_9  and  C_10
REMARK    7  A    between atoms: C_10  and  C_11
REMARK    8  A    between atoms: C_20  and  C_21
REMARK                            x       y       z     vdW  Elec       q    Type
REMARK                         _______ _______ _______ _____ _____    ______ ____
ROOT
ATOM      1  N   UNL     1       3.199   5.768  17.583  0.00  0.00    +0.000 NA
ENDROOT
BRANCH   1   2
ATOM      2  C   UNL     1       3.448   7.139  18.123  0.00  0.00    +0.000 C 
BRANCH   2   6
ATOM      3  C   UNL     1       0.910   9.403  19.312  0.00  0.00    +0.000 A 
ATOM      4  C   UNL     1       1.250   8.697  20.444  0.00  0.00    +0.000 A 
ATOM      5  O   UNL     1       2.116   7.707  20.094  0.00  0.00    +0.000 OA
ATOM      6  C   UNL     1       2.290   7.872  18.741  0.00  0.00    +0.000 A 
ATOM      7  N   UNL     1       1.559   8.841  18.220  0.00  0.00    +0.000 NA
BRANCH   3   9
ATOM      8  O   UNL     1       0.283  11.487  20.153  0.00  0.00    +0.000 OA
ATOM      9  C   UNL     1       0.123  10.626  19.287  0.00  0.00    +0.000 C 
ATOM     10  N   UNL     1      -0.779  10.802  18.243  0.00  0.00    +0.000 N 
ATOM     11  C   UNL     1      -1.379  12.113  18.010  0.00  0.00    +0.000 C 
ATOM     12  C   UNL     1      -2.897  12.050  18.177  0.00  0.00    +0.000 C 
ATOM     13  O   UNL     1      -3.460  11.042  17.322  0.00  0.00    +0.000 OA
ATOM     14  C   UNL     1      -2.918   9.748  17.632  0.00  0.00    +0.000 C 
ATOM     15  C   UNL     1      -1.389   9.717  17.466  0.00  0.00    +0.000 C 
ENDBRANCH   3   9
ENDBRANCH   2   6
ENDBRANCH   1   2
BRANCH   1  16
ATOM     16  C   UNL     1       4.341   4.864  17.924  0.00  0.00    +0.000 C 
BRANCH  16  17
ATOM     17  C   UNL     1       4.798   3.918  16.787  0.00  0.00    +0.000 C 
BRANCH  17  18
ATOM     18  C   UNL     1       5.854   4.519  15.900  0.00  0.00    +0.000 A 
ATOM     19  C   UNL     1       6.835   5.410  16.297  0.00  0.00    +0.000 A 
ATOM     20  N   UNL     1       7.633   5.685  15.220  0.00  0.00    +0.000 N 
ATOM     21  C   UNL     1       7.187   5.005  14.112  0.00  0.00    +0.000 A 
ATOM     22  C   UNL     1       7.690   4.988  12.805  0.00  0.00    +0.000 A 
ATOM     23  C   UNL     1       7.036   4.182  11.871  0.00  0.00    +0.000 A 
ATOM     24  C   UNL     1       5.931   3.416  12.235  0.00  0.00    +0.000 A 
ATOM     25  C   UNL     1       5.443   3.443  13.548  0.00  0.00    +0.000 A 
ATOM     26  C   UNL     1       6.077   4.259  14.508  0.00  0.00    +0.000 A 
ATOM     27  H   UNL     1       8.442   6.290  15.231  0.00  0.00    +0.000 HD
ENDBRANCH  17  18
ENDBRANCH  16  17
ENDBRANCH   1  16
BRANCH   1  28
ATOM     28  C   UNL     1       1.955   5.255  18.216  0.00  0.00    +0.000 C 
BRANCH  28  29
ATOM     29  C   UNL     1       2.139   4.262  19.352  0.00  0.00    +0.000 A 
ATOM     30  C   UNL     1       2.255   4.750  20.668  0.00  0.00    +0.000 A 
ATOM     31  C   UNL     1       2.264   3.878  21.760  0.00  0.00    +0.000 A 
ATOM     32  C   UNL     1       2.151   2.505  21.559  0.00  0.00    +0.000 A 
ATOM     33  C   UNL     1       2.076   2.001  20.262  0.00  0.00    +0.000 A 
ATOM     34  C   UNL     1       2.087   2.870  19.164  0.00  0.00    +0.000 A 
ATOM     35 CL   UNL     1       2.045   2.149  17.594  0.00  0.00    +0.000 Cl
ENDBRANCH  28  29
ENDBRANCH   1  28
TORSDOF 8
ENDMDL
MODEL 2
REMARK VINA RESULT:      -8.8      1.876      2.767
REMARK  Name = 
REMARK  8 active torsions:
REMARK  status: ('A' for Active; 'I' for Inactive)
REMARK    1  A    between atoms: C_2  and  C_3
REMARK    2  A    between atoms: C_6  and  C_7
REMARK    3  A    between atoms: C_7  and  N_8
REMARK    4  A    between atoms: N_8  and  C_9
REMARK    5  A    between atoms: N_8  and  C_20
REMARK    6  A    between atoms: C_9  and  C_10
REMARK    7  A    between atoms: C_10  and  C_11
REMARK    8  A    between atoms: C_20  and  C_21
REMARK                            x       y       z     vdW  Elec       q    Type
REMARK                         _______ _______ _______ _____ _____    ______ ____
ROOT
ATOM      1  N   UNL     1       3.344   6.653  17.881  0.00  0.00    +0.000 NA
ENDROOT
BRANCH   1   2
ATOM      2  C   UNL     1       3.166   8.129  17.737  0.00  0.00    +0.000 C 
BRANCH   2   6
ATOM      3  C   UNL     1       0.530  10.184  19.082  0.00  0.00    +0.000 A 
ATOM      4  C   UNL     1       0.841   9.354  20.134  0.00  0.00    +0.000 A 
ATOM      5  O   UNL     1       1.745   8.429  19.704  0.00  0.00    +0.000 OA
ATOM      6  C   UNL     1       1.968   8.760  18.390  0.00  0.00    +0.000 A 
ATOM      7  N   UNL     1       1.235   9.771  17.959  0.00  0.00    +0.000 NA
BRANCH   3   9
ATOM      8  O   UNL     1      -1.497  11.334  18.962  0.00  0.00    +0.000 OA
ATOM      9  C   UNL     1      -0.284  11.386  19.171  0.00  0.00    +0.000 C 
ATOM     10  N   UNL     1       0.341  12.575  19.532  0.00  0.00    +0.000 N 
ATOM     11  C   UNL     1      -0.460  13.736  19.912  0.00  0.00    +0.000 C 
ATOM     12  C   UNL     1      -0.219  14.897  18.947  0.00  0.00    +0.000 C 
ATOM     13  O   UNL     1       1.181  15.212  18.873  0.00  0.00    +0.000 OA
ATOM     14  C   UNL     1       1.936  14.079  18.412  0.00  0.00    +0.000 C 
ATOM     15  C   UNL     1       1.767  12.866  19.343  0.00  0.00    +0.000 C 
ENDBRANCH   3   9
ENDBRANCH   2   6
ENDBRANCH   1   2
BRANCH   1  16
ATOM     16  C   UNL     1       4.097   6.343  19.135  0.00  0.00    +0.000 C 
BRANCH  16  17
ATOM     17  C   UNL     1       5.292   5.374  18.967  0.00  0.00    +0.000 C 
BRANCH  17  18
ATOM     18  C   UNL     1       6.123   5.660  17.745  0.00  0.00    +0.000 A 
ATOM     19  C   UNL     1       7.140   6.594  17.656  0.00  0.00    +0.000 A 
ATOM     20  N   UNL     1       7.687   6.522  16.405  0.00  0.00    +0.000 N 
ATOM     21  C   UNL     1       7.040   5.567  15.657  0.00  0.00    +0.000 A 
ATOM     22  C   UNL     1       7.259   5.160  14.335  0.00  0.00    +0.000 A 
ATOM     23  C   UNL     1       6.448   4.142  13.829  0.00  0.00    +0.000 A 
ATOM     24  C   UNL     1       5.465   3.550  14.619  0.00  0.00    +0.000 A 
ATOM     25  C   UNL     1       5.261   3.969  15.940  0.00  0.00    +0.000 A 
ATOM     26  C   UNL     1       6.058   5.004  16.472  0.00  0.00    +0.000 A 
ATOM     27  H   UNL     1       8.464   7.077  16.073  0.00  0.00    +0.000 HD
ENDBRANCH  17  18
ENDBRANCH  16  17
ENDBRANCH   1  16
BRANCH   1  28
ATOM     28  C   UNL     1       1.990   6.042  17.953  0.00  0.00    +0.000 C 
BRANCH  28  29
ATOM     29  C   UNL     1       1.937   4.563  18.300  0.00  0.00    +0.000 A 
ATOM     30  C   UNL     1       2.255   3.620  17.304  0.00  0.00    +0.000 A 
ATOM     31  C   UNL     1       2.378   2.262  17.612  0.00  0.00    +0.000 A 
ATOM     32  C   UNL     1       2.192   1.823  18.920  0.00  0.00    +0.000 A 
ATOM     33  C   UNL     1       1.836   2.735  19.911  0.00  0.00    +0.000 A 
ATOM     34  C   UNL     1       1.693   4.094  19.603  0.00  0.00    +0.000 A 
ATOM     35 CL   UNL     1       1.196   5.140  20.886  0.00  0.00    +0.000 Cl
ENDBRANCH  28  29
ENDBRANCH   1  28
TORSDOF 8
ENDMDL
MODEL 3
REMARK VINA RESULT:      -8.7      2.352      3.161
REMARK  Name = 
REMARK  8 active torsions:
REMARK  status: ('A' for Active; 'I' for Inactive)
REMARK    1  A    between atoms: C_2  and  C_3
REMARK    2  A    between atoms: C_6  and  C_7
REMARK    3  A    between atoms: C_7  and  N_8
REMARK    4  A    between atoms: N_8  and  C_9
REMARK    5  A    between atoms: N_8  and  C_20
REMARK    6  A    between atoms: C_9  and  C_10
REMARK    7  A    between atoms: C_10  and  C_11
REMARK    8  A    between atoms: C_20  and  C_21
REMARK                            x       y       z     vdW  Elec       q    Type
REMARK                         _______ _______ _______ _____ _____    ______ ____
ROOT
ATOM      1  N   UNL     1       1.648   6.283  19.991  0.00  0.00    +0.000 NA
ENDROOT
BRANCH   1   2
ATOM      2  C   UNL     1       1.172   7.047  21.183  0.00  0.00    +0.000 C 
BRANCH   2   6
ATOM      3  C   UNL     1       0.772  10.515  20.289  0.00  0.00    +0.000 A 
ATOM      4  C   UNL     1       0.784  10.549  21.665  0.00  0.00    +0.000 A 
ATOM      5  O   UNL     1       0.797   9.270  22.131  0.00  0.00    +0.000 OA
ATOM      6  C   UNL     1       0.819   8.497  20.996  0.00  0.00    +0.000 A 
ATOM      7  N   UNL     1       0.760   9.190  19.873  0.00  0.00    +0.000 NA
BRANCH   3   9
ATOM      8  O   UNL     1       1.913  11.820  18.729  0.00  0.00    +0.000 OA
ATOM      9  C   UNL     1       0.903  11.671  19.417  0.00  0.00    +0.000 C 
ATOM     10  N   UNL     1      -0.156  12.572  19.361  0.00  0.00    +0.000 N 
ATOM     11  C   UNL     1      -0.201  13.580  18.305  0.00  0.00    +0.000 C 
ATOM     12  C   UNL     1      -0.153  14.987  18.901  0.00  0.00    +0.000 C 
ATOM     13  O   UNL     1      -1.207  15.167  19.861  0.00  0.00    +0.000 OA
ATOM     14  C   UNL     1      -1.087  14.219  20.934  0.00  0.00    +0.000 C 
ATOM     15  C   UNL     1      -1.149  12.769  20.422  0.00  0.00    +0.000 C 
ENDBRANCH   3   9
ENDBRANCH   2   6
ENDBRANCH   1   2
BRANCH   1  16
ATOM     16  C   UNL     1       3.142   6.211  19.987  0.00  0.00    +0.000 C 
BRANCH  16  17
ATOM     17  C   UNL     1       3.821   6.633  18.662  0.00  0.00    +0.000 C 
BRANCH  17  18
ATOM     18  C   UNL     1       4.941   5.718  18.248  0.00  0.00    +0.000 A 
ATOM     19  C   UNL     1       5.704   4.935  19.095  0.00  0.00    +0.000 A 
ATOM     20  N   UNL     1       6.582   4.207  18.340  0.00  0.00    +0.000 N 
ATOM     21  C   UNL     1       6.426   4.506  17.008  0.00  0.00    +0.000 A 
ATOM     22  C   UNL     1       7.106   4.010  15.889  0.00  0.00    +0.000 A 
ATOM     23  C   UNL     1       6.724   4.488  14.634  0.00  0.00    +0.000 A 
ATOM     24  C   UNL     1       5.695   5.419  14.506  0.00  0.00    +0.000 A 
ATOM     25  C   UNL     1       5.024   5.903  15.636  0.00  0.00    +0.000 A 
ATOM     26  C   UNL     1       5.399   5.446  16.917  0.00  0.00    +0.000 A 
ATOM     27  H   UNL     1       7.246   3.535  18.700  0.00  0.00    +0.000 HD
ENDBRANCH  17  18
ENDBRANCH  16  17
ENDBRANCH   1  16
BRANCH   1  28
ATOM     28  C   UNL     1       1.086   4.909  20.084  0.00  0.00    +0.000 C 
BRANCH  28  29
ATOM     29  C   UNL     1       1.819   3.829  19.305  0.00  0.00    +0.000 A 
ATOM     30  C   UNL     1       1.785   3.864  17.899  0.00  0.00    +0.000 A 
ATOM     31  C   UNL     1       2.570   2.994  17.138  0.00  0.00    +0.000 A 
ATOM     32  C   UNL     1       3.408   2.078  17.767  0.00  0.00    +0.000 A 
ATOM     33  C   UNL     1       3.425   1.999  19.158  0.00  0.00    +0.000 A 
ATOM     34  C   UNL     1       2.625   2.856  19.924  0.00  0.00    +0.000 A 
ATOM     35 CL   UNL     1       2.672   2.648  21.639  0.00  0.00    +0.000 Cl
ENDBRANCH  28  29
ENDBRANCH   1  28
TORSDOF 8
ENDMDL
MODEL 4
REMARK VINA RESULT:      -8.6      3.759      6.871
REMARK  Name = 
REMARK  8 active torsions:
REMARK  status: ('A' for Active; 'I' for Inactive)
REMARK    1  A    between atoms: C_2  and  C_3
REMARK    2  A    between atoms: C_6  and  C_7
REMARK    3  A    between atoms: C_7  and  N_8
REMARK    4  A    between atoms: N_8  and  C_9
REMARK    5  A    between atoms: N_8  and  C_20
REMARK    6  A    between atoms: C_9  and  C_10
REMARK    7  A    between atoms: C_10  and  C_11
REMARK    8  A    between atoms: C_20  and  C_21
REMARK                            x       y       z     vdW  Elec       q    Type
REMARK                         _______ _______ _______ _____ _____    ______ ____
ROOT
ATOM      1  N   UNL     1       0.481   9.968  19.533  0.00  0.00    +0.000 NA
ENDROOT
BRANCH   1   2
ATOM      2  C   UNL     1       0.080  10.933  18.466  0.00  0.00    +0.000 C 
BRANCH   2   6
ATOM      3  C   UNL     1      -3.445  11.254  17.795  0.00  0.00    +0.000 A 
ATOM      4  C   UNL     1      -3.234   9.898  17.697  0.00  0.00    +0.000 A 
ATOM      5  O   UNL     1      -1.897   9.658  17.800  0.00  0.00    +0.000 OA
ATOM      6  C   UNL     1      -1.344  10.902  17.987  0.00  0.00    +0.000 A 
ATOM      7  N   UNL     1      -2.220  11.890  17.947  0.00  0.00    +0.000 NA
BRANCH   3   9
ATOM      8  O   UNL     1      -5.419  12.078  16.863  0.00  0.00    +0.000 OA
ATOM      9  C   UNL     1      -4.746  11.900  17.879  0.00  0.00    +0.000 C 
ATOM     10  N   UNL     1      -5.212  12.271  19.136  0.00  0.00    +0.000 N 
ATOM     11  C   UNL     1      -6.611  12.655  19.311  0.00  0.00    +0.000 C 
ATOM     12  C   UNL     1      -6.717  14.104  19.785  0.00  0.00    +0.000 C 
ATOM     13  O   UNL     1      -5.951  14.303  20.985  0.00  0.00    +0.000 OA
ATOM     14  C   UNL     1      -4.563  14.002  20.760  0.00  0.00    +0.000 C 
ATOM     15  C   UNL     1      -4.363  12.548  20.300  0.00  0.00    +0.000 C 
ENDBRANCH   3   9
ENDBRANCH   2   6
ENDBRANCH   1   2
BRANCH   1  16
ATOM     16  C   UNL     1       1.482   8.994  18.998  0.00  0.00    +0.000 C 
BRANCH  16  17
ATOM     17  C   UNL     1       1.887   7.860  19.971  0.00  0.00    +0.000 C 
BRANCH  17  18
ATOM     18  C   UNL     1       2.374   6.620  19.272  0.00  0.00    +0.000 A 
ATOM     19  C   UNL     1       3.257   6.582  18.208  0.00  0.00    +0.000 A 
ATOM     20  N   UNL     1       3.493   5.274  17.885  0.00  0.00    +0.000 N 
ATOM     21  C   UNL     1       2.768   4.444  18.706  0.00  0.00    +0.000 A 
ATOM     22  C   UNL     1       2.696   3.045  18.735  0.00  0.00    +0.000 A 
ATOM     23  C   UNL     1       1.875   2.459  19.701  0.00  0.00    +0.000 A 
ATOM     24  C   UNL     1       1.164   3.242  20.607  0.00  0.00    +0.000 A 
ATOM     25  C   UNL     1       1.249   4.639  20.566  0.00  0.00    +0.000 A 
ATOM     26  C   UNL     1       2.060   5.258  19.591  0.00  0.00    +0.000 A 
ATOM     27  H   UNL     1       4.117   4.954  17.159  0.00  0.00    +0.000 HD
ENDBRANCH  17  18
ENDBRANCH  16  17
ENDBRANCH   1  16
BRANCH   1  28
ATOM     28  C   UNL     1       1.096  10.750  20.639  0.00  0.00    +0.000 C 
BRANCH  28  29
ATOM     29  C   UNL     1       0.131  11.422  21.603  0.00  0.00    +0.000 A 
ATOM     30  C   UNL     1      -0.012  12.821  21.558  0.00  0.00    +0.000 A 
ATOM     31  C   UNL     1      -0.997  13.469  22.307  0.00  0.00    +0.000 A 
ATOM     32  C   UNL     1      -1.862  12.731  23.110  0.00  0.00    +0.000 A 
ATOM     33  C   UNL     1      -1.710  11.349  23.201  0.00  0.00    +0.000 A 
ATOM     34  C   UNL     1      -0.710  10.698  22.467  0.00  0.00    +0.000 A 
ATOM     35 CL   UNL     1      -0.564   8.990  22.686  0.00  0.00    +0.000 Cl
ENDBRANCH  28  29
ENDBRANCH   1  28
TORSDOF 8
ENDMDL
MODEL 5
REMARK VINA RESULT:      -8.5      1.186      1.273
REMARK  Name = 
REMARK  8 active torsions:
REMARK  status: ('A' for Active; 'I' for Inactive)
REMARK    1  A    between atoms: C_2  and  C_3
REMARK    2  A    between atoms: C_6  and  C_7
REMARK    3  A    between atoms: C_7  and  N_8
REMARK    4  A    between atoms: N_8  and  C_9
REMARK    5  A    between atoms: N_8  and  C_20
REMARK    6  A    between atoms: C_9  and  C_10
REMARK    7  A    between atoms: C_10  and  C_11
REMARK    8  A    between atoms: C_20  and  C_21
REMARK                            x       y       z     vdW  Elec       q    Type
REMARK                         _______ _______ _______ _____ _____    ______ ____
ROOT
ATOM      1  N   UNL     1       3.341   6.387  17.956  0.00  0.00    +0.000 NA
ENDROOT
BRANCH   1   2
ATOM      2  C   UNL     1       3.193   7.868  18.080  0.00  0.00    +0.000 C 
BRANCH   2   6
ATOM      3  C   UNL     1       0.383   9.684  19.418  0.00  0.00    +0.000 A 
ATOM      4  C   UNL     1       0.861   9.002  20.514  0.00  0.00    +0.000 A 
ATOM      5  O   UNL     1       1.854   8.166  20.105  0.00  0.00    +0.000 OA
ATOM      6  C   UNL     1       1.959   8.399  18.755  0.00  0.00    +0.000 A 
ATOM      7  N   UNL     1       1.074   9.262  18.290  0.00  0.00    +0.000 NA
BRANCH   3   9
ATOM      8  O   UNL     1      -0.588  11.562  20.405  0.00  0.00    +0.000 OA
ATOM      9  C   UNL     1      -0.579  10.774  19.459  0.00  0.00    +0.000 C 
ATOM     10  N   UNL     1      -1.453  10.916  18.386  0.00  0.00    +0.000 N 
ATOM     11  C   UNL     1      -2.234  12.141  18.237  0.00  0.00    +0.000 C 
ATOM     12  C   UNL     1      -3.731  11.839  18.313  0.00  0.00    +0.000 C 
ATOM     13  O   UNL     1      -4.098  10.847  17.341  0.00  0.00    +0.000 OA
ATOM     14  C   UNL     1      -3.379   9.623  17.564  0.00  0.00    +0.000 C 
ATOM     15  C   UNL     1      -1.857   9.833  17.482  0.00  0.00    +0.000 C 
ENDBRANCH   3   9
ENDBRANCH   2   6
ENDBRANCH   1   2
BRANCH   1  16
ATOM     16  C   UNL     1       4.694   6.047  17.417  0.00  0.00    +0.000 C 
BRANCH  16  17
ATOM     17  C   UNL     1       4.726   4.878  16.402  0.00  0.00    +0.000 C 
BRANCH  17  18
ATOM     18  C   UNL     1       5.855   4.980  15.413  0.00  0.00    +0.000 A 
ATOM     19  C   UNL     1       7.062   5.621  15.623  0.00  0.00    +0.000 A 
ATOM     20  N   UNL     1       7.844   5.450  14.513  0.00  0.00    +0.000 N 
ATOM     21  C   UNL     1       7.169   4.721  13.564  0.00  0.00    +0.000 A 
ATOM     22  C   UNL     1       7.574   4.315  12.287  0.00  0.00    +0.000 A 
ATOM     23  C   UNL     1       6.674   3.559  11.532  0.00  0.00    +0.000 A 
ATOM     24  C   UNL     1       5.424   3.216  12.042  0.00  0.00    +0.000 A 
ATOM     25  C   UNL     1       5.036   3.629  13.323  0.00  0.00    +0.000 A 
ATOM     26  C   UNL     1       5.921   4.405  14.101  0.00  0.00    +0.000 A 
ATOM     27  H   UNL     1       8.787   5.796  14.403  0.00  0.00    +0.000 HD
ENDBRANCH  17  18
ENDBRANCH  16  17
ENDBRANCH   1  16
BRANCH   1  28
ATOM     28  C   UNL     1       3.189   5.805  19.317  0.00  0.00    +0.000 C 
BRANCH  28  29
ATOM     29  C   UNL     1       2.606   4.403  19.387  0.00  0.00    +0.000 A 
ATOM     30  C   UNL     1       1.208   4.245  19.337  0.00  0.00    +0.000 A 
ATOM     31  C   UNL     1       0.630   2.977  19.236  0.00  0.00    +0.000 A 
ATOM     32  C   UNL     1       1.438   1.844  19.177  0.00  0.00    +0.000 A 
ATOM     33  C   UNL     1       2.821   1.977  19.266  0.00  0.00    +0.000 A 
ATOM     34  C   UNL     1       3.404   3.245  19.387  0.00  0.00    +0.000 A 
ATOM     35 CL   UNL     1       5.124   3.305  19.546  0.00  0.00    +0.000 Cl
ENDBRANCH  28  29
ENDBRANCH   1  28
TORSDOF 8
ENDMDL
MODEL 6
REMARK VINA RESULT:      -8.5      1.322      1.454
REMARK  Name = 
REMARK  8 active torsions:
REMARK  status: ('A' for Active; 'I' for Inactive)
REMARK    1  A    between atoms: C_2  and  C_3
REMARK    2  A    between atoms: C_6  and  C_7
REMARK    3  A    between atoms: C_7  and  N_8
REMARK    4  A    between atoms: N_8  and  C_9
REMARK    5  A    between atoms: N_8  and  C_20
REMARK    6  A    between atoms: C_9  and  C_10
REMARK    7  A    between atoms: C_10  and  C_11
REMARK    8  A    between atoms: C_20  and  C_21
REMARK                            x       y       z     vdW  Elec       q    Type
REMARK                         _______ _______ _______ _____ _____    ______ ____
ROOT
ATOM      1  N   UNL     1       3.039   5.962  17.883  0.00  0.00    +0.000 NA
ENDROOT
BRANCH   1   2
ATOM      2  C   UNL     1       3.091   6.807  19.114  0.00  0.00    +0.000 C 
BRANCH   2   6
ATOM      3  C   UNL     1       1.323   9.946  19.165  0.00  0.00    +0.000 A 
ATOM      4  C   UNL     1       0.930   9.351  20.342  0.00  0.00    +0.000 A 
ATOM      5  O   UNL     1       1.433   8.085  20.377  0.00  0.00    +0.000 OA
ATOM      6  C   UNL     1       2.146   7.973  19.209  0.00  0.00    +0.000 A 
ATOM      7  N   UNL     1       2.075   9.038  18.431  0.00  0.00    +0.000 NA
BRANCH   3   9
ATOM      8  O   UNL     1       2.051  12.031  18.415  0.00  0.00    +0.000 OA
ATOM      9  C   UNL     1       1.113  11.343  18.818  0.00  0.00    +0.000 C 
ATOM     10  N   UNL     1      -0.175  11.856  18.921  0.00  0.00    +0.000 N 
ATOM     11  C   UNL     1      -0.496  13.149  18.321  0.00  0.00    +0.000 C 
ATOM     12  C   UNL     1      -0.930  14.148  19.394  0.00  0.00    +0.000 C 
ATOM     13  O   UNL     1      -2.028  13.624  20.160  0.00  0.00    +0.000 OA
ATOM     14  C   UNL     1      -1.657  12.398  20.810  0.00  0.00    +0.000 C 
ATOM     15  C   UNL     1      -1.225  11.324  19.796  0.00  0.00    +0.000 C 
ENDBRANCH   3   9
ENDBRANCH   2   6
ENDBRANCH   1   2
BRANCH   1  16
ATOM     16  C   UNL     1       4.304   5.176  17.743  0.00  0.00    +0.000 C 
BRANCH  16  17
ATOM     17  C   UNL     1       4.432   4.357  16.436  0.00  0.00    +0.000 C 
BRANCH  17  18
ATOM     18  C   UNL     1       5.629   4.739  15.609  0.00  0.00    +0.000 A 
ATOM     19  C   UNL     1       6.694   5.514  16.033  0.00  0.00    +0.000 A 
ATOM     20  N   UNL     1       7.605   5.595  15.015  0.00  0.00    +0.000 N 
ATOM     21  C   UNL     1       7.154   4.901  13.917  0.00  0.00    +0.000 A 
ATOM     22  C   UNL     1       7.748   4.717  12.663  0.00  0.00    +0.000 A 
ATOM     23  C   UNL     1       7.060   3.941  11.728  0.00  0.00    +0.000 A 
ATOM     24  C   UNL     1       5.832   3.364  12.041  0.00  0.00    +0.000 A 
ATOM     25  C   UNL     1       5.252   3.556  13.302  0.00  0.00    +0.000 A 
ATOM     26  C   UNL     1       5.920   4.347  14.261  0.00  0.00    +0.000 A 
ATOM     27  H   UNL     1       8.489   6.081  15.058  0.00  0.00    +0.000 HD
ENDBRANCH  17  18
ENDBRANCH  16  17
ENDBRANCH   1  16
BRANCH   1  28
ATOM     28  C   UNL     1       1.890   5.029  18.028  0.00  0.00    +0.000 C 
BRANCH  28  29
ATOM     29  C   UNL     1       1.943   4.074  19.209  0.00  0.00    +0.000 A 
ATOM     30  C   UNL     1       1.738   4.584  20.505  0.00  0.00    +0.000 A 
ATOM     31  C   UNL     1       1.617   3.730  21.604  0.00  0.00    +0.000 A 
ATOM     32  C   UNL     1       1.692   2.351  21.428  0.00  0.00    +0.000 A 
ATOM     33  C   UNL     1       1.936   1.828  20.160  0.00  0.00    +0.000 A 
ATOM     34  C   UNL     1       2.078   2.683  19.059  0.00  0.00    +0.000 A 
ATOM     35 CL   UNL     1       2.432   1.946  17.536  0.00  0.00    +0.000 Cl
ENDBRANCH  28  29
ENDBRANCH   1  28
TORSDOF 8
ENDMDL
MODEL 7
REMARK VINA RESULT:      -8.5      4.318     10.033
REMARK  Name = 
REMARK  8 active torsions:
REMARK  status: ('A' for Active; 'I' for Inactive)
REMARK    1  A    between atoms: C_2  and  C_3
REMARK    2  A    between atoms: C_6  and  C_7
REMARK    3  A    between atoms: C_7  and  N_8
REMARK    4  A    between atoms: N_8  and  C_9
REMARK    5  A    between atoms: N_8  and  C_20
REMARK    6  A    between atoms: C_9  and  C_10
REMARK    7  A    between atoms: C_10  and  C_11
REMARK    8  A    between atoms: C_20  and  C_21
REMARK                            x       y       z     vdW  Elec       q    Type
REMARK                         _______ _______ _______ _____ _____    ______ ____
ROOT
ATOM      1  N   UNL     1       1.062  10.945  19.474  0.00  0.00    +0.000 NA
ENDROOT
BRANCH   1   2
ATOM      2  C   UNL     1       0.897   9.571  20.036  0.00  0.00    +0.000 C 
BRANCH   2   6
ATOM      3  C   UNL     1       2.898   6.777  18.950  0.00  0.00    +0.000 A 
ATOM      4  C   UNL     1       3.038   7.677  17.919  0.00  0.00    +0.000 A 
ATOM      5  O   UNL     1       2.212   8.735  18.151  0.00  0.00    +0.000 OA
ATOM      6  C   UNL     1       1.613   8.440  19.351  0.00  0.00    +0.000 A 
ATOM      7  N   UNL     1       1.954   7.264  19.846  0.00  0.00    +0.000 NA
BRANCH   3   9
ATOM      8  O   UNL     1       4.938   5.652  19.051  0.00  0.00    +0.000 OA
ATOM      9  C   UNL     1       3.712   5.589  19.147  0.00  0.00    +0.000 C 
ATOM     10  N   UNL     1       3.068   4.402  19.479  0.00  0.00    +0.000 N 
ATOM     11  C   UNL     1       3.842   3.262  19.963  0.00  0.00    +0.000 C 
ATOM     12  C   UNL     1       3.705   2.073  19.011  0.00  0.00    +0.000 C 
ATOM     13  O   UNL     1       2.322   1.738  18.815  0.00  0.00    +0.000 OA
ATOM     14  C   UNL     1       1.602   2.849  18.256  0.00  0.00    +0.000 C 
ATOM     15  C   UNL     1       1.670   4.088  19.166  0.00  0.00    +0.000 C 
ENDBRANCH   3   9
ENDBRANCH   2   6
ENDBRANCH   1   2
BRANCH   1  16
ATOM     16  C   UNL     1      -0.108  11.293  18.610  0.00  0.00    +0.000 C 
BRANCH  16  17
ATOM     17  C   UNL     1      -1.272  10.273  18.631  0.00  0.00    +0.000 C 
BRANCH  17  18
ATOM     18  C   UNL     1      -2.446  10.692  17.788  0.00  0.00    +0.000 A 
ATOM     19  C   UNL     1      -2.648  10.366  16.460  0.00  0.00    +0.000 A 
ATOM     20  N   UNL     1      -3.849  10.887  16.062  0.00  0.00    +0.000 N 
ATOM     21  C   UNL     1      -4.439  11.568  17.100  0.00  0.00    +0.000 A 
ATOM     22  C   UNL     1      -5.657  12.257  17.147  0.00  0.00    +0.000 A 
ATOM     23  C   UNL     1      -6.018  12.853  18.358  0.00  0.00    +0.000 A 
ATOM     24  C   UNL     1      -5.195  12.753  19.478  0.00  0.00    +0.000 A 
ATOM     25  C   UNL     1      -3.981  12.058  19.413  0.00  0.00    +0.000 A 
ATOM     26  C   UNL     1      -3.586  11.459  18.199  0.00  0.00    +0.000 A 
ATOM     27  H   UNL     1      -4.258  10.782  15.144  0.00  0.00    +0.000 HD
ENDBRANCH  17  18
ENDBRANCH  16  17
ENDBRANCH   1  16
BRANCH   1  28
ATOM     28  C   UNL     1       1.130  11.892  20.620  0.00  0.00    +0.000 C 
BRANCH  28  29
ATOM     29  C   UNL     1      -0.182  12.186  21.329  0.00  0.00    +0.000 A 
ATOM     30  C   UNL     1      -0.661  11.265  22.280  0.00  0.00    +0.000 A 
ATOM     31  C   UNL     1      -1.773  11.562  23.073  0.00  0.00    +0.000 A 
ATOM     32  C   UNL     1      -2.422  12.786  22.935  0.00  0.00    +0.000 A 
ATOM     33  C   UNL     1      -1.988  13.693  21.971  0.00  0.00    +0.000 A 
ATOM     34  C   UNL     1      -0.886  13.391  21.161  0.00  0.00    +0.000 A 
ATOM     35 CL   UNL     1      -0.456  14.555  19.958  0.00  0.00    +0.000 Cl
ENDBRANCH  28  29
ENDBRANCH   1  28
TORSDOF 8
ENDMDL
MODEL 8
REMARK VINA RESULT:      -8.5      3.865     10.711
REMARK  Name = 
REMARK  8 active torsions:
REMARK  status: ('A' for Active; 'I' for Inactive)
REMARK    1  A    between atoms: C_2  and  C_3
REMARK    2  A    between atoms: C_6  and  C_7
REMARK    3  A    between atoms: C_7  and  N_8
REMARK    4  A    between atoms: N_8  and  C_9
REMARK    5  A    between atoms: N_8  and  C_20
REMARK    6  A    between atoms: C_9  and  C_10
REMARK    7  A    between atoms: C_10  and  C_11
REMARK    8  A    between atoms: C_20  and  C_21
REMARK                            x       y       z     vdW  Elec       q    Type
REMARK                         _______ _______ _______ _____ _____    ______ ____
ROOT
ATOM      1  N   UNL     1       0.299  10.440  19.226  0.00  0.00    +0.000 NA
ENDROOT
BRANCH   1   2
ATOM      2  C   UNL     1       1.423  10.120  18.297  0.00  0.00    +0.000 C 
BRANCH   2   6
ATOM      3  C   UNL     1       3.023   6.892  18.217  0.00  0.00    +0.000 A 
ATOM      4  C   UNL     1       2.397   6.896  19.442  0.00  0.00    +0.000 A 
ATOM      5  O   UNL     1       1.860   8.131  19.651  0.00  0.00    +0.000 OA
ATOM      6  C   UNL     1       2.166   8.830  18.509  0.00  0.00    +0.000 A 
ATOM      7  N   UNL     1       2.896   8.150  17.643  0.00  0.00    +0.000 NA
BRANCH   3   9
ATOM      8  O   UNL     1       2.998   4.642  17.600  0.00  0.00    +0.000 OA
ATOM      9  C   UNL     1       3.590   5.722  17.566  0.00  0.00    +0.000 C 
ATOM     10  N   UNL     1       4.791   5.872  16.880  0.00  0.00    +0.000 N 
ATOM     11  C   UNL     1       5.254   4.819  15.980  0.00  0.00    +0.000 C 
ATOM     12  C   UNL     1       6.586   4.245  16.462  0.00  0.00    +0.000 C 
ATOM     13  O   UNL     1       7.562   5.289  16.615  0.00  0.00    +0.000 OA
ATOM     14  C   UNL     1       7.119   6.265  17.572  0.00  0.00    +0.000 C 
ATOM     15  C   UNL     1       5.789   6.912  17.151  0.00  0.00    +0.000 C 
ENDBRANCH   3   9
ENDBRANCH   2   6
ENDBRANCH   1   2
BRANCH   1  16
ATOM     16  C   UNL     1       0.833  10.844  20.563  0.00  0.00    +0.000 C 
BRANCH  16  17
ATOM     17  C   UNL     1      -0.199  10.833  21.718  0.00  0.00    +0.000 C 
BRANCH  17  18
ATOM     18  C   UNL     1      -0.563  12.209  22.204  0.00  0.00    +0.000 A 
ATOM     19  C   UNL     1       0.143  13.371  21.954  0.00  0.00    +0.000 A 
ATOM     20  N   UNL     1      -0.530  14.419  22.519  0.00  0.00    +0.000 N 
ATOM     21  C   UNL     1      -1.662  13.969  23.155  0.00  0.00    +0.000 A 
ATOM     22  C   UNL     1      -2.638  14.680  23.864  0.00  0.00    +0.000 A 
ATOM     23  C   UNL     1      -3.705  13.956  24.402  0.00  0.00    +0.000 A 
ATOM     24  C   UNL     1      -3.794  12.577  24.226  0.00  0.00    +0.000 A 
ATOM     25  C   UNL     1      -2.809  11.882  23.512  0.00  0.00    +0.000 A 
ATOM     26  C   UNL     1      -1.715  12.588  22.970  0.00  0.00    +0.000 A 
ATOM     27  H   UNL     1      -0.250  15.389  22.471  0.00  0.00    +0.000 HD
ENDBRANCH  17  18
ENDBRANCH  16  17
ENDBRANCH   1  16
BRANCH   1  28
ATOM     28  C   UNL     1      -0.463  11.573  18.635  0.00  0.00    +0.000 C 
BRANCH  28  29
ATOM     29  C   UNL     1      -1.836  11.240  18.074  0.00  0.00    +0.000 A 
ATOM     30  C   UNL     1      -1.933  10.310  17.022  0.00  0.00    +0.000 A 
ATOM     31  C   UNL     1      -3.177   9.850  16.581  0.00  0.00    +0.000 A 
ATOM     32  C   UNL     1      -4.345  10.305  17.186  0.00  0.00    +0.000 A 
ATOM     33  C   UNL     1      -4.272  11.257  18.201  0.00  0.00    +0.000 A 
ATOM     34  C   UNL     1      -3.028  11.735  18.633  0.00  0.00    +0.000 A 
ATOM     35 CL   UNL     1      -3.040  12.953  19.859  0.00  0.00    +0.000 Cl
ENDBRANCH  28  29
ENDBRANCH   1  28
TORSDOF 8
ENDMDL
MODEL 9
REMARK VINA RESULT:      -8.4      3.503      6.114
REMARK  Name = 
REMARK  8 active torsions:
REMARK  status: ('A' for Active; 'I' for Inactive)
REMARK    1  A    between atoms: C_2  and  C_3
REMARK    2  A    between atoms: C_6  and  C_7
REMARK    3  A    between atoms: C_7  and  N_8
REMARK    4  A    between atoms: N_8  and  C_9
REMARK    5  A    between atoms: N_8  and  C_20
REMARK    6  A    between atoms: C_9  and  C_10
REMARK    7  A    between atoms: C_10  and  C_11
REMARK    8  A    between atoms: C_20  and  C_21
REMARK                            x       y       z     vdW  Elec       q    Type
REMARK                         _______ _______ _______ _____ _____    ______ ____
ROOT
ATOM      1  N   UNL     1       0.469   9.532  18.482  0.00  0.00    +0.000 NA
ENDROOT
BRANCH   1   2
ATOM      2  C   UNL     1      -0.106  10.558  17.562  0.00  0.00    +0.000 C 
BRANCH   2   6
ATOM      3  C   UNL     1      -3.652  11.196  17.649  0.00  0.00    +0.000 A 
ATOM      4  C   UNL     1      -3.581   9.826  17.759  0.00  0.00    +0.000 A 
ATOM      5  O   UNL     1      -2.283   9.444  17.603  0.00  0.00    +0.000 OA
ATOM      6  C   UNL     1      -1.602  10.624  17.428  0.00  0.00    +0.000 A 
ATOM      7  N   UNL     1      -2.378  11.693  17.403  0.00  0.00    +0.000 NA
BRANCH   3   9
ATOM      8  O   UNL     1      -5.600  12.289  16.979  0.00  0.00    +0.000 OA
ATOM      9  C   UNL     1      -4.836  12.001  17.901  0.00  0.00    +0.000 C 
ATOM     10  N   UNL     1      -5.092  12.397  19.209  0.00  0.00    +0.000 N 
ATOM     11  C   UNL     1      -6.396  12.953  19.562  0.00  0.00    +0.000 C 
ATOM     12  C   UNL     1      -6.253  14.392  20.058  0.00  0.00    +0.000 C 
ATOM     13  O   UNL     1      -5.326  14.461  21.154  0.00  0.00    +0.000 OA
ATOM     14  C   UNL     1      -4.028  13.990  20.754  0.00  0.00    +0.000 C 
ATOM     15  C   UNL     1      -4.077  12.534  20.260  0.00  0.00    +0.000 C 
ENDBRANCH   3   9
ENDBRANCH   2   6
ENDBRANCH   1   2
BRANCH   1  16
ATOM     16  C   UNL     1       1.524   8.739  17.776  0.00  0.00    +0.000 C 
BRANCH  16  17
ATOM     17  C   UNL     1       2.510   7.983  18.699  0.00  0.00    +0.000 C 
BRANCH  17  18
ATOM     18  C   UNL     1       3.206   6.838  18.016  0.00  0.00    +0.000 A 
ATOM     19  C   UNL     1       4.408   6.909  17.335  0.00  0.00    +0.000 A 
ATOM     20  N   UNL     1       4.736   5.654  16.900  0.00  0.00    +0.000 N 
ATOM     21  C   UNL     1       3.763   4.755  17.267  0.00  0.00    +0.000 A 
ATOM     22  C   UNL     1       3.680   3.376  17.035  0.00  0.00    +0.000 A 
ATOM     23  C   UNL     1       2.568   2.700  17.543  0.00  0.00    +0.000 A 
ATOM     24  C   UNL     1       1.586   3.377  18.263  0.00  0.00    +0.000 A 
ATOM     25  C   UNL     1       1.687   4.756  18.488  0.00  0.00    +0.000 A 
ATOM     26  C   UNL     1       2.793   5.465  17.974  0.00  0.00    +0.000 A 
ATOM     27  H   UNL     1       5.575   5.411  16.393  0.00  0.00    +0.000 HD
ENDBRANCH  17  18
ENDBRANCH  16  17
ENDBRANCH   1  16
BRANCH   1  28
ATOM     28  C   UNL     1       1.078  10.251  19.633  0.00  0.00    +0.000 C 
BRANCH  28  29
ATOM     29  C   UNL     1       0.212  10.387  20.874  0.00  0.00    +0.000 A 
ATOM     30  C   UNL     1       0.108   9.293  21.754  0.00  0.00    +0.000 A 
ATOM     31  C   UNL     1      -0.542   9.418  22.985  0.00  0.00    +0.000 A 
ATOM     32  C   UNL     1      -1.093  10.639  23.362  0.00  0.00    +0.000 A 
ATOM     33  C   UNL     1      -1.037  11.722  22.489  0.00  0.00    +0.000 A 
ATOM     34  C   UNL     1      -0.404  11.596  21.246  0.00  0.00    +0.000 A 
ATOM     35 CL   UNL     1      -0.432  12.978  20.208  0.00  0.00    +0.000 Cl
ENDBRANCH  28  29
ENDBRANCH   1  28
TORSDOF 8
ENDMDL
