MODEL 1
REMARK VINA RESULT:      -7.6      0.000      0.000
REMARK  Name = 
REMARK  9 active torsions:
REMARK  status: ('A' for Active; 'I' for Inactive)
REMARK    1  A    between atoms: C_1  and  C_2
REMARK    2  A    between atoms: C_2  and  N_3
REMARK    3  A    between atoms: N_3  and  C_4
REMARK    4  A    between atoms: C_4  and  C_5
REMARK    5  A    between atoms: N_13  and  C_14
REMARK    6  A    between atoms: C_16  and  C_17
REMARK    7  A    between atoms: C_20  and  C_21
REMARK    8  A    between atoms: C_25  and  C_26
REMARK    9  A    between atoms: C_26  and  O_28
REMARK                            x       y       z     vdW  Elec       q    Type
REMARK                         _______ _______ _______ _____ _____    ______ ____
ROOT
ATOM      1  C   UNL     1       1.345   9.008  19.157  0.00  0.00    +0.000 A 
ATOM      2  C   UNL     1       2.031   8.365  18.077  0.00  0.00    +0.000 A 
ATOM      3  C   UNL     1       2.705   7.219  18.440  0.00  0.00    +0.000 A 
ATOM      4  S   UNL     1       2.427   6.870  20.087  0.00  0.00    +0.000 S 
ATOM      5  C   UNL     1       1.438   8.251  20.317  0.00  0.00    +0.000 A 
ENDROOT
BRANCH   3   6
ATOM      6  C   UNL     1       3.579   6.378  17.609  0.00  0.00    +0.000 A 
ATOM      7  C   UNL     1       3.466   4.979  17.658  0.00  0.00    +0.000 A 
ATOM      8  C   UNL     1       4.283   4.165  16.867  0.00  0.00    +0.000 A 
ATOM      9  C   UNL     1       5.229   4.733  16.010  0.00  0.00    +0.000 A 
ATOM     10  C   UNL     1       6.103   3.883  15.140  0.00  0.00    +0.000 C 
ATOM     11  C   UNL     1       5.351   6.125  15.963  0.00  0.00    +0.000 A 
ATOM     12  C   UNL     1       4.539   6.938  16.757  0.00  0.00    +0.000 A 
ENDBRANCH   3   6
BRANCH   1  16
ATOM     13  N   UNL     1      -1.172  11.545  18.342  0.00  0.00    +0.000 N 
ATOM     14  C   UNL     1      -0.412  10.390  18.210  0.00  0.00    +0.000 C 
ATOM     15  O   UNL     1      -0.694   9.529  17.379  0.00  0.00    +0.000 OA
ATOM     16  N   UNL     1       0.661  10.233  19.064  0.00  0.00    +0.000 N 
ATOM     17  H   UNL     1       1.151  11.044  19.418  0.00  0.00    +0.000 HD
BRANCH  13  19
ATOM     18  C   UNL     1      -3.723  11.024  18.193  0.00  0.00    +0.000 C 
ATOM     19  C   UNL     1      -2.466  11.692  17.637  0.00  0.00    +0.000 C 
ENDBRANCH  13  19
BRANCH  13  20
ATOM     20  C   UNL     1      -0.824  12.661  19.230  0.00  0.00    +0.000 C 
BRANCH  20  21
ATOM     21  C   UNL     1      -1.356  12.589  20.647  0.00  0.00    +0.000 A 
ATOM     22  C   UNL     1      -0.719  11.883  21.675  0.00  0.00    +0.000 A 
ATOM     23  C   UNL     1      -1.313  11.761  22.935  0.00  0.00    +0.000 A 
ATOM     24  C   UNL     1      -2.545  12.360  23.190  0.00  0.00    +0.000 A 
ATOM     25  C   UNL     1      -3.168  13.109  22.197  0.00  0.00    +0.000 A 
ATOM     26  C   UNL     1      -2.577  13.226  20.937  0.00  0.00    +0.000 A 
ENDBRANCH  20  21
ENDBRANCH  13  20
ENDBRANCH   1  16
BRANCH   5  27
ATOM     27  C   UNL     1       0.859   8.536  21.611  0.00  0.00    +0.000 C 
ATOM     28  O   UNL     1      -0.317   8.349  21.908  0.00  0.00    +0.000 OA
BRANCH  27  29
ATOM     29  O   UNL     1       1.746   9.060  22.500  0.00  0.00    +0.000 OA
ATOM     30  H   UNL     1       1.326   9.229  23.367  0.00  0.00    +0.000 HD
ENDBRANCH  27  29
ENDBRANCH   5  27
TORSDOF 7
ENDMDL
MODEL 2
REMARK VINA RESULT:      -7.5      3.669      8.899
REMARK  Name = 
REMARK  9 active torsions:
REMARK  status: ('A' for Active; 'I' for Inactive)
REMARK    1  A    between atoms: C_1  and  C_2
REMARK    2  A    between atoms: C_2  and  N_3
REMARK    3  A    between atoms: N_3  and  C_4
REMARK    4  A    between atoms: C_4  and  C_5
REMARK    5  A    between atoms: N_13  and  C_14
REMARK    6  A    between atoms: C_16  and  C_17
REMARK    7  A    between atoms: C_20  and  C_21
REMARK    8  A    between atoms: C_25  and  C_26
REMARK    9  A    between atoms: C_26  and  O_28
REMARK                            x       y       z     vdW  Elec       q    Type
REMARK                         _______ _______ _______ _____ _____    ______ ____
ROOT
ATOM      1  C   UNL     1       3.626   5.191  19.180  0.00  0.00    +0.000 A 
ATOM      2  C   UNL     1       3.166   6.543  19.289  0.00  0.00    +0.000 A 
ATOM      3  C   UNL     1       2.089   6.705  20.134  0.00  0.00    +0.000 A 
ATOM      4  S   UNL     1       1.692   5.218  20.873  0.00  0.00    +0.000 S 
ATOM      5  C   UNL     1       2.930   4.364  20.051  0.00  0.00    +0.000 A 
ENDROOT
BRANCH   3   6
ATOM      6  C   UNL     1       1.318   7.929  20.397  0.00  0.00    +0.000 A 
ATOM      7  C   UNL     1       1.336   8.985  19.472  0.00  0.00    +0.000 A 
ATOM      8  C   UNL     1       0.601  10.153  19.702  0.00  0.00    +0.000 A 
ATOM      9  C   UNL     1      -0.168  10.287  20.861  0.00  0.00    +0.000 A 
ATOM     10  C   UNL     1      -0.978  11.520  21.121  0.00  0.00    +0.000 C 
ATOM     11  C   UNL     1      -0.183   9.242  21.789  0.00  0.00    +0.000 A 
ATOM     12  C   UNL     1       0.556   8.078  21.562  0.00  0.00    +0.000 A 
ENDBRANCH   3   6
BRANCH   1  16
ATOM     13  N   UNL     1       5.448   4.127  16.183  0.00  0.00    +0.000 N 
ATOM     14  C   UNL     1       4.373   4.323  17.040  0.00  0.00    +0.000 C 
ATOM     15  O   UNL     1       3.216   4.139  16.667  0.00  0.00    +0.000 OA
ATOM     16  N   UNL     1       4.650   4.753  18.321  0.00  0.00    +0.000 N 
ATOM     17  H   UNL     1       5.524   4.502  18.764  0.00  0.00    +0.000 HD
BRANCH  13  19
ATOM     18  C   UNL     1       6.402   4.049  13.758  0.00  0.00    +0.000 C 
ATOM     19  C   UNL     1       5.239   3.892  14.736  0.00  0.00    +0.000 C 
ENDBRANCH  13  19
BRANCH  13  20
ATOM     20  C   UNL     1       6.855   4.215  16.596  0.00  0.00    +0.000 C 
BRANCH  20  21
ATOM     21  C   UNL     1       7.274   5.489  17.299  0.00  0.00    +0.000 A 
ATOM     22  C   UNL     1       7.194   6.758  16.710  0.00  0.00    +0.000 A 
ATOM     23  C   UNL     1       7.697   7.885  17.365  0.00  0.00    +0.000 A 
ATOM     24  C   UNL     1       8.271   7.763  18.630  0.00  0.00    +0.000 A 
ATOM     25  C   UNL     1       8.312   6.520  19.253  0.00  0.00    +0.000 A 
ATOM     26  C   UNL     1       7.814   5.393  18.595  0.00  0.00    +0.000 A 
ENDBRANCH  20  21
ENDBRANCH  13  20
ENDBRANCH   1  16
BRANCH   5  27
ATOM     27  C   UNL     1       3.113   2.946  20.265  0.00  0.00    +0.000 C 
ATOM     28  O   UNL     1       3.287   2.120  19.373  0.00  0.00    +0.000 OA
BRANCH  27  29
ATOM     29  O   UNL     1       3.059   2.581  21.575  0.00  0.00    +0.000 OA
ATOM     30  H   UNL     1       2.209   2.148  21.791  0.00  0.00    +0.000 HD
ENDBRANCH  27  29
ENDBRANCH   5  27
TORSDOF 7
ENDMDL
MODEL 3
REMARK VINA RESULT:      -7.5      0.659      1.042
REMARK  Name = 
REMARK  9 active torsions:
REMARK  status: ('A' for Active; 'I' for Inactive)
REMARK    1  A    between atoms: C_1  and  C_2
REMARK    2  A    between atoms: C_2  and  N_3
REMARK    3  A    between atoms: N_3  and  C_4
REMARK    4  A    between atoms: C_4  and  C_5
REMARK    5  A    between atoms: N_13  and  C_14
REMARK    6  A    between atoms: C_16  and  C_17
REMARK    7  A    between atoms: C_20  and  C_21
REMARK    8  A    between atoms: C_25  and  C_26
REMARK    9  A    between atoms: C_26  and  O_28
REMARK                            x       y       z     vdW  Elec       q    Type
REMARK                         _______ _______ _______ _____ _____    ______ ____
ROOT
ATOM      1  C   UNL     1       1.523   9.018  19.011  0.00  0.00    +0.000 A 
ATOM      2  C   UNL     1       2.227   8.377  17.942  0.00  0.00    +0.000 A 
ATOM      3  C   UNL     1       2.799   7.171  18.288  0.00  0.00    +0.000 A 
ATOM      4  S   UNL     1       2.400   6.770  19.898  0.00  0.00    +0.000 S 
ATOM      5  C   UNL     1       1.494   8.206  20.137  0.00  0.00    +0.000 A 
ENDROOT
BRANCH   3   6
ATOM      6  C   UNL     1       3.663   6.308  17.468  0.00  0.00    +0.000 A 
ATOM      7  C   UNL     1       3.514   4.912  17.517  0.00  0.00    +0.000 A 
ATOM      8  C   UNL     1       4.321   4.077  16.737  0.00  0.00    +0.000 A 
ATOM      9  C   UNL     1       5.292   4.622  15.892  0.00  0.00    +0.000 A 
ATOM     10  C   UNL     1       6.155   3.750  15.033  0.00  0.00    +0.000 C 
ATOM     11  C   UNL     1       5.449   6.010  15.845  0.00  0.00    +0.000 A 
ATOM     12  C   UNL     1       4.647   6.843  16.628  0.00  0.00    +0.000 A 
ENDBRANCH   3   6
BRANCH   1  16
ATOM     13  N   UNL     1      -0.891  11.713  18.424  0.00  0.00    +0.000 N 
ATOM     14  C   UNL     1      -0.256  10.489  18.259  0.00  0.00    +0.000 C 
ATOM     15  O   UNL     1      -0.739   9.608  17.552  0.00  0.00    +0.000 OA
ATOM     16  N   UNL     1       0.929  10.291  18.937  0.00  0.00    +0.000 N 
ATOM     17  H   UNL     1       1.533  11.075  19.145  0.00  0.00    +0.000 HD
BRANCH  13  19
ATOM     18  C   UNL     1      -3.460  11.752  18.869  0.00  0.00    +0.000 C 
ATOM     19  C   UNL     1      -2.269  11.931  17.929  0.00  0.00    +0.000 C 
ENDBRANCH  13  19
BRANCH  13  20
ATOM     20  C   UNL     1      -0.314  12.847  19.158  0.00  0.00    +0.000 C 
BRANCH  20  21
ATOM     21  C   UNL     1      -0.826  13.072  20.566  0.00  0.00    +0.000 A 
ATOM     22  C   UNL     1      -1.350  14.293  21.010  0.00  0.00    +0.000 A 
ATOM     23  C   UNL     1      -1.705  14.474  22.350  0.00  0.00    +0.000 A 
ATOM     24  C   UNL     1      -1.560  13.430  23.262  0.00  0.00    +0.000 A 
ATOM     25  C   UNL     1      -1.090  12.195  22.828  0.00  0.00    +0.000 A 
ATOM     26  C   UNL     1      -0.729  12.016  21.490  0.00  0.00    +0.000 A 
ENDBRANCH  20  21
ENDBRANCH  13  20
ENDBRANCH   1  16
BRANCH   5  27
ATOM     27  C   UNL     1       0.859   8.474  21.408  0.00  0.00    +0.000 C 
ATOM     28  O   UNL     1      -0.354   8.485  21.596  0.00  0.00    +0.000 OA
BRANCH  27  29
ATOM     29  O   UNL     1       1.740   8.739  22.411  0.00  0.00    +0.000 OA
ATOM     30  H   UNL     1       1.285   9.082  23.205  0.00  0.00    +0.000 HD
ENDBRANCH  27  29
ENDBRANCH   5  27
TORSDOF 7
ENDMDL
MODEL 4
REMARK VINA RESULT:      -7.5      3.672      8.874
REMARK  Name = 
REMARK  9 active torsions:
REMARK  status: ('A' for Active; 'I' for Inactive)
REMARK    1  A    between atoms: C_1  and  C_2
REMARK    2  A    between atoms: C_2  and  N_3
REMARK    3  A    between atoms: N_3  and  C_4
REMARK    4  A    between atoms: C_4  and  C_5
REMARK    5  A    between atoms: N_13  and  C_14
REMARK    6  A    between atoms: C_16  and  C_17
REMARK    7  A    between atoms: C_20  and  C_21
REMARK    8  A    between atoms: C_25  and  C_26
REMARK    9  A    between atoms: C_26  and  O_28
REMARK                            x       y       z     vdW  Elec       q    Type
REMARK                         _______ _______ _______ _____ _____    ______ ____
ROOT
ATOM      1  C   UNL     1       3.600   5.224  19.200  0.00  0.00    +0.000 A 
ATOM      2  C   UNL     1       3.163   6.582  19.323  0.00  0.00    +0.000 A 
ATOM      3  C   UNL     1       2.058   6.747  20.131  0.00  0.00    +0.000 A 
ATOM      4  S   UNL     1       1.603   5.253  20.819  0.00  0.00    +0.000 S 
ATOM      5  C   UNL     1       2.855   4.392  20.024  0.00  0.00    +0.000 A 
ENDROOT
BRANCH   3   6
ATOM      6  C   UNL     1       1.303   7.981  20.394  0.00  0.00    +0.000 A 
ATOM      7  C   UNL     1       0.601   8.134  21.601  0.00  0.00    +0.000 A 
ATOM      8  C   UNL     1      -0.115   9.305  21.871  0.00  0.00    +0.000 A 
ATOM      9  C   UNL     1      -0.143  10.346  20.940  0.00  0.00    +0.000 A 
ATOM     10  C   UNL     1      -0.887  11.617  21.214  0.00  0.00    +0.000 C 
ATOM     11  C   UNL     1       0.547  10.196  19.734  0.00  0.00    +0.000 A 
ATOM     12  C   UNL     1       1.257   9.025  19.462  0.00  0.00    +0.000 A 
ENDBRANCH   3   6
BRANCH   1  16
ATOM     13  N   UNL     1       5.500   4.149  16.256  0.00  0.00    +0.000 N 
ATOM     14  C   UNL     1       4.403   4.346  17.084  0.00  0.00    +0.000 C 
ATOM     15  O   UNL     1       3.256   4.157  16.683  0.00  0.00    +0.000 OA
ATOM     16  N   UNL     1       4.646   4.785  18.369  0.00  0.00    +0.000 N 
ATOM     17  H   UNL     1       5.510   4.539  18.835  0.00  0.00    +0.000 HD
BRANCH  13  19
ATOM     18  C   UNL     1       6.492   4.147  13.844  0.00  0.00    +0.000 C 
ATOM     19  C   UNL     1       5.328   3.906  14.805  0.00  0.00    +0.000 C 
ENDBRANCH  13  19
BRANCH  13  20
ATOM     20  C   UNL     1       6.896   4.243  16.704  0.00  0.00    +0.000 C 
BRANCH  20  21
ATOM     21  C   UNL     1       7.306   5.542  17.366  0.00  0.00    +0.000 A 
ATOM     22  C   UNL     1       7.211   6.792  16.739  0.00  0.00    +0.000 A 
ATOM     23  C   UNL     1       7.707   7.943  17.358  0.00  0.00    +0.000 A 
ATOM     24  C   UNL     1       8.287   7.865  18.622  0.00  0.00    +0.000 A 
ATOM     25  C   UNL     1       8.344   6.641  19.283  0.00  0.00    +0.000 A 
ATOM     26  C   UNL     1       7.854   5.490  18.662  0.00  0.00    +0.000 A 
ENDBRANCH  20  21
ENDBRANCH  13  20
ENDBRANCH   1  16
BRANCH   5  27
ATOM     27  C   UNL     1       3.001   2.965  20.211  0.00  0.00    +0.000 C 
ATOM     28  O   UNL     1       3.288   2.425  21.276  0.00  0.00    +0.000 OA
BRANCH  27  29
ATOM     29  O   UNL     1       2.804   2.244  19.074  0.00  0.00    +0.000 OA
ATOM     30  H   UNL     1       2.550   2.819  18.325  0.00  0.00    +0.000 HD
ENDBRANCH  27  29
ENDBRANCH   5  27
TORSDOF 7
ENDMDL
MODEL 5
REMARK VINA RESULT:      -7.4      3.653      8.862
REMARK  Name = 
REMARK  9 active torsions:
REMARK  status: ('A' for Active; 'I' for Inactive)
REMARK    1  A    between atoms: C_1  and  C_2
REMARK    2  A    between atoms: C_2  and  N_3
REMARK    3  A    between atoms: N_3  and  C_4
REMARK    4  A    between atoms: C_4  and  C_5
REMARK    5  A    between atoms: N_13  and  C_14
REMARK    6  A    between atoms: C_16  and  C_17
REMARK    7  A    between atoms: C_20  and  C_21
REMARK    8  A    between atoms: C_25  and  C_26
REMARK    9  A    between atoms: C_26  and  O_28
REMARK                            x       y       z     vdW  Elec       q    Type
REMARK                         _______ _______ _______ _____ _____    ______ ____
ROOT
ATOM      1  C   UNL     1       3.617   5.235  19.237  0.00  0.00    +0.000 A 
ATOM      2  C   UNL     1       3.194   6.601  19.303  0.00  0.00    +0.000 A 
ATOM      3  C   UNL     1       2.097   6.813  20.111  0.00  0.00    +0.000 A 
ATOM      4  S   UNL     1       1.634   5.355  20.868  0.00  0.00    +0.000 S 
ATOM      5  C   UNL     1       2.871   4.447  20.103  0.00  0.00    +0.000 A 
ENDROOT
BRANCH   3   6
ATOM      6  C   UNL     1       1.355   8.064  20.324  0.00  0.00    +0.000 A 
ATOM      7  C   UNL     1       1.318   9.042  19.316  0.00  0.00    +0.000 A 
ATOM      8  C   UNL     1       0.608  10.233  19.498  0.00  0.00    +0.000 A 
ATOM      9  C   UNL     1      -0.079  10.471  20.692  0.00  0.00    +0.000 A 
ATOM     10  C   UNL     1      -0.860  11.731  20.904  0.00  0.00    +0.000 C 
ATOM     11  C   UNL     1      -0.038   9.505  21.701  0.00  0.00    +0.000 A 
ATOM     12  C   UNL     1       0.674   8.317  21.521  0.00  0.00    +0.000 A 
ENDBRANCH   3   6
BRANCH   1  16
ATOM     13  N   UNL     1       5.512   4.102  16.311  0.00  0.00    +0.000 N 
ATOM     14  C   UNL     1       4.411   4.349  17.120  0.00  0.00    +0.000 C 
ATOM     15  O   UNL     1       3.264   4.237  16.693  0.00  0.00    +0.000 OA
ATOM     16  N   UNL     1       4.653   4.749  18.419  0.00  0.00    +0.000 N 
ATOM     17  H   UNL     1       5.490   4.443  18.897  0.00  0.00    +0.000 HD
BRANCH  13  19
ATOM     18  C   UNL     1       6.507   4.234  13.904  0.00  0.00    +0.000 C 
ATOM     19  C   UNL     1       5.357   3.897  14.853  0.00  0.00    +0.000 C 
ENDBRANCH  13  19
BRANCH  13  20
ATOM     20  C   UNL     1       6.902   4.104  16.789  0.00  0.00    +0.000 C 
BRANCH  20  21
ATOM     21  C   UNL     1       7.404   5.397  17.399  0.00  0.00    +0.000 A 
ATOM     22  C   UNL     1       7.968   5.477  18.679  0.00  0.00    +0.000 A 
ATOM     23  C   UNL     1       8.313   6.714  19.232  0.00  0.00    +0.000 A 
ATOM     24  C   UNL     1       8.117   7.887  18.506  0.00  0.00    +0.000 A 
ATOM     25  C   UNL     1       7.606   7.822  17.214  0.00  0.00    +0.000 A 
ATOM     26  C   UNL     1       7.256   6.587  16.663  0.00  0.00    +0.000 A 
ENDBRANCH  20  21
ENDBRANCH  13  20
ENDBRANCH   1  16
BRANCH   5  27
ATOM     27  C   UNL     1       3.005   3.029  20.353  0.00  0.00    +0.000 C 
ATOM     28  O   UNL     1       3.200   2.529  21.457  0.00  0.00    +0.000 OA
BRANCH  27  29
ATOM     29  O   UNL     1       2.913   2.268  19.229  0.00  0.00    +0.000 OA
ATOM     30  H   UNL     1       2.126   1.687  19.254  0.00  0.00    +0.000 HD
ENDBRANCH  27  29
ENDBRANCH   5  27
TORSDOF 7
ENDMDL
MODEL 6
REMARK VINA RESULT:      -7.4      0.349      1.458
REMARK  Name = 
REMARK  9 active torsions:
REMARK  status: ('A' for Active; 'I' for Inactive)
REMARK    1  A    between atoms: C_1  and  C_2
REMARK    2  A    between atoms: C_2  and  N_3
REMARK    3  A    between atoms: N_3  and  C_4
REMARK    4  A    between atoms: C_4  and  C_5
REMARK    5  A    between atoms: N_13  and  C_14
REMARK    6  A    between atoms: C_16  and  C_17
REMARK    7  A    between atoms: C_20  and  C_21
REMARK    8  A    between atoms: C_25  and  C_26
REMARK    9  A    between atoms: C_26  and  O_28
REMARK                            x       y       z     vdW  Elec       q    Type
REMARK                         _______ _______ _______ _____ _____    ______ ____
ROOT
ATOM      1  C   UNL     1       1.111   9.086  19.282  0.00  0.00    +0.000 A 
ATOM      2  C   UNL     1       1.805   8.437  18.211  0.00  0.00    +0.000 A 
ATOM      3  C   UNL     1       2.528   7.328  18.597  0.00  0.00    +0.000 A 
ATOM      4  S   UNL     1       2.287   7.019  20.258  0.00  0.00    +0.000 S 
ATOM      5  C   UNL     1       1.249   8.368  20.463  0.00  0.00    +0.000 A 
ENDROOT
BRANCH   3   6
ATOM      6  C   UNL     1       3.421   6.497  17.778  0.00  0.00    +0.000 A 
ATOM      7  C   UNL     1       4.427   7.096  17.002  0.00  0.00    +0.000 A 
ATOM      8  C   UNL     1       5.291   6.319  16.224  0.00  0.00    +0.000 A 
ATOM      9  C   UNL     1       5.168   4.927  16.207  0.00  0.00    +0.000 A 
ATOM     10  C   UNL     1       6.093   4.073  15.396  0.00  0.00    +0.000 C 
ATOM     11  C   UNL     1       4.164   4.326  16.971  0.00  0.00    +0.000 A 
ATOM     12  C   UNL     1       3.297   5.102  17.743  0.00  0.00    +0.000 A 
ENDBRANCH   3   6
BRANCH   1  16
ATOM     13  N   UNL     1      -1.452  11.527  18.329  0.00  0.00    +0.000 N 
ATOM     14  C   UNL     1      -0.630  10.412  18.231  0.00  0.00    +0.000 C 
ATOM     15  O   UNL     1      -0.804   9.562  17.360  0.00  0.00    +0.000 OA
ATOM     16  N   UNL     1       0.378  10.280  19.164  0.00  0.00    +0.000 N 
ATOM     17  H   UNL     1       0.800  11.102  19.575  0.00  0.00    +0.000 HD
BRANCH  13  19
ATOM     18  C   UNL     1      -3.928  10.826  17.913  0.00  0.00    +0.000 C 
ATOM     19  C   UNL     1      -2.691  11.635  17.526  0.00  0.00    +0.000 C 
ENDBRANCH  13  19
BRANCH  13  20
ATOM     20  C   UNL     1      -1.228  12.633  19.269  0.00  0.00    +0.000 C 
BRANCH  20  21
ATOM     21  C   UNL     1      -1.874  12.501  20.633  0.00  0.00    +0.000 A 
ATOM     22  C   UNL     1      -3.162  12.967  20.925  0.00  0.00    +0.000 A 
ATOM     23  C   UNL     1      -3.663  12.917  22.229  0.00  0.00    +0.000 A 
ATOM     24  C   UNL     1      -2.891  12.381  23.257  0.00  0.00    +0.000 A 
ATOM     25  C   UNL     1      -1.629  11.865  22.977  0.00  0.00    +0.000 A 
ATOM     26  C   UNL     1      -1.126  11.921  21.675  0.00  0.00    +0.000 A 
ENDBRANCH  20  21
ENDBRANCH  13  20
ENDBRANCH   1  16
BRANCH   5  27
ATOM     27  C   UNL     1       0.679   8.669  21.757  0.00  0.00    +0.000 C 
ATOM     28  O   UNL     1       1.254   9.290  22.647  0.00  0.00    +0.000 OA
BRANCH  27  29
ATOM     29  O   UNL     1      -0.580   8.181  21.924  0.00  0.00    +0.000 OA
ATOM     30  H   UNL     1      -1.207   8.585  21.292  0.00  0.00    +0.000 HD
ENDBRANCH  27  29
ENDBRANCH   5  27
TORSDOF 7
ENDMDL
MODEL 7
REMARK VINA RESULT:      -7.4      3.040      8.529
REMARK  Name = 
REMARK  9 active torsions:
REMARK  status: ('A' for Active; 'I' for Inactive)
REMARK    1  A    between atoms: C_1  and  C_2
REMARK    2  A    between atoms: C_2  and  N_3
REMARK    3  A    between atoms: N_3  and  C_4
REMARK    4  A    between atoms: C_4  and  C_5
REMARK    5  A    between atoms: N_13  and  C_14
REMARK    6  A    between atoms: C_16  and  C_17
REMARK    7  A    between atoms: C_20  and  C_21
REMARK    8  A    between atoms: C_25  and  C_26
REMARK    9  A    between atoms: C_26  and  O_28
REMARK                            x       y       z     vdW  Elec       q    Type
REMARK                         _______ _______ _______ _____ _____    ______ ____
ROOT
ATOM      1  C   UNL     1       2.658   7.314  18.351  0.00  0.00    +0.000 A 
ATOM      2  C   UNL     1       2.443   8.681  17.983  0.00  0.00    +0.000 A 
ATOM      3  C   UNL     1       1.705   9.401  18.898  0.00  0.00    +0.000 A 
ATOM      4  S   UNL     1       1.349   8.435  20.258  0.00  0.00    +0.000 S 
ATOM      5  C   UNL     1       2.151   7.061  19.619  0.00  0.00    +0.000 A 
ENDROOT
BRANCH   3   6
ATOM      6  C   UNL     1       1.226  10.787  18.787  0.00  0.00    +0.000 A 
ATOM      7  C   UNL     1      -0.127  11.085  19.016  0.00  0.00    +0.000 A 
ATOM      8  C   UNL     1      -0.597  12.399  18.924  0.00  0.00    +0.000 A 
ATOM      9  C   UNL     1       0.276  13.441  18.603  0.00  0.00    +0.000 A 
ATOM     10  C   UNL     1      -0.200  14.859  18.517  0.00  0.00    +0.000 C 
ATOM     11  C   UNL     1       1.622  13.149  18.367  0.00  0.00    +0.000 A 
ATOM     12  C   UNL     1       2.091  11.836  18.453  0.00  0.00    +0.000 A 
ENDBRANCH   3   6
BRANCH   1  16
ATOM     13  N   UNL     1       5.256   5.340  16.681  0.00  0.00    +0.000 N 
ATOM     14  C   UNL     1       4.653   6.438  17.280  0.00  0.00    +0.000 C 
ATOM     15  O   UNL     1       5.300   7.441  17.577  0.00  0.00    +0.000 OA
ATOM     16  N   UNL     1       3.303   6.354  17.551  0.00  0.00    +0.000 N 
ATOM     17  H   UNL     1       2.702   5.787  16.967  0.00  0.00    +0.000 HD
BRANCH  13  19
ATOM     18  C   UNL     1       7.557   4.704  17.729  0.00  0.00    +0.000 C 
ATOM     19  C   UNL     1       6.729   5.247  16.565  0.00  0.00    +0.000 C 
ENDBRANCH  13  19
BRANCH  13  20
ATOM     20  C   UNL     1       4.524   4.163  16.196  0.00  0.00    +0.000 C 
BRANCH  20  21
ATOM     21  C   UNL     1       3.733   3.386  17.229  0.00  0.00    +0.000 A 
ATOM     22  C   UNL     1       2.336   3.280  17.210  0.00  0.00    +0.000 A 
ATOM     23  C   UNL     1       1.653   2.642  18.250  0.00  0.00    +0.000 A 
ATOM     24  C   UNL     1       2.358   2.085  19.314  0.00  0.00    +0.000 A 
ATOM     25  C   UNL     1       3.749   2.135  19.324  0.00  0.00    +0.000 A 
ATOM     26  C   UNL     1       4.431   2.777  18.288  0.00  0.00    +0.000 A 
ENDBRANCH  20  21
ENDBRANCH  13  20
ENDBRANCH   1  16
BRANCH   5  27
ATOM     27  C   UNL     1       2.193   5.821  20.360  0.00  0.00    +0.000 C 
ATOM     28  O   UNL     1       1.214   5.269  20.857  0.00  0.00    +0.000 OA
BRANCH  27  29
ATOM     29  O   UNL     1       3.445   5.302  20.484  0.00  0.00    +0.000 OA
ATOM     30  H   UNL     1       3.491   4.391  20.132  0.00  0.00    +0.000 HD
ENDBRANCH  27  29
ENDBRANCH   5  27
TORSDOF 7
ENDMDL
MODEL 8
REMARK VINA RESULT:      -7.3      3.630      8.834
REMARK  Name = 
REMARK  9 active torsions:
REMARK  status: ('A' for Active; 'I' for Inactive)
REMARK    1  A    between atoms: C_1  and  C_2
REMARK    2  A    between atoms: C_2  and  N_3
REMARK    3  A    between atoms: N_3  and  C_4
REMARK    4  A    between atoms: C_4  and  C_5
REMARK    5  A    between atoms: N_13  and  C_14
REMARK    6  A    between atoms: C_16  and  C_17
REMARK    7  A    between atoms: C_20  and  C_21
REMARK    8  A    between atoms: C_25  and  C_26
REMARK    9  A    between atoms: C_26  and  O_28
REMARK                            x       y       z     vdW  Elec       q    Type
REMARK                         _______ _______ _______ _____ _____    ______ ____
ROOT
ATOM      1  C   UNL     1       3.603   5.208  19.186  0.00  0.00    +0.000 A 
ATOM      2  C   UNL     1       3.237   6.585  19.330  0.00  0.00    +0.000 A 
ATOM      3  C   UNL     1       2.142   6.795  20.140  0.00  0.00    +0.000 A 
ATOM      4  S   UNL     1       1.610   5.317  20.806  0.00  0.00    +0.000 S 
ATOM      5  C   UNL     1       2.815   4.403  19.998  0.00  0.00    +0.000 A 
ENDROOT
BRANCH   3   6
ATOM      6  C   UNL     1       1.451   8.062  20.421  0.00  0.00    +0.000 A 
ATOM      7  C   UNL     1       0.928   8.311  21.701  0.00  0.00    +0.000 A 
ATOM      8  C   UNL     1       0.277   9.516  21.988  0.00  0.00    +0.000 A 
ATOM      9  C   UNL     1       0.136  10.495  21.001  0.00  0.00    +0.000 A 
ATOM     10  C   UNL     1      -0.541  11.799  21.289  0.00  0.00    +0.000 C 
ATOM     11  C   UNL     1       0.648  10.249  19.724  0.00  0.00    +0.000 A 
ATOM     12  C   UNL     1       1.293   9.045  19.436  0.00  0.00    +0.000 A 
ENDBRANCH   3   6
BRANCH   1  16
ATOM     13  N   UNL     1       5.459   4.116  16.220  0.00  0.00    +0.000 N 
ATOM     14  C   UNL     1       4.368   4.360  17.044  0.00  0.00    +0.000 C 
ATOM     15  O   UNL     1       3.216   4.271  16.624  0.00  0.00    +0.000 OA
ATOM     16  N   UNL     1       4.625   4.727  18.349  0.00  0.00    +0.000 N 
ATOM     17  H   UNL     1       5.462   4.400  18.813  0.00  0.00    +0.000 HD
BRANCH  13  19
ATOM     18  C   UNL     1       6.476   4.158  13.819  0.00  0.00    +0.000 C 
ATOM     19  C   UNL     1       5.289   3.945  14.759  0.00  0.00    +0.000 C 
ENDBRANCH  13  19
BRANCH  13  20
ATOM     20  C   UNL     1       6.852   4.090  16.686  0.00  0.00    +0.000 C 
BRANCH  20  21
ATOM     21  C   UNL     1       7.369   5.355  17.340  0.00  0.00    +0.000 A 
ATOM     22  C   UNL     1       7.928   5.386  18.624  0.00  0.00    +0.000 A 
ATOM     23  C   UNL     1       8.287   6.599  19.219  0.00  0.00    +0.000 A 
ATOM     24  C   UNL     1       8.112   7.798  18.530  0.00  0.00    +0.000 A 
ATOM     25  C   UNL     1       7.607   7.782  17.234  0.00  0.00    +0.000 A 
ATOM     26  C   UNL     1       7.243   6.570  16.642  0.00  0.00    +0.000 A 
ENDBRANCH  20  21
ENDBRANCH  13  20
ENDBRANCH   1  16
BRANCH   5  27
ATOM     27  C   UNL     1       2.887   2.969  20.164  0.00  0.00    +0.000 C 
ATOM     28  O   UNL     1       1.919   2.238  20.360  0.00  0.00    +0.000 OA
BRANCH  27  29
ATOM     29  O   UNL     1       4.153   2.476  20.101  0.00  0.00    +0.000 OA
ATOM     30  H   UNL     1       4.411   2.043  20.939  0.00  0.00    +0.000 HD
ENDBRANCH  27  29
ENDBRANCH   5  27
TORSDOF 7
ENDMDL
MODEL 9
REMARK VINA RESULT:      -7.2      2.357      9.146
REMARK  Name = 
REMARK  9 active torsions:
REMARK  status: ('A' for Active; 'I' for Inactive)
REMARK    1  A    between atoms: C_1  and  C_2
REMARK    2  A    between atoms: C_2  and  N_3
REMARK    3  A    between atoms: N_3  and  C_4
REMARK    4  A    between atoms: C_4  and  C_5
REMARK    5  A    between atoms: N_13  and  C_14
REMARK    6  A    between atoms: C_16  and  C_17
REMARK    7  A    between atoms: C_20  and  C_21
REMARK    8  A    between atoms: C_25  and  C_26
REMARK    9  A    between atoms: C_26  and  O_28
REMARK                            x       y       z     vdW  Elec       q    Type
REMARK                         _______ _______ _______ _____ _____    ______ ____
ROOT
ATOM      1  C   UNL     1       0.692  10.399  19.398  0.00  0.00    +0.000 A 
ATOM      2  C   UNL     1      -0.509  10.443  20.176  0.00  0.00    +0.000 A 
ATOM      3  C   UNL     1      -0.912  11.716  20.520  0.00  0.00    +0.000 A 
ATOM      4  S   UNL     1       0.126  12.872  19.814  0.00  0.00    +0.000 S 
ATOM      5  C   UNL     1       1.117  11.682  19.079  0.00  0.00    +0.000 A 
ENDROOT
BRANCH   3   6
ATOM      6  C   UNL     1      -2.034  12.110  21.384  0.00  0.00    +0.000 A 
ATOM      7  C   UNL     1      -3.163  12.736  20.831  0.00  0.00    +0.000 A 
ATOM      8  C   UNL     1      -4.244  13.108  21.638  0.00  0.00    +0.000 A 
ATOM      9  C   UNL     1      -4.217  12.862  23.013  0.00  0.00    +0.000 A 
ATOM     10  C   UNL     1      -5.369  13.235  23.894  0.00  0.00    +0.000 C 
ATOM     11  C   UNL     1      -3.092  12.246  23.569  0.00  0.00    +0.000 A 
ATOM     12  C   UNL     1      -2.011  11.879  22.765  0.00  0.00    +0.000 A 
ENDBRANCH   3   6
BRANCH   1  16
ATOM     13  N   UNL     1       2.185   7.052  19.430  0.00  0.00    +0.000 N 
ATOM     14  C   UNL     1       1.751   8.277  19.918  0.00  0.00    +0.000 C 
ATOM     15  O   UNL     1       1.703   8.506  21.125  0.00  0.00    +0.000 OA
ATOM     16  N   UNL     1       1.352   9.224  18.997  0.00  0.00    +0.000 N 
ATOM     17  H   UNL     1       1.765   9.240  18.073  0.00  0.00    +0.000 HD
BRANCH  13  19
ATOM     18  C   UNL     1       1.409   4.749  20.377  0.00  0.00    +0.000 C 
ATOM     19  C   UNL     1       2.409   5.904  20.339  0.00  0.00    +0.000 C 
ENDBRANCH  13  19
BRANCH  13  20
ATOM     20  C   UNL     1       2.376   6.755  18.004  0.00  0.00    +0.000 C 
BRANCH  20  21
ATOM     21  C   UNL     1       3.690   6.108  17.619  0.00  0.00    +0.000 A 
ATOM     22  C   UNL     1       4.891   6.818  17.492  0.00  0.00    +0.000 A 
ATOM     23  C   UNL     1       6.050   6.189  17.027  0.00  0.00    +0.000 A 
ATOM     24  C   UNL     1       6.029   4.834  16.702  0.00  0.00    +0.000 A 
ATOM     25  C   UNL     1       4.859   4.101  16.870  0.00  0.00    +0.000 A 
ATOM     26  C   UNL     1       3.700   4.731  17.329  0.00  0.00    +0.000 A 
ENDBRANCH  20  21
ENDBRANCH  13  20
ENDBRANCH   1  16
BRANCH   5  27
ATOM     27  C   UNL     1       2.264  12.066  18.287  0.00  0.00    +0.000 C 
ATOM     28  O   UNL     1       2.964  13.052  18.501  0.00  0.00    +0.000 OA
BRANCH  27  29
ATOM     29  O   UNL     1       2.507  11.231  17.240  0.00  0.00    +0.000 OA
ATOM     30  H   UNL     1       2.238  11.634  16.391  0.00  0.00    +0.000 HD
ENDBRANCH  27  29
ENDBRANCH   5  27
TORSDOF 7
ENDMDL
