MODEL 1
REMARK VINA RESULT:      -6.7      0.000      0.000
REMARK  Name = 
REMARK  7 active torsions:
REMARK  status: ('A' for Active; 'I' for Inactive)
REMARK    1  A    between atoms: C_1  and  N_2
REMARK    2  A    between atoms: N_2  and  C_3
REMARK    3  A    between atoms: N_14  and  C_15
REMARK    4  A    between atoms: C_15  and  O_16
REMARK    5  A    between atoms: O_16  and  C_17
REMARK    6  A    between atoms: C_17  and  C_18
REMARK    7  A    between atoms: C_18  and  O_19
REMARK                            x       y       z     vdW  Elec       q    Type
REMARK                         _______ _______ _______ _____ _____    ______ ____
ROOT
ATOM      1  C   UNL     1       1.694   7.918  20.226  0.00  0.00    +0.000 C 
ATOM      2  N   UNL     1       2.598   7.441  19.171  0.00  0.00    +0.000 N 
ATOM      3  C   UNL     1       2.576   8.267  17.963  0.00  0.00    +0.000 C 
ATOM      4  C   UNL     1       2.549   6.092  18.968  0.00  0.00    +0.000 A 
ATOM      5  N   UNL     1       1.517   5.299  19.203  0.00  0.00    +0.000 NA
ATOM      6  C   UNL     1       1.966   4.035  18.947  0.00  0.00    +0.000 A 
ATOM      7  C   UNL     1       1.302   2.757  19.074  0.00  0.00    +0.000 A 
ATOM      8  O   UNL     1       0.134   2.582  19.407  0.00  0.00    +0.000 OA
ATOM      9  N   UNL     1       2.147   1.694  18.782  0.00  0.00    +0.000 N 
ATOM     10  C   UNL     1       3.472   1.824  18.414  0.00  0.00    +0.000 A 
ATOM     11  N   UNL     1       4.151   0.671  18.195  0.00  0.00    +0.000 N 
ATOM     12  N   UNL     1       4.075   2.973  18.272  0.00  0.00    +0.000 NA
ATOM     13  C   UNL     1       3.281   4.039  18.555  0.00  0.00    +0.000 A 
ATOM     14  N   UNL     1       3.654   5.357  18.576  0.00  0.00    +0.000 N 
ATOM     15  H   UNL     1       1.743   0.782  18.908  0.00  0.00    +0.000 HD
ATOM     16  H   UNL     1       3.635  -0.142  17.894  0.00  0.00    +0.000 HD
ATOM     17  H   UNL     1       5.026   0.812  17.702  0.00  0.00    +0.000 HD
ENDROOT
BRANCH  14  18
ATOM     18  C   UNL     1       4.998   5.836  18.322  0.00  0.00    +0.000 C 
BRANCH  18  19
ATOM     19  O   UNL     1       5.289   5.938  16.923  0.00  0.00    +0.000 OA
BRANCH  19  20
ATOM     20  C   UNL     1       6.695   5.901  16.647  0.00  0.00    +0.000 C 
BRANCH  20  21
ATOM     21  C   UNL     1       7.112   4.442  16.492  0.00  0.00    +0.000 C 
BRANCH  21  22
ATOM     22  O   UNL     1       8.183   4.136  17.383  0.00  0.00    +0.000 OA
ATOM     23  H   UNL     1       8.904   4.751  17.144  0.00  0.00    +0.000 HD
ENDBRANCH  21  22
ENDBRANCH  20  21
ENDBRANCH  19  20
ENDBRANCH  18  19
ENDBRANCH  14  18
TORSDOF 5
ENDMDL
MODEL 2
REMARK VINA RESULT:      -6.5      2.390      4.557
REMARK  Name = 
REMARK  7 active torsions:
REMARK  status: ('A' for Active; 'I' for Inactive)
REMARK    1  A    between atoms: C_1  and  N_2
REMARK    2  A    between atoms: N_2  and  C_3
REMARK    3  A    between atoms: N_14  and  C_15
REMARK    4  A    between atoms: C_15  and  O_16
REMARK    5  A    between atoms: O_16  and  C_17
REMARK    6  A    between atoms: C_17  and  C_18
REMARK    7  A    between atoms: C_18  and  O_19
REMARK                            x       y       z     vdW  Elec       q    Type
REMARK                         _______ _______ _______ _____ _____    ______ ____
ROOT
ATOM      1  C   UNL     1       2.185   7.385  19.619  0.00  0.00    +0.000 C 
ATOM      2  N   UNL     1       2.402   5.958  19.345  0.00  0.00    +0.000 N 
ATOM      3  C   UNL     1       2.373   5.121  20.545  0.00  0.00    +0.000 C 
ATOM      4  C   UNL     1       3.424   5.711  18.475  0.00  0.00    +0.000 A 
ATOM      5  N   UNL     1       4.484   6.475  18.270  0.00  0.00    +0.000 NA
ATOM      6  C   UNL     1       5.169   5.878  17.250  0.00  0.00    +0.000 A 
ATOM      7  C   UNL     1       6.377   6.281  16.565  0.00  0.00    +0.000 A 
ATOM      8  O   UNL     1       7.064   7.263  16.832  0.00  0.00    +0.000 OA
ATOM      9  N   UNL     1       6.700   5.425  15.521  0.00  0.00    +0.000 N 
ATOM     10  C   UNL     1       5.964   4.312  15.162  0.00  0.00    +0.000 A 
ATOM     11  N   UNL     1       6.418   3.609  14.095  0.00  0.00    +0.000 N 
ATOM     12  N   UNL     1       4.886   3.925  15.788  0.00  0.00    +0.000 NA
ATOM     13  C   UNL     1       4.532   4.743  16.814  0.00  0.00    +0.000 A 
ATOM     14  N   UNL     1       3.412   4.642  17.596  0.00  0.00    +0.000 N 
ATOM     15  H   UNL     1       7.505   5.695  14.983  0.00  0.00    +0.000 HD
ATOM     16  H   UNL     1       7.405   3.631  13.889  0.00  0.00    +0.000 HD
ATOM     17  H   UNL     1       6.000   2.687  14.019  0.00  0.00    +0.000 HD
ENDROOT
BRANCH  14  18
ATOM     18  C   UNL     1       2.381   3.638  17.429  0.00  0.00    +0.000 C 
BRANCH  18  19
ATOM     19  O   UNL     1       2.386   2.666  18.482  0.00  0.00    +0.000 OA
BRANCH  19  20
ATOM     20  C   UNL     1       3.606   1.916  18.536  0.00  0.00    +0.000 C 
BRANCH  20  21
ATOM     21  C   UNL     1       4.280   2.196  19.875  0.00  0.00    +0.000 C 
BRANCH  21  22
ATOM     22  O   UNL     1       5.301   1.233  20.128  0.00  0.00    +0.000 OA
ATOM     23  H   UNL     1       6.109   1.599  19.719  0.00  0.00    +0.000 HD
ENDBRANCH  21  22
ENDBRANCH  20  21
ENDBRANCH  19  20
ENDBRANCH  18  19
ENDBRANCH  14  18
TORSDOF 5
ENDMDL
MODEL 3
REMARK VINA RESULT:      -6.5      2.428      5.680
REMARK  Name = 
REMARK  7 active torsions:
REMARK  status: ('A' for Active; 'I' for Inactive)
REMARK    1  A    between atoms: C_1  and  N_2
REMARK    2  A    between atoms: N_2  and  C_3
REMARK    3  A    between atoms: N_14  and  C_15
REMARK    4  A    between atoms: C_15  and  O_16
REMARK    5  A    between atoms: O_16  and  C_17
REMARK    6  A    between atoms: C_17  and  C_18
REMARK    7  A    between atoms: C_18  and  O_19
REMARK                            x       y       z     vdW  Elec       q    Type
REMARK                         _______ _______ _______ _____ _____    ______ ____
ROOT
ATOM      1  C   UNL     1       2.789   1.925  17.760  0.00  0.00    +0.000 C 
ATOM      2  N   UNL     1       2.609   3.370  17.954  0.00  0.00    +0.000 N 
ATOM      3  C   UNL     1       1.279   3.849  17.578  0.00  0.00    +0.000 C 
ATOM      4  C   UNL     1       3.657   4.123  17.510  0.00  0.00    +0.000 A 
ATOM      5  N   UNL     1       4.503   3.802  16.546  0.00  0.00    +0.000 NA
ATOM      6  C   UNL     1       5.429   4.805  16.527  0.00  0.00    +0.000 A 
ATOM      7  C   UNL     1       6.617   4.975  15.719  0.00  0.00    +0.000 A 
ATOM      8  O   UNL     1       6.991   4.225  14.822  0.00  0.00    +0.000 OA
ATOM      9  N   UNL     1       7.335   6.109  16.072  0.00  0.00    +0.000 N 
ATOM     10  C   UNL     1       6.974   6.985  17.077  0.00  0.00    +0.000 A 
ATOM     11  N   UNL     1       7.815   8.025  17.299  0.00  0.00    +0.000 N 
ATOM     12  N   UNL     1       5.892   6.855  17.796  0.00  0.00    +0.000 NA
ATOM     13  C   UNL     1       5.164   5.751  17.485  0.00  0.00    +0.000 A 
ATOM     14  N   UNL     1       4.033   5.309  18.117  0.00  0.00    +0.000 N 
ATOM     15  H   UNL     1       8.197   6.240  15.571  0.00  0.00    +0.000 HD
ATOM     16  H   UNL     1       8.376   8.364  16.532  0.00  0.00    +0.000 HD
ATOM     17  H   UNL     1       7.400   8.759  17.864  0.00  0.00    +0.000 HD
ENDROOT
BRANCH  14  18
ATOM     18  C   UNL     1       3.432   5.948  19.271  0.00  0.00    +0.000 C 
BRANCH  18  19
ATOM     19  O   UNL     1       3.426   5.100  20.426  0.00  0.00    +0.000 OA
BRANCH  19  20
ATOM     20  C   UNL     1       2.116   4.933  20.982  0.00  0.00    +0.000 C 
BRANCH  20  21
ATOM     21  C   UNL     1       2.005   3.512  21.524  0.00  0.00    +0.000 C 
BRANCH  21  22
ATOM     22  O   UNL     1       0.813   2.890  21.044  0.00  0.00    +0.000 OA
ATOM     23  H   UNL     1       0.133   3.592  21.056  0.00  0.00    +0.000 HD
ENDBRANCH  21  22
ENDBRANCH  20  21
ENDBRANCH  19  20
ENDBRANCH  18  19
ENDBRANCH  14  18
TORSDOF 5
ENDMDL
MODEL 4
REMARK VINA RESULT:      -6.5      2.232      5.085
REMARK  Name = 
REMARK  7 active torsions:
REMARK  status: ('A' for Active; 'I' for Inactive)
REMARK    1  A    between atoms: C_1  and  N_2
REMARK    2  A    between atoms: N_2  and  C_3
REMARK    3  A    between atoms: N_14  and  C_15
REMARK    4  A    between atoms: C_15  and  O_16
REMARK    5  A    between atoms: O_16  and  C_17
REMARK    6  A    between atoms: C_17  and  C_18
REMARK    7  A    between atoms: C_18  and  O_19
REMARK                            x       y       z     vdW  Elec       q    Type
REMARK                         _______ _______ _______ _____ _____    ______ ____
ROOT
ATOM      1  C   UNL     1       2.348   7.356  19.563  0.00  0.00    +0.000 C 
ATOM      2  N   UNL     1       2.571   5.930  19.285  0.00  0.00    +0.000 N 
ATOM      3  C   UNL     1       2.580   5.095  20.486  0.00  0.00    +0.000 C 
ATOM      4  C   UNL     1       3.572   5.690  18.390  0.00  0.00    +0.000 A 
ATOM      5  N   UNL     1       4.620   6.463  18.156  0.00  0.00    +0.000 NA
ATOM      6  C   UNL     1       5.284   5.871  17.120  0.00  0.00    +0.000 A 
ATOM      7  C   UNL     1       6.471   6.283  16.404  0.00  0.00    +0.000 A 
ATOM      8  O   UNL     1       7.155   7.271  16.653  0.00  0.00    +0.000 OA
ATOM      9  N   UNL     1       6.775   5.428  15.353  0.00  0.00    +0.000 N 
ATOM     10  C   UNL     1       6.039   4.309  15.015  0.00  0.00    +0.000 A 
ATOM     11  N   UNL     1       6.472   3.607  13.939  0.00  0.00    +0.000 N 
ATOM     12  N   UNL     1       4.981   3.913  15.669  0.00  0.00    +0.000 NA
ATOM     13  C   UNL     1       4.647   4.729  16.702  0.00  0.00    +0.000 A 
ATOM     14  N   UNL     1       3.547   4.620  17.513  0.00  0.00    +0.000 N 
ATOM     15  H   UNL     1       7.563   5.704  14.795  0.00  0.00    +0.000 HD
ATOM     16  H   UNL     1       7.454   3.638  13.707  0.00  0.00    +0.000 HD
ATOM     17  H   UNL     1       6.060   2.682  13.874  0.00  0.00    +0.000 HD
ENDROOT
BRANCH  14  18
ATOM     18  C   UNL     1       2.521   3.606  17.374  0.00  0.00    +0.000 C 
BRANCH  18  19
ATOM     19  O   UNL     1       2.946   2.326  17.856  0.00  0.00    +0.000 OA
BRANCH  19  20
ATOM     20  C   UNL     1       2.172   1.871  18.974  0.00  0.00    +0.000 C 
BRANCH  20  21
ATOM     21  C   UNL     1       0.742   2.370  18.798  0.00  0.00    +0.000 C 
BRANCH  21  22
ATOM     22  O   UNL     1       0.244   2.891  20.029  0.00  0.00    +0.000 OA
ATOM     23  H   UNL     1      -0.725   2.777  19.986  0.00  0.00    +0.000 HD
ENDBRANCH  21  22
ENDBRANCH  20  21
ENDBRANCH  19  20
ENDBRANCH  18  19
ENDBRANCH  14  18
TORSDOF 5
ENDMDL
MODEL 5
REMARK VINA RESULT:      -6.5      2.368      4.435
REMARK  Name = 
REMARK  7 active torsions:
REMARK  status: ('A' for Active; 'I' for Inactive)
REMARK    1  A    between atoms: C_1  and  N_2
REMARK    2  A    between atoms: N_2  and  C_3
REMARK    3  A    between atoms: N_14  and  C_15
REMARK    4  A    between atoms: C_15  and  O_16
REMARK    5  A    between atoms: O_16  and  C_17
REMARK    6  A    between atoms: C_17  and  C_18
REMARK    7  A    between atoms: C_18  and  O_19
REMARK                            x       y       z     vdW  Elec       q    Type
REMARK                         _______ _______ _______ _____ _____    ______ ____
ROOT
ATOM      1  C   UNL     1       7.454   4.717  16.560  0.00  0.00    +0.000 C 
ATOM      2  N   UNL     1       6.449   5.632  17.118  0.00  0.00    +0.000 N 
ATOM      3  C   UNL     1       7.005   6.910  17.563  0.00  0.00    +0.000 C 
ATOM      4  C   UNL     1       5.574   5.035  17.978  0.00  0.00    +0.000 A 
ATOM      5  N   UNL     1       5.804   3.962  18.715  0.00  0.00    +0.000 NA
ATOM      6  C   UNL     1       4.617   3.682  19.330  0.00  0.00    +0.000 A 
ATOM      7  C   UNL     1       4.247   2.600  20.215  0.00  0.00    +0.000 A 
ATOM      8  O   UNL     1       4.997   1.722  20.632  0.00  0.00    +0.000 OA
ATOM      9  N   UNL     1       2.903   2.639  20.561  0.00  0.00    +0.000 N 
ATOM     10  C   UNL     1       2.007   3.592  20.117  0.00  0.00    +0.000 A 
ATOM     11  N   UNL     1       0.725   3.453  20.537  0.00  0.00    +0.000 N 
ATOM     12  N   UNL     1       2.334   4.587  19.337  0.00  0.00    +0.000 NA
ATOM     13  C   UNL     1       3.642   4.580  18.972  0.00  0.00    +0.000 A 
ATOM     14  N   UNL     1       4.256   5.441  18.101  0.00  0.00    +0.000 N 
ATOM     15  H   UNL     1       2.589   1.876  21.134  0.00  0.00    +0.000 HD
ATOM     16  H   UNL     1       0.554   2.990  21.417  0.00  0.00    +0.000 HD
ATOM     17  H   UNL     1       0.166   4.288  20.393  0.00  0.00    +0.000 HD
ENDROOT
BRANCH  14  18
ATOM     18  C   UNL     1       3.582   6.508  17.388  0.00  0.00    +0.000 C 
BRANCH  18  19
ATOM     19  O   UNL     1       3.441   7.693  18.180  0.00  0.00    +0.000 OA
BRANCH  19  20
ATOM     20  C   UNL     1       2.096   8.189  18.198  0.00  0.00    +0.000 C 
BRANCH  20  21
ATOM     21  C   UNL     1       1.706   8.456  19.649  0.00  0.00    +0.000 C 
BRANCH  21  22
ATOM     22  O   UNL     1       2.119   7.372  20.480  0.00  0.00    +0.000 OA
ATOM     23  H   UNL     1       3.051   7.204  20.243  0.00  0.00    +0.000 HD
ENDBRANCH  21  22
ENDBRANCH  20  21
ENDBRANCH  19  20
ENDBRANCH  18  19
ENDBRANCH  14  18
TORSDOF 5
ENDMDL
MODEL 6
REMARK VINA RESULT:      -6.4      1.632      1.632
REMARK  Name = 
REMARK  7 active torsions:
REMARK  status: ('A' for Active; 'I' for Inactive)
REMARK    1  A    between atoms: C_1  and  N_2
REMARK    2  A    between atoms: N_2  and  C_3
REMARK    3  A    between atoms: N_14  and  C_15
REMARK    4  A    between atoms: C_15  and  O_16
REMARK    5  A    between atoms: O_16  and  C_17
REMARK    6  A    between atoms: C_17  and  C_18
REMARK    7  A    between atoms: C_18  and  O_19
REMARK                            x       y       z     vdW  Elec       q    Type
REMARK                         _______ _______ _______ _____ _____    ______ ____
ROOT
ATOM      1  C   UNL     1       1.674   8.434  20.334  0.00  0.00    +0.000 C 
ATOM      2  N   UNL     1       2.295   7.687  19.232  0.00  0.00    +0.000 N 
ATOM      3  C   UNL     1       1.672   7.938  17.932  0.00  0.00    +0.000 C 
ATOM      4  C   UNL     1       2.549   6.378  19.524  0.00  0.00    +0.000 A 
ATOM      5  N   UNL     1       1.897   5.626  20.396  0.00  0.00    +0.000 NA
ATOM      6  C   UNL     1       2.565   4.436  20.419  0.00  0.00    +0.000 A 
ATOM      7  C   UNL     1       2.344   3.247  21.213  0.00  0.00    +0.000 A 
ATOM      8  O   UNL     1       1.433   3.077  22.017  0.00  0.00    +0.000 OA
ATOM      9  N   UNL     1       3.308   2.274  20.983  0.00  0.00    +0.000 N 
ATOM     10  C   UNL     1       4.364   2.409  20.102  0.00  0.00    +0.000 A 
ATOM     11  N   UNL     1       5.224   1.363  20.030  0.00  0.00    +0.000 N 
ATOM     12  N   UNL     1       4.559   3.467  19.362  0.00  0.00    +0.000 NA
ATOM     13  C   UNL     1       3.639   4.445  19.563  0.00  0.00    +0.000 A 
ATOM     14  N   UNL     1       3.630   5.693  18.997  0.00  0.00    +0.000 N 
ATOM     15  H   UNL     1       3.225   1.450  21.552  0.00  0.00    +0.000 HD
ATOM     16  H   UNL     1       4.878   0.440  20.244  0.00  0.00    +0.000 HD
ATOM     17  H   UNL     1       5.828   1.400  19.215  0.00  0.00    +0.000 HD
ENDROOT
BRANCH  14  18
ATOM     18  C   UNL     1       4.645   6.192  18.092  0.00  0.00    +0.000 C 
BRANCH  18  19
ATOM     19  O   UNL     1       4.537   5.627  16.780  0.00  0.00    +0.000 OA
BRANCH  19  20
ATOM     20  C   UNL     1       5.768   5.686  16.049  0.00  0.00    +0.000 C 
BRANCH  20  21
ATOM     21  C   UNL     1       6.488   4.353  16.217  0.00  0.00    +0.000 C 
BRANCH  21  22
ATOM     22  O   UNL     1       5.552   3.318  16.516  0.00  0.00    +0.000 OA
ATOM     23  H   UNL     1       4.672   3.707  16.343  0.00  0.00    +0.000 HD
ENDBRANCH  21  22
ENDBRANCH  20  21
ENDBRANCH  19  20
ENDBRANCH  18  19
ENDBRANCH  14  18
TORSDOF 5
ENDMDL
MODEL 7
REMARK VINA RESULT:      -6.4      1.251      1.312
REMARK  Name = 
REMARK  7 active torsions:
REMARK  status: ('A' for Active; 'I' for Inactive)
REMARK    1  A    between atoms: C_1  and  N_2
REMARK    2  A    between atoms: N_2  and  C_3
REMARK    3  A    between atoms: N_14  and  C_15
REMARK    4  A    between atoms: C_15  and  O_16
REMARK    5  A    between atoms: O_16  and  C_17
REMARK    6  A    between atoms: C_17  and  C_18
REMARK    7  A    between atoms: C_18  and  O_19
REMARK                            x       y       z     vdW  Elec       q    Type
REMARK                         _______ _______ _______ _____ _____    ______ ____
ROOT
ATOM      1  C   UNL     1       1.790   7.806  20.001  0.00  0.00    +0.000 C 
ATOM      2  N   UNL     1       2.760   7.289  19.027  0.00  0.00    +0.000 N 
ATOM      3  C   UNL     1       2.849   8.093  17.807  0.00  0.00    +0.000 C 
ATOM      4  C   UNL     1       2.694   5.939  18.843  0.00  0.00    +0.000 A 
ATOM      5  N   UNL     1       1.630   5.173  19.013  0.00  0.00    +0.000 NA
ATOM      6  C   UNL     1       2.066   3.895  18.813  0.00  0.00    +0.000 A 
ATOM      7  C   UNL     1       1.364   2.634  18.911  0.00  0.00    +0.000 A 
ATOM      8  O   UNL     1       0.170   2.492  19.157  0.00  0.00    +0.000 OA
ATOM      9  N   UNL     1       2.203   1.548  18.702  0.00  0.00    +0.000 N 
ATOM     10  C   UNL     1       3.555   1.641  18.434  0.00  0.00    +0.000 A 
ATOM     11  N   UNL     1       4.221   0.469  18.287  0.00  0.00    +0.000 N 
ATOM     12  N   UNL     1       4.194   2.773  18.318  0.00  0.00    +0.000 NA
ATOM     13  C   UNL     1       3.407   3.862  18.522  0.00  0.00    +0.000 A 
ATOM     14  N   UNL     1       3.808   5.172  18.548  0.00  0.00    +0.000 N 
ATOM     15  H   UNL     1       1.769   0.648  18.812  0.00  0.00    +0.000 HD
ATOM     16  H   UNL     1       3.710  -0.338  17.961  0.00  0.00    +0.000 HD
ATOM     17  H   UNL     1       5.135   0.581  17.859  0.00  0.00    +0.000 HD
ENDROOT
BRANCH  14  18
ATOM     18  C   UNL     1       5.179   5.615  18.390  0.00  0.00    +0.000 C 
BRANCH  18  19
ATOM     19  O   UNL     1       6.126   4.569  18.634  0.00  0.00    +0.000 OA
BRANCH  19  20
ATOM     20  C   UNL     1       7.459   4.929  18.250  0.00  0.00    +0.000 C 
BRANCH  20  21
ATOM     21  C   UNL     1       7.962   5.995  19.218  0.00  0.00    +0.000 C 
BRANCH  21  22
ATOM     22  O   UNL     1       8.102   5.448  20.528  0.00  0.00    +0.000 OA
ATOM     23  H   UNL     1       7.411   4.761  20.598  0.00  0.00    +0.000 HD
ENDBRANCH  21  22
ENDBRANCH  20  21
ENDBRANCH  19  20
ENDBRANCH  18  19
ENDBRANCH  14  18
TORSDOF 5
ENDMDL
MODEL 8
REMARK VINA RESULT:      -6.3      1.658      1.691
REMARK  Name = 
REMARK  7 active torsions:
REMARK  status: ('A' for Active; 'I' for Inactive)
REMARK    1  A    between atoms: C_1  and  N_2
REMARK    2  A    between atoms: N_2  and  C_3
REMARK    3  A    between atoms: N_14  and  C_15
REMARK    4  A    between atoms: C_15  and  O_16
REMARK    5  A    between atoms: O_16  and  C_17
REMARK    6  A    between atoms: C_17  and  C_18
REMARK    7  A    between atoms: C_18  and  O_19
REMARK                            x       y       z     vdW  Elec       q    Type
REMARK                         _______ _______ _______ _____ _____    ______ ____
ROOT
ATOM      1  C   UNL     1       1.783   8.305  20.342  0.00  0.00    +0.000 C 
ATOM      2  N   UNL     1       2.389   7.535  19.248  0.00  0.00    +0.000 N 
ATOM      3  C   UNL     1       1.762   7.773  17.948  0.00  0.00    +0.000 C 
ATOM      4  C   UNL     1       2.632   6.228  19.559  0.00  0.00    +0.000 A 
ATOM      5  N   UNL     1       1.978   5.497  20.445  0.00  0.00    +0.000 NA
ATOM      6  C   UNL     1       2.635   4.300  20.482  0.00  0.00    +0.000 A 
ATOM      7  C   UNL     1       2.407   3.126  21.296  0.00  0.00    +0.000 A 
ATOM      8  O   UNL     1       1.499   2.977  22.108  0.00  0.00    +0.000 OA
ATOM      9  N   UNL     1       3.360   2.140  21.075  0.00  0.00    +0.000 N 
ATOM     10  C   UNL     1       4.411   2.251  20.186  0.00  0.00    +0.000 A 
ATOM     11  N   UNL     1       5.260   1.195  20.124  0.00  0.00    +0.000 N 
ATOM     12  N   UNL     1       4.612   3.295  19.428  0.00  0.00    +0.000 NA
ATOM     13  C   UNL     1       3.703   4.286  19.620  0.00  0.00    +0.000 A 
ATOM     14  N   UNL     1       3.703   5.525  19.035  0.00  0.00    +0.000 N 
ATOM     15  H   UNL     1       3.272   1.325  21.657  0.00  0.00    +0.000 HD
ATOM     16  H   UNL     1       4.906   0.279  20.354  0.00  0.00    +0.000 HD
ATOM     17  H   UNL     1       5.860   1.214  19.305  0.00  0.00    +0.000 HD
ENDROOT
BRANCH  14  18
ATOM     18  C   UNL     1       4.717   6.000  18.116  0.00  0.00    +0.000 C 
BRANCH  18  19
ATOM     19  O   UNL     1       4.434   5.648  16.757  0.00  0.00    +0.000 OA
BRANCH  19  20
ATOM     20  C   UNL     1       5.506   5.980  15.865  0.00  0.00    +0.000 C 
BRANCH  20  21
ATOM     21  C   UNL     1       6.825   5.683  16.573  0.00  0.00    +0.000 C 
BRANCH  21  22
ATOM     22  O   UNL     1       7.686   6.819  16.512  0.00  0.00    +0.000 OA
ATOM     23  H   UNL     1       7.453   7.277  15.681  0.00  0.00    +0.000 HD
ENDBRANCH  21  22
ENDBRANCH  20  21
ENDBRANCH  19  20
ENDBRANCH  18  19
ENDBRANCH  14  18
TORSDOF 5
ENDMDL
MODEL 9
REMARK VINA RESULT:      -6.3      2.506      4.630
REMARK  Name = 
REMARK  7 active torsions:
REMARK  status: ('A' for Active; 'I' for Inactive)
REMARK    1  A    between atoms: C_1  and  N_2
REMARK    2  A    between atoms: N_2  and  C_3
REMARK    3  A    between atoms: N_14  and  C_15
REMARK    4  A    between atoms: C_15  and  O_16
REMARK    5  A    between atoms: O_16  and  C_17
REMARK    6  A    between atoms: C_17  and  C_18
REMARK    7  A    between atoms: C_18  and  O_19
REMARK                            x       y       z     vdW  Elec       q    Type
REMARK                         _______ _______ _______ _____ _____    ______ ____
ROOT
ATOM      1  C   UNL     1       7.228   4.785  16.378  0.00  0.00    +0.000 C 
ATOM      2  N   UNL     1       6.241   5.665  17.017  0.00  0.00    +0.000 N 
ATOM      3  C   UNL     1       6.790   6.958  17.428  0.00  0.00    +0.000 C 
ATOM      4  C   UNL     1       5.453   5.038  17.937  0.00  0.00    +0.000 A 
ATOM      5  N   UNL     1       5.772   3.968  18.647  0.00  0.00    +0.000 NA
ATOM      6  C   UNL     1       4.644   3.648  19.347  0.00  0.00    +0.000 A 
ATOM      7  C   UNL     1       4.376   2.551  20.251  0.00  0.00    +0.000 A 
ATOM      8  O   UNL     1       5.182   1.695  20.602  0.00  0.00    +0.000 OA
ATOM      9  N   UNL     1       3.062   2.547  20.698  0.00  0.00    +0.000 N 
ATOM     10  C   UNL     1       2.105   3.474  20.331  0.00  0.00    +0.000 A 
ATOM     11  N   UNL     1       0.864   3.293  20.846  0.00  0.00    +0.000 N 
ATOM     12  N   UNL     1       2.342   4.482  19.536  0.00  0.00    +0.000 NA
ATOM     13  C   UNL     1       3.618   4.517  19.072  0.00  0.00    +0.000 A 
ATOM     14  N   UNL     1       4.137   5.402  18.163  0.00  0.00    +0.000 N 
ATOM     15  H   UNL     1       2.816   1.771  21.288  0.00  0.00    +0.000 HD
ATOM     16  H   UNL     1       0.775   2.821  21.733  0.00  0.00    +0.000 HD
ATOM     17  H   UNL     1       0.271   4.111  20.751  0.00  0.00    +0.000 HD
ENDROOT
BRANCH  14  18
ATOM     18  C   UNL     1       3.378   6.451  17.511  0.00  0.00    +0.000 C 
BRANCH  18  19
ATOM     19  O   UNL     1       3.372   7.671  18.262  0.00  0.00    +0.000 OA
BRANCH  19  20
ATOM     20  C   UNL     1       2.054   8.207  18.435  0.00  0.00    +0.000 C 
BRANCH  20  21
ATOM     21  C   UNL     1       1.996   9.564  17.742  0.00  0.00    +0.000 C 
BRANCH  21  22
ATOM     22  O   UNL     1       0.679  10.107  17.825  0.00  0.00    +0.000 OA
ATOM     23  H   UNL     1       0.517  10.250  18.778  0.00  0.00    +0.000 HD
ENDBRANCH  21  22
ENDBRANCH  20  21
ENDBRANCH  19  20
ENDBRANCH  18  19
ENDBRANCH  14  18
TORSDOF 5
ENDMDL
