MODEL 1
REMARK VINA RESULT:      -8.1      0.000      0.000
REMARK  Name = 
REMARK  2 active torsions:
REMARK  status: ('A' for Active; 'I' for Inactive)
REMARK    1  A    between atoms: C_1  and  C_2
REMARK    2  A    between atoms: C_18  and  C_19
REMARK                            x       y       z     vdW  Elec       q    Type
REMARK                         _______ _______ _______ _____ _____    ______ ____
ROOT
ATOM      1  C   UNL     1       2.575  13.328  17.826  0.00  0.00    +0.000 C 
ATOM      2  C   UNL     1       1.509  12.625  18.626  0.00  0.00    +0.000 C 
ATOM      3  O   UNL     1       0.679  13.257  19.278  0.00  0.00    +0.000 OA
ATOM      4  N   UNL     1       1.523  11.243  18.541  0.00  0.00    +0.000 N 
ATOM      5  N   UNL     1       2.575  10.553  17.994  0.00  0.00    +0.000 NA
ATOM      6  C   UNL     1       2.358   9.287  18.211  0.00  0.00    +0.000 C 
ATOM      7  N   UNL     1       3.233   8.319  17.800  0.00  0.00    +0.000 N 
ATOM      8  C   UNL     1       3.091   6.978  17.844  0.00  0.00    +0.000 A 
ATOM      9  N   UNL     1       2.043   6.339  18.306  0.00  0.00    +0.000 NA
ATOM     10  C   UNL     1       2.203   4.974  18.180  0.00  0.00    +0.000 A 
ATOM     11  C   UNL     1       1.264   3.996  18.564  0.00  0.00    +0.000 A 
ATOM     12  C   UNL     1       1.559   2.642  18.382  0.00  0.00    +0.000 A 
ATOM     13  C   UNL     1       2.773   2.256  17.822  0.00  0.00    +0.000 A 
ATOM     14  C   UNL     1       3.721   3.208  17.431  0.00  0.00    +0.000 A 
ATOM     15  C   UNL     1       3.412   4.566  17.618  0.00  0.00    +0.000 A 
ATOM     16  S   UNL     1       4.346   5.962  17.243  0.00  0.00    +0.000 S 
ATOM     17  C   UNL     1       1.079   8.981  18.949  0.00  0.00    +0.000 C 
ATOM     18  C   UNL     1       0.546  10.384  19.202  0.00  0.00    +0.000 C 
ATOM     19  H   UNL     1       4.070   8.688  17.367  0.00  0.00    +0.000 HD
ENDROOT
BRANCH  18  20
ATOM     20  C   UNL     1      -0.862  10.555  18.659  0.00  0.00    +0.000 A 
ATOM     21  C   UNL     1      -1.233   9.936  17.454  0.00  0.00    +0.000 A 
ATOM     22  C   UNL     1      -2.514  10.120  16.927  0.00  0.00    +0.000 A 
ATOM     23  C   UNL     1      -3.431  10.924  17.600  0.00  0.00    +0.000 A 
ATOM     24 CL   UNL     1      -4.999  11.174  16.938  0.00  0.00    +0.000 Cl
ATOM     25  C   UNL     1      -3.085  11.532  18.805  0.00  0.00    +0.000 A 
ATOM     26  C   UNL     1      -1.811  11.342  19.332  0.00  0.00    +0.000 A 
ENDBRANCH  18  20
TORSDOF 1
ENDMDL
MODEL 2
REMARK VINA RESULT:      -7.7      3.216      4.367
REMARK  Name = 
REMARK  2 active torsions:
REMARK  status: ('A' for Active; 'I' for Inactive)
REMARK    1  A    between atoms: C_1  and  C_2
REMARK    2  A    between atoms: C_18  and  C_19
REMARK                            x       y       z     vdW  Elec       q    Type
REMARK                         _______ _______ _______ _____ _____    ______ ____
ROOT
ATOM      1  C   UNL     1      -0.772  10.172  23.137  0.00  0.00    +0.000 C 
ATOM      2  C   UNL     1      -0.618  10.713  21.738  0.00  0.00    +0.000 C 
ATOM      3  O   UNL     1      -1.228  11.716  21.371  0.00  0.00    +0.000 OA
ATOM      4  N   UNL     1       0.271  10.021  20.934  0.00  0.00    +0.000 N 
ATOM      5  N   UNL     1       0.771   8.792  21.282  0.00  0.00    +0.000 NA
ATOM      6  C   UNL     1       1.438   8.344  20.256  0.00  0.00    +0.000 C 
ATOM      7  N   UNL     1       2.058   7.125  20.269  0.00  0.00    +0.000 N 
ATOM      8  C   UNL     1       2.874   6.582  19.341  0.00  0.00    +0.000 A 
ATOM      9  N   UNL     1       3.234   7.155  18.217  0.00  0.00    +0.000 NA
ATOM     10  C   UNL     1       4.100   6.346  17.508  0.00  0.00    +0.000 A 
ATOM     11  C   UNL     1       4.687   6.660  16.266  0.00  0.00    +0.000 A 
ATOM     12  C   UNL     1       5.546   5.743  15.654  0.00  0.00    +0.000 A 
ATOM     13  C   UNL     1       5.824   4.524  16.265  0.00  0.00    +0.000 A 
ATOM     14  C   UNL     1       5.254   4.191  17.499  0.00  0.00    +0.000 A 
ATOM     15  C   UNL     1       4.393   5.122  18.105  0.00  0.00    +0.000 A 
ATOM     16  S   UNL     1       3.549   5.019  19.600  0.00  0.00    +0.000 S 
ATOM     17  C   UNL     1       1.464   9.269  19.065  0.00  0.00    +0.000 C 
ATOM     18  C   UNL     1       0.595  10.414  19.566  0.00  0.00    +0.000 C 
ATOM     19  H   UNL     1       1.903   6.601  21.120  0.00  0.00    +0.000 HD
ENDROOT
BRANCH  18  20
ATOM     20  C   UNL     1       1.321  11.745  19.484  0.00  0.00    +0.000 A 
ATOM     21  C   UNL     1       1.577  12.333  18.235  0.00  0.00    +0.000 A 
ATOM     22  C   UNL     1       2.279  13.538  18.148  0.00  0.00    +0.000 A 
ATOM     23  C   UNL     1       2.730  14.163  19.309  0.00  0.00    +0.000 A 
ATOM     24 CL   UNL     1       3.618  15.631  19.202  0.00  0.00    +0.000 Cl
ATOM     25  C   UNL     1       2.469  13.602  20.558  0.00  0.00    +0.000 A 
ATOM     26  C   UNL     1       1.764  12.404  20.643  0.00  0.00    +0.000 A 
ENDBRANCH  18  20
TORSDOF 1
ENDMDL
MODEL 3
REMARK VINA RESULT:      -7.7      3.767      7.676
REMARK  Name = 
REMARK  2 active torsions:
REMARK  status: ('A' for Active; 'I' for Inactive)
REMARK    1  A    between atoms: C_1  and  C_2
REMARK    2  A    between atoms: C_18  and  C_19
REMARK                            x       y       z     vdW  Elec       q    Type
REMARK                         _______ _______ _______ _____ _____    ______ ____
ROOT
ATOM      1  C   UNL     1       6.069   5.526  16.977  0.00  0.00    +0.000 C 
ATOM      2  C   UNL     1       4.638   5.067  17.103  0.00  0.00    +0.000 C 
ATOM      3  O   UNL     1       4.323   3.897  16.894  0.00  0.00    +0.000 OA
ATOM      4  N   UNL     1       3.738   6.043  17.496  0.00  0.00    +0.000 N 
ATOM      5  N   UNL     1       4.063   7.376  17.513  0.00  0.00    +0.000 NA
ATOM      6  C   UNL     1       2.968   8.035  17.766  0.00  0.00    +0.000 C 
ATOM      7  N   UNL     1       2.943   9.400  17.840  0.00  0.00    +0.000 N 
ATOM      8  C   UNL     1       1.926  10.208  18.207  0.00  0.00    +0.000 A 
ATOM      9  N   UNL     1       0.733   9.808  18.576  0.00  0.00    +0.000 NA
ATOM     10  C   UNL     1      -0.064  10.883  18.917  0.00  0.00    +0.000 A 
ATOM     11  C   UNL     1      -1.396  10.809  19.368  0.00  0.00    +0.000 A 
ATOM     12  C   UNL     1      -2.090  11.983  19.676  0.00  0.00    +0.000 A 
ATOM     13  C   UNL     1      -1.472  13.222  19.539  0.00  0.00    +0.000 A 
ATOM     14  C   UNL     1      -0.148  13.320  19.094  0.00  0.00    +0.000 A 
ATOM     15  C   UNL     1       0.539  12.133  18.789  0.00  0.00    +0.000 A 
ATOM     16  S   UNL     1       2.152  11.916  18.232  0.00  0.00    +0.000 S 
ATOM     17  C   UNL     1       1.744   7.177  17.964  0.00  0.00    +0.000 C 
ATOM     18  C   UNL     1       2.319   5.788  17.721  0.00  0.00    +0.000 C 
ATOM     19  H   UNL     1       3.833   9.834  17.630  0.00  0.00    +0.000 HD
ENDROOT
BRANCH  18  20
ATOM     20  C   UNL     1       2.059   4.860  18.895  0.00  0.00    +0.000 A 
ATOM     21  C   UNL     1       1.325   3.678  18.709  0.00  0.00    +0.000 A 
ATOM     22  C   UNL     1       1.047   2.839  19.791  0.00  0.00    +0.000 A 
ATOM     23  C   UNL     1       1.500   3.176  21.065  0.00  0.00    +0.000 A 
ATOM     24 CL   UNL     1       1.134   2.158  22.402  0.00  0.00    +0.000 Cl
ATOM     25  C   UNL     1       2.243   4.338  21.264  0.00  0.00    +0.000 A 
ATOM     26  C   UNL     1       2.525   5.170  20.184  0.00  0.00    +0.000 A 
ENDBRANCH  18  20
TORSDOF 1
ENDMDL
MODEL 4
REMARK VINA RESULT:      -7.6      3.178      4.469
REMARK  Name = 
REMARK  2 active torsions:
REMARK  status: ('A' for Active; 'I' for Inactive)
REMARK    1  A    between atoms: C_1  and  C_2
REMARK    2  A    between atoms: C_18  and  C_19
REMARK                            x       y       z     vdW  Elec       q    Type
REMARK                         _______ _______ _______ _____ _____    ______ ____
ROOT
ATOM      1  C   UNL     1      -1.140  10.763  23.105  0.00  0.00    +0.000 C 
ATOM      2  C   UNL     1      -0.880  11.269  21.709  0.00  0.00    +0.000 C 
ATOM      3  O   UNL     1      -1.410  12.299  21.294  0.00  0.00    +0.000 OA
ATOM      4  N   UNL     1       0.009  10.513  20.964  0.00  0.00    +0.000 N 
ATOM      5  N   UNL     1       0.417   9.264  21.357  0.00  0.00    +0.000 NA
ATOM      6  C   UNL     1       1.110   8.760  20.376  0.00  0.00    +0.000 C 
ATOM      7  N   UNL     1       1.657   7.508  20.440  0.00  0.00    +0.000 N 
ATOM      8  C   UNL     1       2.489   6.903  19.566  0.00  0.00    +0.000 A 
ATOM      9  N   UNL     1       2.942   7.434  18.455  0.00  0.00    +0.000 NA
ATOM     10  C   UNL     1       3.795   6.565  17.806  0.00  0.00    +0.000 A 
ATOM     11  C   UNL     1       4.466   6.823  16.594  0.00  0.00    +0.000 A 
ATOM     12  C   UNL     1       5.302   5.847  16.043  0.00  0.00    +0.000 A 
ATOM     13  C   UNL     1       5.475   4.625  16.686  0.00  0.00    +0.000 A 
ATOM     14  C   UNL     1       4.820   4.346  17.892  0.00  0.00    +0.000 A 
ATOM     15  C   UNL     1       3.984   5.336  18.436  0.00  0.00    +0.000 A 
ATOM     16  S   UNL     1       3.056   5.308  19.884  0.00  0.00    +0.000 S 
ATOM     17  C   UNL     1       1.255   9.661  19.174  0.00  0.00    +0.000 C 
ATOM     18  C   UNL     1       0.429  10.863  19.611  0.00  0.00    +0.000 C 
ATOM     19  H   UNL     1       1.426   7.009  21.289  0.00  0.00    +0.000 HD
ENDROOT
BRANCH  18  20
ATOM     20  C   UNL     1       1.235  12.149  19.550  0.00  0.00    +0.000 A 
ATOM     21  C   UNL     1       2.026  12.537  20.642  0.00  0.00    +0.000 A 
ATOM     22  C   UNL     1       2.740  13.738  20.610  0.00  0.00    +0.000 A 
ATOM     23  C   UNL     1       2.666  14.558  19.486  0.00  0.00    +0.000 A 
ATOM     24 CL   UNL     1       3.522  16.050  19.457  0.00  0.00    +0.000 Cl
ATOM     25  C   UNL     1       1.898  14.180  18.386  0.00  0.00    +0.000 A 
ATOM     26  C   UNL     1       1.193  12.979  18.418  0.00  0.00    +0.000 A 
ENDBRANCH  18  20
TORSDOF 1
ENDMDL
MODEL 5
REMARK VINA RESULT:      -7.6      3.070      4.090
REMARK  Name = 
REMARK  2 active torsions:
REMARK  status: ('A' for Active; 'I' for Inactive)
REMARK    1  A    between atoms: C_1  and  C_2
REMARK    2  A    between atoms: C_18  and  C_19
REMARK                            x       y       z     vdW  Elec       q    Type
REMARK                         _______ _______ _______ _____ _____    ______ ____
ROOT
ATOM      1  C   UNL     1      -0.350   9.877  22.823  0.00  0.00    +0.000 C 
ATOM      2  C   UNL     1      -0.437  10.257  21.366  0.00  0.00    +0.000 C 
ATOM      3  O   UNL     1      -1.242  11.099  20.973  0.00  0.00    +0.000 OA
ATOM      4  N   UNL     1       0.466   9.617  20.535  0.00  0.00    +0.000 N 
ATOM      5  N   UNL     1       1.201   8.533  20.946  0.00  0.00    +0.000 NA
ATOM      6  C   UNL     1       1.822   8.070  19.899  0.00  0.00    +0.000 C 
ATOM      7  N   UNL     1       2.636   6.973  19.964  0.00  0.00    +0.000 N 
ATOM      8  C   UNL     1       3.431   6.453  19.005  0.00  0.00    +0.000 A 
ATOM      9  N   UNL     1       3.570   6.930  17.791  0.00  0.00    +0.000 NA
ATOM     10  C   UNL     1       4.480   6.184  17.069  0.00  0.00    +0.000 A 
ATOM     11  C   UNL     1       4.872   6.428  15.739  0.00  0.00    +0.000 A 
ATOM     12  C   UNL     1       5.805   5.587  15.125  0.00  0.00    +0.000 A 
ATOM     13  C   UNL     1       6.347   4.511  15.823  0.00  0.00    +0.000 A 
ATOM     14  C   UNL     1       5.973   4.249  17.146  0.00  0.00    +0.000 A 
ATOM     15  C   UNL     1       5.036   5.103  17.752  0.00  0.00    +0.000 A 
ATOM     16  S   UNL     1       4.383   5.057  19.343  0.00  0.00    +0.000 S 
ATOM     17  C   UNL     1       1.567   8.832  18.623  0.00  0.00    +0.000 C 
ATOM     18  C   UNL     1       0.575   9.882  19.104  0.00  0.00    +0.000 C 
ATOM     19  H   UNL     1       2.662   6.541  20.879  0.00  0.00    +0.000 HD
ENDROOT
BRANCH  18  20
ATOM     20  C   UNL     1       1.053  11.289  18.793  0.00  0.00    +0.000 A 
ATOM     21  C   UNL     1       2.377  11.508  18.379  0.00  0.00    +0.000 A 
ATOM     22  C   UNL     1       2.836  12.804  18.129  0.00  0.00    +0.000 A 
ATOM     23  C   UNL     1       1.977  13.888  18.291  0.00  0.00    +0.000 A 
ATOM     24 CL   UNL     1       2.550  15.485  18.010  0.00  0.00    +0.000 Cl
ATOM     25  C   UNL     1       0.655  13.687  18.685  0.00  0.00    +0.000 A 
ATOM     26  C   UNL     1       0.197  12.395  18.928  0.00  0.00    +0.000 A 
ENDBRANCH  18  20
TORSDOF 1
ENDMDL
MODEL 6
REMARK VINA RESULT:      -6.8      3.061      4.373
REMARK  Name = 
REMARK  2 active torsions:
REMARK  status: ('A' for Active; 'I' for Inactive)
REMARK    1  A    between atoms: C_1  and  C_2
REMARK    2  A    between atoms: C_18  and  C_19
REMARK                            x       y       z     vdW  Elec       q    Type
REMARK                         _______ _______ _______ _____ _____    ______ ____
ROOT
ATOM      1  C   UNL     1      -1.532  11.511  22.749  0.00  0.00    +0.000 C 
ATOM      2  C   UNL     1      -1.279  11.894  21.313  0.00  0.00    +0.000 C 
ATOM      3  O   UNL     1      -1.834  12.868  20.805  0.00  0.00    +0.000 OA
ATOM      4  N   UNL     1      -0.367  11.098  20.642  0.00  0.00    +0.000 N 
ATOM      5  N   UNL     1       0.072   9.901  21.147  0.00  0.00    +0.000 NA
ATOM      6  C   UNL     1       0.782   9.328  20.218  0.00  0.00    +0.000 C 
ATOM      7  N   UNL     1       1.361   8.102  20.397  0.00  0.00    +0.000 N 
ATOM      8  C   UNL     1       2.213   7.442  19.584  0.00  0.00    +0.000 A 
ATOM      9  N   UNL     1       2.656   7.881  18.430  0.00  0.00    +0.000 NA
ATOM     10  C   UNL     1       3.535   6.979  17.864  0.00  0.00    +0.000 A 
ATOM     11  C   UNL     1       4.204   7.143  16.635  0.00  0.00    +0.000 A 
ATOM     12  C   UNL     1       5.067   6.144  16.177  0.00  0.00    +0.000 A 
ATOM     13  C   UNL     1       5.269   4.990  16.929  0.00  0.00    +0.000 A 
ATOM     14  C   UNL     1       4.617   4.806  18.154  0.00  0.00    +0.000 A 
ATOM     15  C   UNL     1       3.753   5.818  18.604  0.00  0.00    +0.000 A 
ATOM     16  S   UNL     1       2.820   5.898  20.047  0.00  0.00    +0.000 S 
ATOM     17  C   UNL     1       0.908  10.119  18.940  0.00  0.00    +0.000 C 
ATOM     18  C   UNL     1       0.049  11.333  19.263  0.00  0.00    +0.000 C 
ATOM     19  H   UNL     1       1.140   7.676  21.288  0.00  0.00    +0.000 HD
ENDROOT
BRANCH  18  20
ATOM     20  C   UNL     1       0.821  12.629  19.086  0.00  0.00    +0.000 A 
ATOM     21  C   UNL     1       0.136  13.830  18.843  0.00  0.00    +0.000 A 
ATOM     22  C   UNL     1       0.841  15.020  18.640  0.00  0.00    +0.000 A 
ATOM     23  C   UNL     1       2.233  15.016  18.678  0.00  0.00    +0.000 A 
ATOM     24 CL   UNL     1       3.102  16.474  18.400  0.00  0.00    +0.000 Cl
ATOM     25  C   UNL     1       2.928  13.836  18.935  0.00  0.00    +0.000 A 
ATOM     26  C   UNL     1       2.225  12.652  19.144  0.00  0.00    +0.000 A 
ENDBRANCH  18  20
TORSDOF 1
ENDMDL
MODEL 7
REMARK VINA RESULT:      -6.7      4.173      8.294
REMARK  Name = 
REMARK  2 active torsions:
REMARK  status: ('A' for Active; 'I' for Inactive)
REMARK    1  A    between atoms: C_1  and  C_2
REMARK    2  A    between atoms: C_18  and  C_19
REMARK                            x       y       z     vdW  Elec       q    Type
REMARK                         _______ _______ _______ _____ _____    ______ ____
ROOT
ATOM      1  C   UNL     1      -2.514  11.506  17.190  0.00  0.00    +0.000 C 
ATOM      2  C   UNL     1      -1.727  10.912  18.331  0.00  0.00    +0.000 C 
ATOM      3  O   UNL     1      -2.093   9.878  18.889  0.00  0.00    +0.000 OA
ATOM      4  N   UNL     1      -0.571  11.595  18.668  0.00  0.00    +0.000 N 
ATOM      5  N   UNL     1      -0.295  12.850  18.190  0.00  0.00    +0.000 NA
ATOM      6  C   UNL     1       0.768  13.274  18.813  0.00  0.00    +0.000 C 
ATOM      7  N   UNL     1       1.305  14.509  18.576  0.00  0.00    +0.000 N 
ATOM      8  C   UNL     1       2.455  15.035  19.048  0.00  0.00    +0.000 A 
ATOM      9  N   UNL     1       3.297  14.427  19.849  0.00  0.00    +0.000 NA
ATOM     10  C   UNL     1       4.388  15.229  20.118  0.00  0.00    +0.000 A 
ATOM     11  C   UNL     1       5.484  14.881  20.931  0.00  0.00    +0.000 A 
ATOM     12  C   UNL     1       6.524  15.796  21.122  0.00  0.00    +0.000 A 
ATOM     13  C   UNL     1       6.481  17.046  20.513  0.00  0.00    +0.000 A 
ATOM     14  C   UNL     1       5.403  17.414  19.700  0.00  0.00    +0.000 A 
ATOM     15  C   UNL     1       4.365  16.486  19.514  0.00  0.00    +0.000 A 
ATOM     16  S   UNL     1       2.924  16.627  18.584  0.00  0.00    +0.000 S 
ATOM     17  C   UNL     1       1.347  12.302  19.810  0.00  0.00    +0.000 C 
ATOM     18  C   UNL     1       0.351  11.154  19.710  0.00  0.00    +0.000 C 
ATOM     19  H   UNL     1       0.771  15.064  17.920  0.00  0.00    +0.000 HD
ENDROOT
BRANCH  18  20
ATOM     20  C   UNL     1       1.040   9.842  19.382  0.00  0.00    +0.000 A 
ATOM     21  C   UNL     1       1.166   8.847  20.364  0.00  0.00    +0.000 A 
ATOM     22  C   UNL     1       1.834   7.652  20.082  0.00  0.00    +0.000 A 
ATOM     23  C   UNL     1       2.379   7.444  18.817  0.00  0.00    +0.000 A 
ATOM     24 CL   UNL     1       3.225   5.986  18.477  0.00  0.00    +0.000 Cl
ATOM     25  C   UNL     1       2.248   8.414  17.825  0.00  0.00    +0.000 A 
ATOM     26  C   UNL     1       1.577   9.602  18.106  0.00  0.00    +0.000 A 
ENDBRANCH  18  20
TORSDOF 1
ENDMDL
MODEL 8
REMARK VINA RESULT:      -6.6      4.713      8.403
REMARK  Name = 
REMARK  2 active torsions:
REMARK  status: ('A' for Active; 'I' for Inactive)
REMARK    1  A    between atoms: C_1  and  C_2
REMARK    2  A    between atoms: C_18  and  C_19
REMARK                            x       y       z     vdW  Elec       q    Type
REMARK                         _______ _______ _______ _____ _____    ______ ____
ROOT
ATOM      1  C   UNL     1       2.950  14.431  19.988  0.00  0.00    +0.000 C 
ATOM      2  C   UNL     1       2.330  13.358  19.129  0.00  0.00    +0.000 C 
ATOM      3  O   UNL     1       2.994  12.748  18.293  0.00  0.00    +0.000 OA
ATOM      4  N   UNL     1       0.993  13.103  19.378  0.00  0.00    +0.000 N 
ATOM      5  N   UNL     1       0.220  13.931  20.151  0.00  0.00    +0.000 NA
ATOM      6  C   UNL     1      -1.009  13.509  20.057  0.00  0.00    +0.000 C 
ATOM      7  N   UNL     1      -2.042  14.130  20.703  0.00  0.00    +0.000 N 
ATOM      8  C   UNL     1      -3.333  13.746  20.798  0.00  0.00    +0.000 A 
ATOM      9  N   UNL     1      -3.844  12.661  20.266  0.00  0.00    +0.000 NA
ATOM     10  C   UNL     1      -5.185  12.546  20.575  0.00  0.00    +0.000 A 
ATOM     11  C   UNL     1      -6.033  11.494  20.176  0.00  0.00    +0.000 A 
ATOM     12  C   UNL     1      -7.378  11.505  20.558  0.00  0.00    +0.000 A 
ATOM     13  C   UNL     1      -7.880  12.548  21.331  0.00  0.00    +0.000 A 
ATOM     14  C   UNL     1      -7.056  13.602  21.742  0.00  0.00    +0.000 A 
ATOM     15  C   UNL     1      -5.707  13.579  21.352  0.00  0.00    +0.000 A 
ATOM     16  S   UNL     1      -4.451  14.704  21.692  0.00  0.00    +0.000 S 
ATOM     17  C   UNL     1      -1.196  12.295  19.181  0.00  0.00    +0.000 C 
ATOM     18  C   UNL     1       0.226  12.070  18.688  0.00  0.00    +0.000 C 
ATOM     19  H   UNL     1      -1.763  14.962  21.207  0.00  0.00    +0.000 HD
ENDROOT
BRANCH  18  20
ATOM     20  C   UNL     1       0.709  10.663  18.996  0.00  0.00    +0.000 A 
ATOM     21  C   UNL     1       0.590  10.145  20.295  0.00  0.00    +0.000 A 
ATOM     22  C   UNL     1       1.068   8.867  20.596  0.00  0.00    +0.000 A 
ATOM     23  C   UNL     1       1.668   8.099  19.600  0.00  0.00    +0.000 A 
ATOM     24 CL   UNL     1       2.281   6.537  19.976  0.00  0.00    +0.000 Cl
ATOM     25  C   UNL     1       1.779   8.591  18.301  0.00  0.00    +0.000 A 
ATOM     26  C   UNL     1       1.296   9.863  18.001  0.00  0.00    +0.000 A 
ENDBRANCH  18  20
TORSDOF 1
ENDMDL
MODEL 9
REMARK VINA RESULT:      -6.6      6.080      8.437
REMARK  Name = 
REMARK  2 active torsions:
REMARK  status: ('A' for Active; 'I' for Inactive)
REMARK    1  A    between atoms: C_1  and  C_2
REMARK    2  A    between atoms: C_18  and  C_19
REMARK                            x       y       z     vdW  Elec       q    Type
REMARK                         _______ _______ _______ _____ _____    ______ ____
ROOT
ATOM      1  C   UNL     1       1.917  17.659  17.304  0.00  0.00    +0.000 C 
ATOM      2  C   UNL     1       1.936  16.764  18.518  0.00  0.00    +0.000 C 
ATOM      3  O   UNL     1       0.929  16.600  19.205  0.00  0.00    +0.000 OA
ATOM      4  N   UNL     1       3.143  16.135  18.768  0.00  0.00    +0.000 N 
ATOM      5  N   UNL     1       4.303  16.494  18.129  0.00  0.00    +0.000 NA
ATOM      6  C   UNL     1       5.273  15.835  18.696  0.00  0.00    +0.000 C 
ATOM      7  N   UNL     1       6.575  15.976  18.301  0.00  0.00    +0.000 N 
ATOM      8  C   UNL     1       7.661  15.284  18.705  0.00  0.00    +0.000 A 
ATOM      9  N   UNL     1       7.658  14.310  19.584  0.00  0.00    +0.000 NA
ATOM     10  C   UNL     1       8.926  13.792  19.750  0.00  0.00    +0.000 A 
ATOM     11  C   UNL     1       9.275  12.730  20.608  0.00  0.00    +0.000 A 
ATOM     12  C   UNL     1      10.606  12.307  20.681  0.00  0.00    +0.000 A 
ATOM     13  C   UNL     1      11.585  12.929  19.912  0.00  0.00    +0.000 A 
ATOM     14  C   UNL     1      11.262  13.985  19.052  0.00  0.00    +0.000 A 
ATOM     15  C   UNL     1       9.921  14.399  18.986  0.00  0.00    +0.000 A 
ATOM     16  S   UNL     1       9.207  15.645  18.038  0.00  0.00    +0.000 S 
ATOM     17  C   UNL     1       4.848  14.919  19.816  0.00  0.00    +0.000 C 
ATOM     18  C   UNL     1       3.351  15.194  19.863  0.00  0.00    +0.000 C 
ATOM     19  H   UNL     1       6.705  16.668  17.574  0.00  0.00    +0.000 HD
ENDROOT
BRANCH  18  20
ATOM     20  C   UNL     1       2.542  13.917  19.715  0.00  0.00    +0.000 A 
ATOM     21  C   UNL     1       1.731  13.470  20.770  0.00  0.00    +0.000 A 
ATOM     22  C   UNL     1       1.014  12.275  20.656  0.00  0.00    +0.000 A 
ATOM     23  C   UNL     1       1.105  11.521  19.488  0.00  0.00    +0.000 A 
ATOM     24 CL   UNL     1       0.245  10.037  19.359  0.00  0.00    +0.000 Cl
ATOM     25  C   UNL     1       1.892  11.959  18.425  0.00  0.00    +0.000 A 
ATOM     26  C   UNL     1       2.600  13.153  18.537  0.00  0.00    +0.000 A 
ENDBRANCH  18  20
TORSDOF 1
ENDMDL
