MODEL 1
REMARK VINA RESULT:      -8.0      0.000      0.000
REMARK  Name = 
REMARK  6 active torsions:
REMARK  status: ('A' for Active; 'I' for Inactive)
REMARK    1  A    between atoms: C_1  and  C_2
REMARK    2  A    between atoms: C_2  and  C_3
REMARK    3  A    between atoms: C_2  and  C_4
REMARK    4  A    between atoms: C_2  and  N_6
REMARK    5  A    between atoms: C_13  and  C_14
REMARK    6  A    between atoms: C_16  and  C_17
REMARK                            x       y       z     vdW  Elec       q    Type
REMARK                         _______ _______ _______ _____ _____    ______ ____
ROOT
ATOM      1  N   UNL     1       3.854   4.695  18.791  0.00  0.00    +0.000 N 
ATOM      2  N   UNL     1       4.442   3.655  19.435  0.00  0.00    +0.000 NA
ATOM      3  N   UNL     1       5.609   3.402  18.859  0.00  0.00    +0.000 NA
ATOM      4  C   UNL     1       5.750   4.270  17.830  0.00  0.00    +0.000 A 
ATOM      5  C   UNL     1       4.637   5.073  17.725  0.00  0.00    +0.000 A 
ATOM      6  C   UNL     1       4.442   6.143  16.715  0.00  0.00    +0.000 C 
ATOM      7  C   UNL     1       5.578   6.084  15.661  0.00  0.00    +0.000 C 
ATOM      8  C   UNL     1       6.974   5.744  16.252  0.00  0.00    +0.000 C 
ATOM      9  C   UNL     1       6.938   4.362  16.954  0.00  0.00    +0.000 C 
ENDROOT
BRANCH   8  10
ATOM     10  C   UNL     1       7.494   6.815  17.166  0.00  0.00    +0.000 A 
ATOM     11  N   UNL     1       7.603   8.117  17.004  0.00  0.00    +0.000 NA
ATOM     12  C   UNL     1       8.215   8.519  18.179  0.00  0.00    +0.000 A 
ATOM     13  N   UNL     1       8.458   7.507  19.029  0.00  0.00    +0.000 NA
ATOM     14  O   UNL     1       7.996   6.385  18.359  0.00  0.00    +0.000 OA
BRANCH  12  15
ATOM     15  C   UNL     1       8.619   9.901  18.447  0.00  0.00    +0.000 A 
ATOM     16  C   UNL     1       8.268  10.938  17.568  0.00  0.00    +0.000 A 
ATOM     17  C   UNL     1       8.718  12.245  17.795  0.00  0.00    +0.000 A 
ATOM     18  C   UNL     1       9.516  12.519  18.900  0.00  0.00    +0.000 A 
ATOM     19  F   UNL     1       9.967  13.764  19.099  0.00  0.00    +0.000 F 
ATOM     20  C   UNL     1       9.857  11.515  19.797  0.00  0.00    +0.000 A 
ATOM     21  C   UNL     1       9.406  10.211  19.572  0.00  0.00    +0.000 A 
ENDBRANCH  12  15
ENDBRANCH   8  10
BRANCH   1  23
ATOM     22  C   UNL     1       2.749   6.774  19.642  0.00  0.00    +0.000 C 
ATOM     23  C   UNL     1       2.607   5.265  19.315  0.00  0.00    +0.000 C 
ATOM     24  C   UNL     1       1.470   5.135  18.284  0.00  0.00    +0.000 C 
BRANCH  23  25
ATOM     25  C   UNL     1       2.224   4.564  20.556  0.00  0.00    +0.000 C 
ATOM     26  N   UNL     1       1.951   4.020  21.547  0.00  0.00    +0.000 NA
ENDBRANCH  23  25
ENDBRANCH   1  23
TORSDOF 4
ENDMDL
MODEL 2
REMARK VINA RESULT:      -7.8      4.570      6.709
REMARK  Name = 
REMARK  6 active torsions:
REMARK  status: ('A' for Active; 'I' for Inactive)
REMARK    1  A    between atoms: C_1  and  C_2
REMARK    2  A    between atoms: C_2  and  C_3
REMARK    3  A    between atoms: C_2  and  C_4
REMARK    4  A    between atoms: C_2  and  N_6
REMARK    5  A    between atoms: C_13  and  C_14
REMARK    6  A    between atoms: C_16  and  C_17
REMARK                            x       y       z     vdW  Elec       q    Type
REMARK                         _______ _______ _______ _____ _____    ______ ____
ROOT
ATOM      1  N   UNL     1       2.824   4.077  18.670  0.00  0.00    +0.000 N 
ATOM      2  N   UNL     1       1.767   4.757  18.156  0.00  0.00    +0.000 NA
ATOM      3  N   UNL     1       2.183   5.949  17.752  0.00  0.00    +0.000 NA
ATOM      4  C   UNL     1       3.504   6.034  18.034  0.00  0.00    +0.000 A 
ATOM      5  C   UNL     1       3.936   4.886  18.659  0.00  0.00    +0.000 A 
ATOM      6  C   UNL     1       5.326   4.624  19.109  0.00  0.00    +0.000 C 
ATOM      7  C   UNL     1       6.176   5.913  18.968  0.00  0.00    +0.000 C 
ATOM      8  C   UNL     1       5.859   6.745  17.695  0.00  0.00    +0.000 C 
ATOM      9  C   UNL     1       4.372   7.185  17.698  0.00  0.00    +0.000 C 
ENDROOT
BRANCH   8  10
ATOM     10  C   UNL     1       6.222   6.029  16.428  0.00  0.00    +0.000 A 
ATOM     11  N   UNL     1       5.476   5.429  15.524  0.00  0.00    +0.000 NA
ATOM     12  C   UNL     1       6.415   4.913  14.648  0.00  0.00    +0.000 A 
ATOM     13  N   UNL     1       7.682   5.197  14.993  0.00  0.00    +0.000 NA
ATOM     14  O   UNL     1       7.557   5.920  16.170  0.00  0.00    +0.000 OA
BRANCH  12  15
ATOM     15  C   UNL     1       6.070   4.084  13.491  0.00  0.00    +0.000 A 
ATOM     16  C   UNL     1       4.731   3.885  13.121  0.00  0.00    +0.000 A 
ATOM     17  C   UNL     1       4.407   3.034  12.056  0.00  0.00    +0.000 A 
ATOM     18  C   UNL     1       5.418   2.383  11.359  0.00  0.00    +0.000 A 
ATOM     19  F   UNL     1       5.103   1.550  10.359  0.00  0.00    +0.000 F 
ATOM     20  C   UNL     1       6.752   2.582  11.691  0.00  0.00    +0.000 A 
ATOM     21  C   UNL     1       7.076   3.434  12.751  0.00  0.00    +0.000 A 
ENDBRANCH  12  15
ENDBRANCH   8  10
BRANCH   1  23
ATOM     22  C   UNL     1       1.263   2.120  18.695  0.00  0.00    +0.000 C 
ATOM     23  C   UNL     1       2.662   2.674  19.070  0.00  0.00    +0.000 C 
ATOM     24  C   UNL     1       3.700   1.781  18.367  0.00  0.00    +0.000 C 
BRANCH  23  25
ATOM     25  C   UNL     1       2.822   2.552  20.532  0.00  0.00    +0.000 C 
ATOM     26  N   UNL     1       2.933   2.485  21.688  0.00  0.00    +0.000 NA
ENDBRANCH  23  25
ENDBRANCH   1  23
TORSDOF 4
ENDMDL
MODEL 3
REMARK VINA RESULT:      -7.8      0.709      1.314
REMARK  Name = 
REMARK  6 active torsions:
REMARK  status: ('A' for Active; 'I' for Inactive)
REMARK    1  A    between atoms: C_1  and  C_2
REMARK    2  A    between atoms: C_2  and  C_3
REMARK    3  A    between atoms: C_2  and  C_4
REMARK    4  A    between atoms: C_2  and  N_6
REMARK    5  A    between atoms: C_13  and  C_14
REMARK    6  A    between atoms: C_16  and  C_17
REMARK                            x       y       z     vdW  Elec       q    Type
REMARK                         _______ _______ _______ _____ _____    ______ ____
ROOT
ATOM      1  N   UNL     1       3.792   4.724  18.797  0.00  0.00    +0.000 N 
ATOM      2  N   UNL     1       4.352   3.702  19.493  0.00  0.00    +0.000 NA
ATOM      3  N   UNL     1       5.532   3.418  18.960  0.00  0.00    +0.000 NA
ATOM      4  C   UNL     1       5.710   4.249  17.907  0.00  0.00    +0.000 A 
ATOM      5  C   UNL     1       4.609   5.058  17.742  0.00  0.00    +0.000 A 
ATOM      6  C   UNL     1       4.454   6.095  16.691  0.00  0.00    +0.000 C 
ATOM      7  C   UNL     1       5.619   5.990  15.674  0.00  0.00    +0.000 C 
ATOM      8  C   UNL     1       6.994   5.659  16.316  0.00  0.00    +0.000 C 
ATOM      9  C   UNL     1       6.925   4.301  17.063  0.00  0.00    +0.000 C 
ENDROOT
BRANCH   8  10
ATOM     10  C   UNL     1       7.498   6.755  17.207  0.00  0.00    +0.000 A 
ATOM     11  N   UNL     1       7.598   8.054  17.015  0.00  0.00    +0.000 NA
ATOM     12  C   UNL     1       8.197   8.489  18.185  0.00  0.00    +0.000 A 
ATOM     13  N   UNL     1       8.440   7.500  19.061  0.00  0.00    +0.000 NA
ATOM     14  O   UNL     1       7.992   6.358  18.415  0.00  0.00    +0.000 OA
BRANCH  12  15
ATOM     15  C   UNL     1       8.588   9.880  18.422  0.00  0.00    +0.000 A 
ATOM     16  C   UNL     1       8.205  10.898  17.534  0.00  0.00    +0.000 A 
ATOM     17  C   UNL     1       8.643  12.214  17.731  0.00  0.00    +0.000 A 
ATOM     18  C   UNL     1       9.460  12.516  18.814  0.00  0.00    +0.000 A 
ATOM     19  F   UNL     1       9.898  13.770  18.984  0.00  0.00    +0.000 F 
ATOM     20  C   UNL     1       9.834  11.532  19.720  0.00  0.00    +0.000 A 
ATOM     21  C   UNL     1       9.395  10.218  19.526  0.00  0.00    +0.000 A 
ENDBRANCH  12  15
ENDBRANCH   8  10
BRANCH   1  23
ATOM     22  C   UNL     1       1.304   4.747  18.517  0.00  0.00    +0.000 C 
ATOM     23  C   UNL     1       2.536   5.322  19.264  0.00  0.00    +0.000 C 
ATOM     24  C   UNL     1       2.320   5.042  20.763  0.00  0.00    +0.000 C 
BRANCH  23  25
ATOM     25  C   UNL     1       2.566   6.780  19.037  0.00  0.00    +0.000 C 
ATOM     26  N   UNL     1       2.601   7.924  18.829  0.00  0.00    +0.000 NA
ENDBRANCH  23  25
ENDBRANCH   1  23
TORSDOF 4
ENDMDL
MODEL 4
REMARK VINA RESULT:      -7.8      4.581      6.772
REMARK  Name = 
REMARK  6 active torsions:
REMARK  status: ('A' for Active; 'I' for Inactive)
REMARK    1  A    between atoms: C_1  and  C_2
REMARK    2  A    between atoms: C_2  and  C_3
REMARK    3  A    between atoms: C_2  and  C_4
REMARK    4  A    between atoms: C_2  and  N_6
REMARK    5  A    between atoms: C_13  and  C_14
REMARK    6  A    between atoms: C_16  and  C_17
REMARK                            x       y       z     vdW  Elec       q    Type
REMARK                         _______ _______ _______ _____ _____    ______ ____
ROOT
ATOM      1  N   UNL     1       3.010   4.122  18.578  0.00  0.00    +0.000 N 
ATOM      2  N   UNL     1       1.967   4.872  18.139  0.00  0.00    +0.000 NA
ATOM      3  N   UNL     1       2.420   6.067  17.785  0.00  0.00    +0.000 NA
ATOM      4  C   UNL     1       3.753   6.081  18.023  0.00  0.00    +0.000 A 
ATOM      5  C   UNL     1       4.155   4.885  18.570  0.00  0.00    +0.000 A 
ATOM      6  C   UNL     1       5.547   4.541  18.956  0.00  0.00    +0.000 C 
ATOM      7  C   UNL     1       6.446   5.800  18.853  0.00  0.00    +0.000 C 
ATOM      8  C   UNL     1       6.123   6.713  17.638  0.00  0.00    +0.000 C 
ATOM      9  C   UNL     1       4.657   7.213  17.718  0.00  0.00    +0.000 C 
ENDROOT
BRANCH   8  10
ATOM     10  C   UNL     1       6.412   6.053  16.322  0.00  0.00    +0.000 A 
ATOM     11  N   UNL     1       5.645   5.350  15.516  0.00  0.00    +0.000 NA
ATOM     12  C   UNL     1       6.523   4.972  14.514  0.00  0.00    +0.000 A 
ATOM     13  N   UNL     1       7.771   5.436  14.694  0.00  0.00    +0.000 NA
ATOM     14  O   UNL     1       7.702   6.136  15.888  0.00  0.00    +0.000 OA
BRANCH  12  15
ATOM     15  C   UNL     1       6.148   4.100  13.400  0.00  0.00    +0.000 A 
ATOM     16  C   UNL     1       4.801   3.914  13.051  0.00  0.00    +0.000 A 
ATOM     17  C   UNL     1       4.448   3.023  12.029  0.00  0.00    +0.000 A 
ATOM     18  C   UNL     1       5.438   2.319  11.353  0.00  0.00    +0.000 A 
ATOM     19  F   UNL     1       5.094   1.448  10.395  0.00  0.00    +0.000 F 
ATOM     20  C   UNL     1       6.779   2.502  11.664  0.00  0.00    +0.000 A 
ATOM     21  C   UNL     1       7.132   3.394  12.681  0.00  0.00    +0.000 A 
ENDBRANCH  12  15
ENDBRANCH   8  10
BRANCH   1  23
ATOM     22  C   UNL     1       3.648   1.770  18.007  0.00  0.00    +0.000 C 
ATOM     23  C   UNL     1       2.802   2.707  18.908  0.00  0.00    +0.000 C 
ATOM     24  C   UNL     1       3.210   2.418  20.364  0.00  0.00    +0.000 C 
BRANCH  23  25
ATOM     25  C   UNL     1       1.380   2.357  18.719  0.00  0.00    +0.000 C 
ATOM     26  N   UNL     1       0.265   2.080  18.538  0.00  0.00    +0.000 NA
ENDBRANCH  23  25
ENDBRANCH   1  23
TORSDOF 4
ENDMDL
MODEL 5
REMARK VINA RESULT:      -7.7      0.772      1.189
REMARK  Name = 
REMARK  6 active torsions:
REMARK  status: ('A' for Active; 'I' for Inactive)
REMARK    1  A    between atoms: C_1  and  C_2
REMARK    2  A    between atoms: C_2  and  C_3
REMARK    3  A    between atoms: C_2  and  C_4
REMARK    4  A    between atoms: C_2  and  N_6
REMARK    5  A    between atoms: C_13  and  C_14
REMARK    6  A    between atoms: C_16  and  C_17
REMARK                            x       y       z     vdW  Elec       q    Type
REMARK                         _______ _______ _______ _____ _____    ______ ____
ROOT
ATOM      1  N   UNL     1       3.947   4.819  18.668  0.00  0.00    +0.000 N 
ATOM      2  N   UNL     1       4.471   3.875  19.490  0.00  0.00    +0.000 NA
ATOM      3  N   UNL     1       5.705   3.599  19.092  0.00  0.00    +0.000 NA
ATOM      4  C   UNL     1       5.955   4.355  17.998  0.00  0.00    +0.000 A 
ATOM      5  C   UNL     1       4.849   5.105  17.669  0.00  0.00    +0.000 A 
ATOM      6  C   UNL     1       4.761   6.053  16.530  0.00  0.00    +0.000 C 
ATOM      7  C   UNL     1       6.020   5.917  15.636  0.00  0.00    +0.000 C 
ATOM      8  C   UNL     1       7.338   5.689  16.426  0.00  0.00    +0.000 C 
ATOM      9  C   UNL     1       7.242   4.390  17.267  0.00  0.00    +0.000 C 
ENDROOT
BRANCH   8  10
ATOM     10  C   UNL     1       7.719   6.869  17.270  0.00  0.00    +0.000 A 
ATOM     11  N   UNL     1       7.793   8.153  16.987  0.00  0.00    +0.000 NA
ATOM     12  C   UNL     1       8.266   8.698  18.169  0.00  0.00    +0.000 A 
ATOM     13  N   UNL     1       8.461   7.788  19.138  0.00  0.00    +0.000 NA
ATOM     14  O   UNL     1       8.113   6.584  18.545  0.00  0.00    +0.000 OA
BRANCH  12  15
ATOM     15  C   UNL     1       8.586  10.117  18.331  0.00  0.00    +0.000 A 
ATOM     16  C   UNL     1       8.020  11.085  17.486  0.00  0.00    +0.000 A 
ATOM     17  C   UNL     1       8.386  12.432  17.603  0.00  0.00    +0.000 A 
ATOM     18  C   UNL     1       9.314  12.815  18.565  0.00  0.00    +0.000 A 
ATOM     19  F   UNL     1       9.682  14.100  18.656  0.00  0.00    +0.000 F 
ATOM     20  C   UNL     1       9.870  11.881  19.428  0.00  0.00    +0.000 A 
ATOM     21  C   UNL     1       9.503  10.536  19.314  0.00  0.00    +0.000 A 
ENDBRANCH  12  15
ENDBRANCH   8  10
BRANCH   1  23
ATOM     22  C   UNL     1       2.200   5.130  20.434  0.00  0.00    +0.000 C 
ATOM     23  C   UNL     1       2.633   5.400  18.969  0.00  0.00    +0.000 C 
ATOM     24  C   UNL     1       2.655   6.929  18.784  0.00  0.00    +0.000 C 
BRANCH  23  25
ATOM     25  C   UNL     1       1.614   4.814  18.078  0.00  0.00    +0.000 C 
ATOM     26  N   UNL     1       0.826   4.323  17.376  0.00  0.00    +0.000 NA
ENDBRANCH  23  25
ENDBRANCH   1  23
TORSDOF 4
ENDMDL
MODEL 6
REMARK VINA RESULT:      -7.2      4.585      6.714
REMARK  Name = 
REMARK  6 active torsions:
REMARK  status: ('A' for Active; 'I' for Inactive)
REMARK    1  A    between atoms: C_1  and  C_2
REMARK    2  A    between atoms: C_2  and  C_3
REMARK    3  A    between atoms: C_2  and  C_4
REMARK    4  A    between atoms: C_2  and  N_6
REMARK    5  A    between atoms: C_13  and  C_14
REMARK    6  A    between atoms: C_16  and  C_17
REMARK                            x       y       z     vdW  Elec       q    Type
REMARK                         _______ _______ _______ _____ _____    ______ ____
ROOT
ATOM      1  N   UNL     1       2.683   4.199  18.819  0.00  0.00    +0.000 N 
ATOM      2  N   UNL     1       1.713   4.959  18.250  0.00  0.00    +0.000 NA
ATOM      3  N   UNL     1       2.250   6.098  17.836  0.00  0.00    +0.000 NA
ATOM      4  C   UNL     1       3.563   6.069  18.166  0.00  0.00    +0.000 A 
ATOM      5  C   UNL     1       3.864   4.903  18.833  0.00  0.00    +0.000 A 
ATOM      6  C   UNL     1       5.208   4.527  19.342  0.00  0.00    +0.000 C 
ATOM      7  C   UNL     1       6.176   5.730  19.204  0.00  0.00    +0.000 C 
ATOM      8  C   UNL     1       5.983   6.555  17.902  0.00  0.00    +0.000 C 
ATOM      9  C   UNL     1       4.543   7.128  17.838  0.00  0.00    +0.000 C 
ENDROOT
BRANCH   8  10
ATOM     10  C   UNL     1       6.324   5.776  16.666  0.00  0.00    +0.000 A 
ATOM     11  N   UNL     1       5.594   5.432  15.627  0.00  0.00    +0.000 NA
ATOM     12  C   UNL     1       6.474   4.671  14.875  0.00  0.00    +0.000 A 
ATOM     13  N   UNL     1       7.695   4.567  15.425  0.00  0.00    +0.000 NA
ATOM     14  O   UNL     1       7.595   5.282  16.609  0.00  0.00    +0.000 OA
BRANCH  12  15
ATOM     15  C   UNL     1       6.097   3.993  13.634  0.00  0.00    +0.000 A 
ATOM     16  C   UNL     1       4.749   3.866  13.262  0.00  0.00    +0.000 A 
ATOM     17  C   UNL     1       4.394   3.154  12.109  0.00  0.00    +0.000 A 
ATOM     18  C   UNL     1       5.382   2.570  11.325  0.00  0.00    +0.000 A 
ATOM     19  F   UNL     1       5.037   1.867  10.239  0.00  0.00    +0.000 F 
ATOM     20  C   UNL     1       6.724   2.700  11.659  0.00  0.00    +0.000 A 
ATOM     21  C   UNL     1       7.079   3.414  12.808  0.00  0.00    +0.000 A 
ENDBRANCH  12  15
ENDBRANCH   8  10
BRANCH   1  23
ATOM     22  C   UNL     1       2.559   2.637  20.772  0.00  0.00    +0.000 C 
ATOM     23  C   UNL     1       2.379   2.827  19.243  0.00  0.00    +0.000 C 
ATOM     24  C   UNL     1       0.920   2.463  18.916  0.00  0.00    +0.000 C 
BRANCH  23  25
ATOM     25  C   UNL     1       3.285   1.884  18.558  0.00  0.00    +0.000 C 
ATOM     26  N   UNL     1       3.979   1.116  18.027  0.00  0.00    +0.000 NA
ENDBRANCH  23  25
ENDBRANCH   1  23
TORSDOF 4
ENDMDL
MODEL 7
REMARK VINA RESULT:      -7.0      3.912      6.405
REMARK  Name = 
REMARK  6 active torsions:
REMARK  status: ('A' for Active; 'I' for Inactive)
REMARK    1  A    between atoms: C_1  and  C_2
REMARK    2  A    between atoms: C_2  and  C_3
REMARK    3  A    between atoms: C_2  and  C_4
REMARK    4  A    between atoms: C_2  and  N_6
REMARK    5  A    between atoms: C_13  and  C_14
REMARK    6  A    between atoms: C_16  and  C_17
REMARK                            x       y       z     vdW  Elec       q    Type
REMARK                         _______ _______ _______ _____ _____    ______ ____
ROOT
ATOM      1  N   UNL     1       5.551   4.488  16.854  0.00  0.00    +0.000 N 
ATOM      2  N   UNL     1       4.849   4.365  15.698  0.00  0.00    +0.000 NA
ATOM      3  N   UNL     1       3.668   3.828  15.971  0.00  0.00    +0.000 NA
ATOM      4  C   UNL     1       3.631   3.588  17.302  0.00  0.00    +0.000 A 
ATOM      5  C   UNL     1       4.823   3.948  17.888  0.00  0.00    +0.000 A 
ATOM      6  C   UNL     1       5.140   3.830  19.334  0.00  0.00    +0.000 C 
ATOM      7  C   UNL     1       4.015   3.045  20.055  0.00  0.00    +0.000 C 
ATOM      8  C   UNL     1       2.584   3.370  19.543  0.00  0.00    +0.000 C 
ATOM      9  C   UNL     1       2.467   3.038  18.032  0.00  0.00    +0.000 C 
ENDROOT
BRANCH   8  10
ATOM     10  C   UNL     1       2.171   4.782  19.833  0.00  0.00    +0.000 A 
ATOM     11  N   UNL     1       2.127   5.850  19.065  0.00  0.00    +0.000 NA
ATOM     12  C   UNL     1       1.727   6.841  19.945  0.00  0.00    +0.000 A 
ATOM     13  N   UNL     1       1.522   6.396  21.195  0.00  0.00    +0.000 NA
ATOM     14  O   UNL     1       1.826   5.045  21.127  0.00  0.00    +0.000 OA
BRANCH  12  15
ATOM     15  C   UNL     1       1.600   8.251  19.568  0.00  0.00    +0.000 A 
ATOM     16  C   UNL     1       0.979   9.173  20.425  0.00  0.00    +0.000 A 
ATOM     17  C   UNL     1       0.799  10.504  20.027  0.00  0.00    +0.000 A 
ATOM     18  C   UNL     1       1.241  10.916  18.775  0.00  0.00    +0.000 A 
ATOM     19  F   UNL     1       1.044  12.183  18.387  0.00  0.00    +0.000 F 
ATOM     20  C   UNL     1       1.880  10.029  17.919  0.00  0.00    +0.000 A 
ATOM     21  C   UNL     1       2.062   8.701  18.317  0.00  0.00    +0.000 A 
ENDBRANCH  12  15
ENDBRANCH   8  10
BRANCH   1  23
ATOM     22  C   UNL     1       6.733   6.628  17.393  0.00  0.00    +0.000 C 
ATOM     23  C   UNL     1       6.845   5.180  16.850  0.00  0.00    +0.000 C 
ATOM     24  C   UNL     1       7.861   4.445  17.743  0.00  0.00    +0.000 C 
BRANCH  23  25
ATOM     25  C   UNL     1       7.367   5.251  15.471  0.00  0.00    +0.000 C 
ATOM     26  N   UNL     1       7.785   5.338  14.389  0.00  0.00    +0.000 NA
ENDBRANCH  23  25
ENDBRANCH   1  23
TORSDOF 4
ENDMDL
MODEL 8
REMARK VINA RESULT:      -6.9      4.030      6.936
REMARK  Name = 
REMARK  6 active torsions:
REMARK  status: ('A' for Active; 'I' for Inactive)
REMARK    1  A    between atoms: C_1  and  C_2
REMARK    2  A    between atoms: C_2  and  C_3
REMARK    3  A    between atoms: C_2  and  C_4
REMARK    4  A    between atoms: C_2  and  N_6
REMARK    5  A    between atoms: C_13  and  C_14
REMARK    6  A    between atoms: C_16  and  C_17
REMARK                            x       y       z     vdW  Elec       q    Type
REMARK                         _______ _______ _______ _____ _____    ______ ____
ROOT
ATOM      1  N   UNL     1       5.478   4.677  17.038  0.00  0.00    +0.000 N 
ATOM      2  N   UNL     1       4.757   4.445  15.911  0.00  0.00    +0.000 NA
ATOM      3  N   UNL     1       3.537   4.061  16.258  0.00  0.00    +0.000 NA
ATOM      4  C   UNL     1       3.491   4.028  17.610  0.00  0.00    +0.000 A 
ATOM      5  C   UNL     1       4.716   4.365  18.139  0.00  0.00    +0.000 A 
ATOM      6  C   UNL     1       5.035   4.438  19.587  0.00  0.00    +0.000 C 
ATOM      7  C   UNL     1       3.853   3.872  20.415  0.00  0.00    +0.000 C 
ATOM      8  C   UNL     1       2.451   4.242  19.854  0.00  0.00    +0.000 C 
ATOM      9  C   UNL     1       2.291   3.699  18.410  0.00  0.00    +0.000 C 
ENDROOT
BRANCH   8  10
ATOM     10  C   UNL     1       2.167   5.713  19.927  0.00  0.00    +0.000 A 
ATOM     11  N   UNL     1       1.589   6.441  20.860  0.00  0.00    +0.000 NA
ATOM     12  C   UNL     1       1.574   7.704  20.293  0.00  0.00    +0.000 A 
ATOM     13  N   UNL     1       2.130   7.749  19.071  0.00  0.00    +0.000 NA
ATOM     14  O   UNL     1       2.509   6.439  18.824  0.00  0.00    +0.000 OA
BRANCH  12  15
ATOM     15  C   UNL     1       0.955   8.867  20.932  0.00  0.00    +0.000 A 
ATOM     16  C   UNL     1       0.562   8.826  22.279  0.00  0.00    +0.000 A 
ATOM     17  C   UNL     1      -0.093   9.918  22.862  0.00  0.00    +0.000 A 
ATOM     18  C   UNL     1      -0.354  11.053  22.103  0.00  0.00    +0.000 A 
ATOM     19  F   UNL     1      -1.005  12.085  22.656  0.00  0.00    +0.000 F 
ATOM     20  C   UNL     1       0.045  11.128  20.775  0.00  0.00    +0.000 A 
ATOM     21  C   UNL     1       0.701  10.039  20.193  0.00  0.00    +0.000 A 
ENDBRANCH  12  15
ENDBRANCH   8  10
BRANCH   1  23
ATOM     22  C   UNL     1       6.892   6.698  17.470  0.00  0.00    +0.000 C 
ATOM     23  C   UNL     1       6.829   5.243  16.935  0.00  0.00    +0.000 C 
ATOM     24  C   UNL     1       7.833   4.418  17.760  0.00  0.00    +0.000 C 
BRANCH  23  25
ATOM     25  C   UNL     1       7.253   5.260  15.521  0.00  0.00    +0.000 C 
ATOM     26  N   UNL     1       7.563   5.293  14.400  0.00  0.00    +0.000 NA
ENDBRANCH  23  25
ENDBRANCH   1  23
TORSDOF 4
ENDMDL
MODEL 9
REMARK VINA RESULT:      -6.8      4.670      6.817
REMARK  Name = 
REMARK  6 active torsions:
REMARK  status: ('A' for Active; 'I' for Inactive)
REMARK    1  A    between atoms: C_1  and  C_2
REMARK    2  A    between atoms: C_2  and  C_3
REMARK    3  A    between atoms: C_2  and  C_4
REMARK    4  A    between atoms: C_2  and  N_6
REMARK    5  A    between atoms: C_13  and  C_14
REMARK    6  A    between atoms: C_16  and  C_17
REMARK                            x       y       z     vdW  Elec       q    Type
REMARK                         _______ _______ _______ _____ _____    ______ ____
ROOT
ATOM      1  N   UNL     1       2.931   4.391  19.186  0.00  0.00    +0.000 N 
ATOM      2  N   UNL     1       2.073   5.442  19.171  0.00  0.00    +0.000 NA
ATOM      3  N   UNL     1       2.740   6.532  18.816  0.00  0.00    +0.000 NA
ATOM      4  C   UNL     1       4.031   6.173  18.628  0.00  0.00    +0.000 A 
ATOM      5  C   UNL     1       4.201   4.835  18.900  0.00  0.00    +0.000 A 
ATOM      6  C   UNL     1       5.484   4.093  18.798  0.00  0.00    +0.000 C 
ATOM      7  C   UNL     1       6.646   5.088  18.548  0.00  0.00    +0.000 C 
ATOM      8  C   UNL     1       6.286   6.259  17.593  0.00  0.00    +0.000 C 
ATOM      9  C   UNL     1       5.107   7.082  18.174  0.00  0.00    +0.000 C 
ENDROOT
BRANCH   8  10
ATOM     10  C   UNL     1       6.004   5.799  16.193  0.00  0.00    +0.000 A 
ATOM     11  N   UNL     1       6.310   4.683  15.567  0.00  0.00    +0.000 NA
ATOM     12  C   UNL     1       5.828   4.909  14.289  0.00  0.00    +0.000 A 
ATOM     13  N   UNL     1       5.239   6.107  14.143  0.00  0.00    +0.000 NA
ATOM     14  O   UNL     1       5.366   6.699  15.391  0.00  0.00    +0.000 OA
BRANCH  12  15
ATOM     15  C   UNL     1       5.996   3.963  13.184  0.00  0.00    +0.000 A 
ATOM     16  C   UNL     1       4.891   3.299  12.627  0.00  0.00    +0.000 A 
ATOM     17  C   UNL     1       5.070   2.344  11.618  0.00  0.00    +0.000 A 
ATOM     18  C   UNL     1       6.351   2.052  11.162  0.00  0.00    +0.000 A 
ATOM     19  F   UNL     1       6.520   1.119  10.216  0.00  0.00    +0.000 F 
ATOM     20  C   UNL     1       7.458   2.712  11.680  0.00  0.00    +0.000 A 
ATOM     21  C   UNL     1       7.280   3.667  12.685  0.00  0.00    +0.000 A 
ENDBRANCH  12  15
ENDBRANCH   8  10
BRANCH   1  23
ATOM     22  C   UNL     1       0.915   2.912  19.057  0.00  0.00    +0.000 C 
ATOM     23  C   UNL     1       2.418   3.036  19.419  0.00  0.00    +0.000 C 
ATOM     24  C   UNL     1       3.173   2.008  18.556  0.00  0.00    +0.000 C 
BRANCH  23  25
ATOM     25  C   UNL     1       2.573   2.685  20.845  0.00  0.00    +0.000 C 
ATOM     26  N   UNL     1       2.662   2.406  21.971  0.00  0.00    +0.000 NA
ENDBRANCH  23  25
ENDBRANCH   1  23
TORSDOF 4
ENDMDL
