MODEL 1
REMARK VINA RESULT:      -8.9      0.000      0.000
REMARK  Name = 
REMARK  8 active torsions:
REMARK  status: ('A' for Active; 'I' for Inactive)
REMARK    1  A    between atoms: C_1  and  C_2
REMARK    2  A    between atoms: C_9  and  O_10
REMARK    3  A    between atoms: O_10  and  C_11
REMARK    4  A    between atoms: C_11  and  C_12
REMARK    5  A    between atoms: C_18  and  C_19
REMARK    6  A    between atoms: C_19  and  C_20
REMARK    7  A    between atoms: C_20  and  C_21
REMARK    8  A    between atoms: C_20  and  C_22
REMARK                            x       y       z     vdW  Elec       q    Type
REMARK                         _______ _______ _______ _____ _____    ______ ____
ROOT
ATOM      1  C   UNL     1       4.189   5.200  19.267  0.00  0.00    +0.000 C 
ENDROOT
BRANCH   1   2
ATOM      2  C   UNL     1       4.738   4.572  17.985  0.00  0.00    +0.000 C 
ATOM      3  O   UNL     1       4.478   3.404  17.712  0.00  0.00    +0.000 OA
ATOM      4  N   UNL     1       5.534   5.427  17.246  0.00  0.00    +0.000 N 
ATOM      5  C   UNL     1       6.114   5.124  16.035  0.00  0.00    +0.000 A 
ATOM      6  N   UNL     1       7.098   5.826  15.518  0.00  0.00    +0.000 NA
ATOM      7  N   UNL     1       7.465   5.367  14.265  0.00  0.00    +0.000 NA
ATOM      8  C   UNL     1       6.687   4.389  13.848  0.00  0.00    +0.000 A 
ATOM      9  S   UNL     1       5.535   3.882  15.016  0.00  0.00    +0.000 S 
ATOM     10  H   UNL     1       5.832   6.311  17.634  0.00  0.00    +0.000 HD
BRANCH   8  11
ATOM     11  C   UNL     1       6.771   3.736  12.500  0.00  0.00    +0.000 C 
BRANCH  11  12
ATOM     12  C   UNL     1       5.563   2.832  12.167  0.00  0.00    +0.000 C 
ATOM     13  C   UNL     1       4.391   3.602  11.550  0.00  0.00    +0.000 C 
ATOM     14  C   UNL     1       5.987   1.724  11.195  0.00  0.00    +0.000 C 
ENDBRANCH  11  12
ENDBRANCH   8  11
ENDBRANCH   1   2
BRANCH   1  15
ATOM     15  O   UNL     1       2.791   5.392  19.078  0.00  0.00    +0.000 OA
BRANCH  15  24
ATOM     16  C   UNL     1       0.919  11.683  18.703  0.00  0.00    +0.000 C 
ATOM     17  C   UNL     1       0.862  10.669  19.810  0.00  0.00    +0.000 A 
ATOM     18  C   UNL     1       0.367  10.985  21.016  0.00  0.00    +0.000 A 
ATOM     19  C   UNL     1       0.293  10.038  22.137  0.00  0.00    +0.000 A 
ATOM     20  O   UNL     1      -0.174  10.386  23.218  0.00  0.00    +0.000 OA
ATOM     21  O   UNL     1       0.775   8.762  21.910  0.00  0.00    +0.000 OA
ATOM     22  C   UNL     1       1.298   8.392  20.655  0.00  0.00    +0.000 A 
ATOM     23  C   UNL     1       1.754   7.073  20.544  0.00  0.00    +0.000 A 
ATOM     24  C   UNL     1       2.286   6.635  19.338  0.00  0.00    +0.000 A 
ATOM     25  C   UNL     1       2.341   7.526  18.261  0.00  0.00    +0.000 A 
ATOM     26  C   UNL     1       1.882   8.844  18.384  0.00  0.00    +0.000 A 
ATOM     27  C   UNL     1       1.353   9.302  19.597  0.00  0.00    +0.000 A 
ENDBRANCH  15  24
ENDBRANCH   1  15
TORSDOF 5
ENDMDL
MODEL 2
REMARK VINA RESULT:      -8.7      1.444      2.085
REMARK  Name = 
REMARK  8 active torsions:
REMARK  status: ('A' for Active; 'I' for Inactive)
REMARK    1  A    between atoms: C_1  and  C_2
REMARK    2  A    between atoms: C_9  and  O_10
REMARK    3  A    between atoms: O_10  and  C_11
REMARK    4  A    between atoms: C_11  and  C_12
REMARK    5  A    between atoms: C_18  and  C_19
REMARK    6  A    between atoms: C_19  and  C_20
REMARK    7  A    between atoms: C_20  and  C_21
REMARK    8  A    between atoms: C_20  and  C_22
REMARK                            x       y       z     vdW  Elec       q    Type
REMARK                         _______ _______ _______ _____ _____    ______ ____
ROOT
ATOM      1  C   UNL     1       3.656   6.110  18.507  0.00  0.00    +0.000 C 
ENDROOT
BRANCH   1   2
ATOM      2  C   UNL     1       4.224   5.289  17.349  0.00  0.00    +0.000 C 
ATOM      3  O   UNL     1       3.719   4.210  17.053  0.00  0.00    +0.000 OA
ATOM      4  N   UNL     1       5.324   5.869  16.746  0.00  0.00    +0.000 N 
ATOM      5  C   UNL     1       5.995   5.357  15.658  0.00  0.00    +0.000 A 
ATOM      6  N   UNL     1       7.198   5.756  15.309  0.00  0.00    +0.000 NA
ATOM      7  N   UNL     1       7.633   5.145  14.145  0.00  0.00    +0.000 NA
ATOM      8  C   UNL     1       6.707   4.372  13.615  0.00  0.00    +0.000 A 
ATOM      9  S   UNL     1       5.288   4.243  14.574  0.00  0.00    +0.000 S 
ATOM     10  H   UNL     1       5.774   6.670  17.166  0.00  0.00    +0.000 HD
BRANCH   8  11
ATOM     11  C   UNL     1       6.837   3.640  12.312  0.00  0.00    +0.000 C 
BRANCH  11  12
ATOM     12  C   UNL     1       5.697   2.634  12.044  0.00  0.00    +0.000 C 
ATOM     13  C   UNL     1       4.474   3.277  11.383  0.00  0.00    +0.000 C 
ATOM     14  C   UNL     1       6.198   1.497  11.145  0.00  0.00    +0.000 C 
ENDBRANCH  11  12
ENDBRANCH   8  11
ENDBRANCH   1   2
BRANCH   1  15
ATOM     15  O   UNL     1       2.950   7.209  17.939  0.00  0.00    +0.000 OA
BRANCH  15  24
ATOM     16  C   UNL     1      -0.402   9.546  23.090  0.00  0.00    +0.000 C 
ATOM     17  C   UNL     1      -0.220  10.044  21.683  0.00  0.00    +0.000 A 
ATOM     18  C   UNL     1      -0.817  11.168  21.263  0.00  0.00    +0.000 A 
ATOM     19  C   UNL     1      -0.680  11.699  19.899  0.00  0.00    +0.000 A 
ATOM     20  O   UNL     1      -1.249  12.736  19.573  0.00  0.00    +0.000 OA
ATOM     21  O   UNL     1       0.104  10.973  19.021  0.00  0.00    +0.000 OA
ATOM     22  C   UNL     1       0.751   9.789  19.429  0.00  0.00    +0.000 A 
ATOM     23  C   UNL     1       1.519   9.141  18.453  0.00  0.00    +0.000 A 
ATOM     24  C   UNL     1       2.184   7.966  18.780  0.00  0.00    +0.000 A 
ATOM     25  C   UNL     1       2.075   7.467  20.082  0.00  0.00    +0.000 A 
ATOM     26  C   UNL     1       1.302   8.123  21.049  0.00  0.00    +0.000 A 
ATOM     27  C   UNL     1       0.618   9.303  20.732  0.00  0.00    +0.000 A 
ENDBRANCH  15  24
ENDBRANCH   1  15
TORSDOF 5
ENDMDL
MODEL 3
REMARK VINA RESULT:      -8.4      1.594      2.199
REMARK  Name = 
REMARK  8 active torsions:
REMARK  status: ('A' for Active; 'I' for Inactive)
REMARK    1  A    between atoms: C_1  and  C_2
REMARK    2  A    between atoms: C_9  and  O_10
REMARK    3  A    between atoms: O_10  and  C_11
REMARK    4  A    between atoms: C_11  and  C_12
REMARK    5  A    between atoms: C_18  and  C_19
REMARK    6  A    between atoms: C_19  and  C_20
REMARK    7  A    between atoms: C_20  and  C_21
REMARK    8  A    between atoms: C_20  and  C_22
REMARK                            x       y       z     vdW  Elec       q    Type
REMARK                         _______ _______ _______ _____ _____    ______ ____
ROOT
ATOM      1  C   UNL     1       4.521   4.399  19.468  0.00  0.00    +0.000 C 
ENDROOT
BRANCH   1   2
ATOM      2  C   UNL     1       4.928   3.981  18.054  0.00  0.00    +0.000 C 
ATOM      3  O   UNL     1       4.508   2.930  17.579  0.00  0.00    +0.000 OA
ATOM      4  N   UNL     1       5.796   4.865  17.443  0.00  0.00    +0.000 N 
ATOM      5  C   UNL     1       6.280   4.744  16.160  0.00  0.00    +0.000 A 
ATOM      6  N   UNL     1       7.324   5.415  15.724  0.00  0.00    +0.000 NA
ATOM      7  N   UNL     1       7.575   5.176  14.383  0.00  0.00    +0.000 NA
ATOM      8  C   UNL     1       6.659   4.400  13.839  0.00  0.00    +0.000 A 
ATOM      9  S   UNL     1       5.502   3.809  14.961  0.00  0.00    +0.000 S 
ATOM     10  H   UNL     1       6.223   5.612  17.974  0.00  0.00    +0.000 HD
BRANCH   8  11
ATOM     11  C   UNL     1       6.601   4.025  12.387  0.00  0.00    +0.000 C 
BRANCH  11  12
ATOM     12  C   UNL     1       5.627   2.866  12.080  0.00  0.00    +0.000 C 
ATOM     13  C   UNL     1       4.363   3.324  11.347  0.00  0.00    +0.000 C 
ATOM     14  C   UNL     1       6.329   1.801  11.228  0.00  0.00    +0.000 C 
ENDBRANCH  11  12
ENDBRANCH   8  11
ENDBRANCH   1   2
BRANCH   1  15
ATOM     15  O   UNL     1       3.105   4.550  19.472  0.00  0.00    +0.000 OA
BRANCH  15  24
ATOM     16  C   UNL     1      -0.107   9.956  21.390  0.00  0.00    +0.000 C 
ATOM     17  C   UNL     1       0.799   9.670  20.226  0.00  0.00    +0.000 A 
ATOM     18  C   UNL     1       1.078  10.614  19.315  0.00  0.00    +0.000 A 
ATOM     19  C   UNL     1       1.950  10.389  18.154  0.00  0.00    +0.000 A 
ATOM     20  O   UNL     1       2.171  11.295  17.355  0.00  0.00    +0.000 OA
ATOM     21  O   UNL     1       2.490   9.125  18.013  0.00  0.00    +0.000 OA
ATOM     22  C   UNL     1       2.223   8.109  18.952  0.00  0.00    +0.000 A 
ATOM     23  C   UNL     1       2.827   6.869  18.705  0.00  0.00    +0.000 A 
ATOM     24  C   UNL     1       2.608   5.818  19.586  0.00  0.00    +0.000 A 
ATOM     25  C   UNL     1       1.796   6.030  20.704  0.00  0.00    +0.000 A 
ATOM     26  C   UNL     1       1.196   7.274  20.940  0.00  0.00    +0.000 A 
ATOM     27  C   UNL     1       1.399   8.341  20.055  0.00  0.00    +0.000 A 
ENDBRANCH  15  24
ENDBRANCH   1  15
TORSDOF 5
ENDMDL
MODEL 4
REMARK VINA RESULT:      -8.3      0.983      1.061
REMARK  Name = 
REMARK  8 active torsions:
REMARK  status: ('A' for Active; 'I' for Inactive)
REMARK    1  A    between atoms: C_1  and  C_2
REMARK    2  A    between atoms: C_9  and  O_10
REMARK    3  A    between atoms: O_10  and  C_11
REMARK    4  A    between atoms: C_11  and  C_12
REMARK    5  A    between atoms: C_18  and  C_19
REMARK    6  A    between atoms: C_19  and  C_20
REMARK    7  A    between atoms: C_20  and  C_21
REMARK    8  A    between atoms: C_20  and  C_22
REMARK                            x       y       z     vdW  Elec       q    Type
REMARK                         _______ _______ _______ _____ _____    ______ ____
ROOT
ATOM      1  C   UNL     1       2.967   5.613  18.454  0.00  0.00    +0.000 C 
ENDROOT
BRANCH   1   2
ATOM      2  C   UNL     1       3.708   4.868  17.342  0.00  0.00    +0.000 C 
ATOM      3  O   UNL     1       3.429   3.699  17.092  0.00  0.00    +0.000 OA
ATOM      4  N   UNL     1       4.686   5.624  16.724  0.00  0.00    +0.000 N 
ATOM      5  C   UNL     1       5.465   5.206  15.670  0.00  0.00    +0.000 A 
ATOM      6  N   UNL     1       6.574   5.817  15.315  0.00  0.00    +0.000 NA
ATOM      7  N   UNL     1       7.144   5.252  14.187  0.00  0.00    +0.000 NA
ATOM      8  C   UNL     1       6.396   4.290  13.684  0.00  0.00    +0.000 A 
ATOM      9  S   UNL     1       5.012   3.928  14.632  0.00  0.00    +0.000 S 
ATOM     10  H   UNL     1       4.962   6.516  17.111  0.00  0.00    +0.000 HD
BRANCH   8  11
ATOM     11  C   UNL     1       6.694   3.540  12.419  0.00  0.00    +0.000 C 
BRANCH  11  12
ATOM     12  C   UNL     1       5.569   2.575  11.986  0.00  0.00    +0.000 C 
ATOM     13  C   UNL     1       4.476   3.261  11.158  0.00  0.00    +0.000 C 
ATOM     14  C   UNL     1       6.153   1.420  11.163  0.00  0.00    +0.000 C 
ENDBRANCH  11  12
ENDBRANCH   8  11
ENDBRANCH   1   2
BRANCH   1  15
ATOM     15  O   UNL     1       3.206   7.003  18.262  0.00  0.00    +0.000 OA
BRANCH  15  24
ATOM     16  C   UNL     1      -1.141  11.822  19.316  0.00  0.00    +0.000 C 
ATOM     17  C   UNL     1      -0.484  10.826  20.230  0.00  0.00    +0.000 A 
ATOM     18  C   UNL     1      -0.738  10.820  21.547  0.00  0.00    +0.000 A 
ATOM     19  C   UNL     1      -0.121   9.875  22.488  0.00  0.00    +0.000 A 
ATOM     20  O   UNL     1      -0.395   9.918  23.684  0.00  0.00    +0.000 OA
ATOM     21  O   UNL     1       0.772   8.962  21.961  0.00  0.00    +0.000 OA
ATOM     22  C   UNL     1       1.060   8.934  20.581  0.00  0.00    +0.000 A 
ATOM     23  C   UNL     1       1.979   7.963  20.165  0.00  0.00    +0.000 A 
ATOM     24  C   UNL     1       2.315   7.877  18.819  0.00  0.00    +0.000 A 
ATOM     25  C   UNL     1       1.716   8.759  17.915  0.00  0.00    +0.000 A 
ATOM     26  C   UNL     1       0.799   9.728  18.344  0.00  0.00    +0.000 A 
ATOM     27  C   UNL     1       0.458   9.834  19.699  0.00  0.00    +0.000 A 
ENDBRANCH  15  24
ENDBRANCH   1  15
TORSDOF 5
ENDMDL
MODEL 5
REMARK VINA RESULT:      -8.2      7.097      8.296
REMARK  Name = 
REMARK  8 active torsions:
REMARK  status: ('A' for Active; 'I' for Inactive)
REMARK    1  A    between atoms: C_1  and  C_2
REMARK    2  A    between atoms: C_9  and  O_10
REMARK    3  A    between atoms: O_10  and  C_11
REMARK    4  A    between atoms: C_11  and  C_12
REMARK    5  A    between atoms: C_18  and  C_19
REMARK    6  A    between atoms: C_19  and  C_20
REMARK    7  A    between atoms: C_20  and  C_21
REMARK    8  A    between atoms: C_20  and  C_22
REMARK                            x       y       z     vdW  Elec       q    Type
REMARK                         _______ _______ _______ _____ _____    ______ ____
ROOT
ATOM      1  C   UNL     1       8.145   8.787  17.820  0.00  0.00    +0.000 C 
ENDROOT
BRANCH   1   2
ATOM      2  C   UNL     1       7.550   7.402  18.080  0.00  0.00    +0.000 C 
ATOM      3  O   UNL     1       8.094   6.638  18.873  0.00  0.00    +0.000 OA
ATOM      4  N   UNL     1       6.419   7.135  17.333  0.00  0.00    +0.000 N 
ATOM      5  C   UNL     1       5.671   5.983  17.409  0.00  0.00    +0.000 A 
ATOM      6  N   UNL     1       4.803   5.632  16.485  0.00  0.00    +0.000 NA
ATOM      7  N   UNL     1       4.127   4.471  16.818  0.00  0.00    +0.000 NA
ATOM      8  C   UNL     1       4.450   4.037  18.020  0.00  0.00    +0.000 A 
ATOM      9  S   UNL     1       5.695   4.950  18.769  0.00  0.00    +0.000 S 
ATOM     10  H   UNL     1       6.145   7.754  16.583  0.00  0.00    +0.000 HD
BRANCH   8  11
ATOM     11  C   UNL     1       3.830   2.854  18.703  0.00  0.00    +0.000 C 
BRANCH  11  12
ATOM     12  C   UNL     1       2.516   3.180  19.447  0.00  0.00    +0.000 C 
ATOM     13  C   UNL     1       1.283   2.554  18.789  0.00  0.00    +0.000 C 
ATOM     14  C   UNL     1       2.598   2.690  20.899  0.00  0.00    +0.000 C 
ENDBRANCH  11  12
ENDBRANCH   8  11
ENDBRANCH   1   2
BRANCH   1  15
ATOM     15  O   UNL     1       9.033   9.074  18.896  0.00  0.00    +0.000 OA
BRANCH  15  24
ATOM     16  C   UNL     1      10.427  14.985  21.415  0.00  0.00    +0.000 C 
ATOM     17  C   UNL     1      10.438  14.449  20.011  0.00  0.00    +0.000 A 
ATOM     18  C   UNL     1      10.765  15.231  18.972  0.00  0.00    +0.000 A 
ATOM     19  C   UNL     1      10.785  14.763  17.579  0.00  0.00    +0.000 A 
ATOM     20  O   UNL     1      11.096  15.527  16.669  0.00  0.00    +0.000 OA
ATOM     21  O   UNL     1      10.436  13.445  17.357  0.00  0.00    +0.000 OA
ATOM     22  C   UNL     1      10.091  12.591  18.424  0.00  0.00    +0.000 A 
ATOM     23  C   UNL     1       9.757  11.277  18.076  0.00  0.00    +0.000 A 
ATOM     24  C   UNL     1       9.404  10.377  19.074  0.00  0.00    +0.000 A 
ATOM     25  C   UNL     1       9.402  10.810  20.404  0.00  0.00    +0.000 A 
ATOM     26  C   UNL     1       9.736  12.128  20.740  0.00  0.00    +0.000 A 
ATOM     27  C   UNL     1      10.085  13.049  19.743  0.00  0.00    +0.000 A 
ENDBRANCH  15  24
ENDBRANCH   1  15
TORSDOF 5
ENDMDL
MODEL 6
REMARK VINA RESULT:      -7.9      6.994      7.823
REMARK  Name = 
REMARK  8 active torsions:
REMARK  status: ('A' for Active; 'I' for Inactive)
REMARK    1  A    between atoms: C_1  and  C_2
REMARK    2  A    between atoms: C_9  and  O_10
REMARK    3  A    between atoms: O_10  and  C_11
REMARK    4  A    between atoms: C_11  and  C_12
REMARK    5  A    between atoms: C_18  and  C_19
REMARK    6  A    between atoms: C_19  and  C_20
REMARK    7  A    between atoms: C_20  and  C_21
REMARK    8  A    between atoms: C_20  and  C_22
REMARK                            x       y       z     vdW  Elec       q    Type
REMARK                         _______ _______ _______ _____ _____    ______ ____
ROOT
ATOM      1  C   UNL     1       8.383   8.897  17.719  0.00  0.00    +0.000 C 
ENDROOT
BRANCH   1   2
ATOM      2  C   UNL     1       7.727   7.522  17.861  0.00  0.00    +0.000 C 
ATOM      3  O   UNL     1       8.037   6.786  18.794  0.00  0.00    +0.000 OA
ATOM      4  N   UNL     1       6.828   7.230  16.853  0.00  0.00    +0.000 N 
ATOM      5  C   UNL     1       6.075   6.080  16.770  0.00  0.00    +0.000 A 
ATOM      6  N   UNL     1       5.476   5.698  15.664  0.00  0.00    +0.000 NA
ATOM      7  N   UNL     1       4.725   4.549  15.847  0.00  0.00    +0.000 NA
ATOM      8  C   UNL     1       4.718   4.159  17.106  0.00  0.00    +0.000 A 
ATOM      9  S   UNL     1       5.733   5.097  18.123  0.00  0.00    +0.000 S 
ATOM     10  H   UNL     1       6.766   7.821  16.037  0.00  0.00    +0.000 HD
BRANCH   8  11
ATOM     11  C   UNL     1       3.929   3.000  17.643  0.00  0.00    +0.000 C 
BRANCH  11  12
ATOM     12  C   UNL     1       2.709   3.417  18.493  0.00  0.00    +0.000 C 
ATOM     13  C   UNL     1       1.740   4.335  17.740  0.00  0.00    +0.000 C 
ATOM     14  C   UNL     1       1.942   2.173  18.958  0.00  0.00    +0.000 C 
ENDBRANCH  11  12
ENDBRANCH   8  11
ENDBRANCH   1   2
BRANCH   1  15
ATOM     15  O   UNL     1       8.824   9.290  19.014  0.00  0.00    +0.000 OA
BRANCH  15  24
ATOM     16  C   UNL     1      11.646  15.151  18.057  0.00  0.00    +0.000 C 
ATOM     17  C   UNL     1      10.985  14.523  19.251  0.00  0.00    +0.000 A 
ATOM     18  C   UNL     1      10.899  15.175  20.420  0.00  0.00    +0.000 A 
ATOM     19  C   UNL     1      10.270  14.609  21.621  0.00  0.00    +0.000 A 
ATOM     20  O   UNL     1      10.219  15.257  22.663  0.00  0.00    +0.000 OA
ATOM     21  O   UNL     1       9.757  13.330  21.515  0.00  0.00    +0.000 OA
ATOM     22  C   UNL     1       9.824  12.616  20.301  0.00  0.00    +0.000 A 
ATOM     23  C   UNL     1       9.269  11.330  20.315  0.00  0.00    +0.000 A 
ATOM     24  C   UNL     1       9.301  10.563  19.156  0.00  0.00    +0.000 A 
ATOM     25  C   UNL     1       9.879  11.104  18.003  0.00  0.00    +0.000 A 
ATOM     26  C   UNL     1      10.433  12.391  18.003  0.00  0.00    +0.000 A 
ATOM     27  C   UNL     1      10.418  13.172  19.166  0.00  0.00    +0.000 A 
ENDBRANCH  15  24
ENDBRANCH   1  15
TORSDOF 5
ENDMDL
MODEL 7
REMARK VINA RESULT:      -7.9      5.333     10.119
REMARK  Name = 
REMARK  8 active torsions:
REMARK  status: ('A' for Active; 'I' for Inactive)
REMARK    1  A    between atoms: C_1  and  C_2
REMARK    2  A    between atoms: C_9  and  O_10
REMARK    3  A    between atoms: O_10  and  C_11
REMARK    4  A    between atoms: C_11  and  C_12
REMARK    5  A    between atoms: C_18  and  C_19
REMARK    6  A    between atoms: C_19  and  C_20
REMARK    7  A    between atoms: C_20  and  C_21
REMARK    8  A    between atoms: C_20  and  C_22
REMARK                            x       y       z     vdW  Elec       q    Type
REMARK                         _______ _______ _______ _____ _____    ______ ____
ROOT
ATOM      1  C   UNL     1       1.702   9.613  18.143  0.00  0.00    +0.000 C 
ENDROOT
BRANCH   1   2
ATOM      2  C   UNL     1       0.294  10.087  18.505  0.00  0.00    +0.000 C 
ATOM      3  O   UNL     1       0.044  10.455  19.649  0.00  0.00    +0.000 OA
ATOM      4  N   UNL     1      -0.602  10.019  17.454  0.00  0.00    +0.000 N 
ATOM      5  C   UNL     1      -1.916  10.424  17.504  0.00  0.00    +0.000 A 
ATOM      6  N   UNL     1      -2.808  10.066  16.607  0.00  0.00    +0.000 NA
ATOM      7  N   UNL     1      -4.041  10.654  16.834  0.00  0.00    +0.000 NA
ATOM      8  C   UNL     1      -4.009  11.499  17.844  0.00  0.00    +0.000 A 
ATOM      9  S   UNL     1      -2.500  11.535  18.662  0.00  0.00    +0.000 S 
ATOM     10  H   UNL     1      -0.351   9.543  16.600  0.00  0.00    +0.000 HD
BRANCH   8  11
ATOM     11  C   UNL     1      -5.158  12.357  18.286  0.00  0.00    +0.000 C 
BRANCH  11  12
ATOM     12  C   UNL     1      -6.544  11.756  17.966  0.00  0.00    +0.000 C 
ATOM     13  C   UNL     1      -6.902  10.565  18.859  0.00  0.00    +0.000 C 
ATOM     14  C   UNL     1      -7.630  12.828  18.121  0.00  0.00    +0.000 C 
ENDBRANCH  11  12
ENDBRANCH   8  11
ENDBRANCH   1   2
BRANCH   1  15
ATOM     15  O   UNL     1       2.018   8.528  19.009  0.00  0.00    +0.000 OA
BRANCH  15  24
ATOM     16  C   UNL     1       3.970   2.446  17.451  0.00  0.00    +0.000 C 
ATOM     17  C   UNL     1       4.417   3.806  16.995  0.00  0.00    +0.000 A 
ATOM     18  C   UNL     1       5.412   3.948  16.108  0.00  0.00    +0.000 A 
ATOM     19  C   UNL     1       5.895   5.252  15.631  0.00  0.00    +0.000 A 
ATOM     20  O   UNL     1       6.809   5.317  14.814  0.00  0.00    +0.000 OA
ATOM     21  O   UNL     1       5.279   6.374  16.151  0.00  0.00    +0.000 OA
ATOM     22  C   UNL     1       4.226   6.265  17.082  0.00  0.00    +0.000 A 
ATOM     23  C   UNL     1       3.679   7.471  17.535  0.00  0.00    +0.000 A 
ATOM     24  C   UNL     1       2.640   7.443  18.457  0.00  0.00    +0.000 A 
ATOM     25  C   UNL     1       2.161   6.206  18.899  0.00  0.00    +0.000 A 
ATOM     26  C   UNL     1       2.718   5.005  18.439  0.00  0.00    +0.000 A 
ATOM     27  C   UNL     1       3.773   5.018  17.517  0.00  0.00    +0.000 A 
ENDBRANCH  15  24
ENDBRANCH   1  15
TORSDOF 5
ENDMDL
MODEL 8
REMARK VINA RESULT:      -7.9      5.341      9.937
REMARK  Name = 
REMARK  8 active torsions:
REMARK  status: ('A' for Active; 'I' for Inactive)
REMARK    1  A    between atoms: C_1  and  C_2
REMARK    2  A    between atoms: C_9  and  O_10
REMARK    3  A    between atoms: O_10  and  C_11
REMARK    4  A    between atoms: C_11  and  C_12
REMARK    5  A    between atoms: C_18  and  C_19
REMARK    6  A    between atoms: C_19  and  C_20
REMARK    7  A    between atoms: C_20  and  C_21
REMARK    8  A    between atoms: C_20  and  C_22
REMARK                            x       y       z     vdW  Elec       q    Type
REMARK                         _______ _______ _______ _____ _____    ______ ____
ROOT
ATOM      1  C   UNL     1       1.274   9.744  19.102  0.00  0.00    +0.000 C 
ENDROOT
BRANCH   1   2
ATOM      2  C   UNL     1      -0.201  10.133  18.989  0.00  0.00    +0.000 C 
ATOM      3  O   UNL     1      -0.839  10.430  19.995  0.00  0.00    +0.000 OA
ATOM      4  N   UNL     1      -0.692  10.077  17.698  0.00  0.00    +0.000 N 
ATOM      5  C   UNL     1      -1.971  10.416  17.319  0.00  0.00    +0.000 A 
ATOM      6  N   UNL     1      -2.491  10.063  16.164  0.00  0.00    +0.000 NA
ATOM      7  N   UNL     1      -3.763  10.580  15.985  0.00  0.00    +0.000 NA
ATOM      8  C   UNL     1      -4.119  11.373  16.975  0.00  0.00    +0.000 A 
ATOM      9  S   UNL     1      -2.972  11.437  18.251  0.00  0.00    +0.000 S 
ATOM     10  H   UNL     1      -0.143   9.657  16.961  0.00  0.00    +0.000 HD
BRANCH   8  11
ATOM     11  C   UNL     1      -5.400  12.152  17.036  0.00  0.00    +0.000 C 
BRANCH  11  12
ATOM     12  C   UNL     1      -6.175  11.976  18.361  0.00  0.00    +0.000 C 
ATOM     13  C   UNL     1      -7.436  12.843  18.438  0.00  0.00    +0.000 C 
ATOM     14  C   UNL     1      -6.579  10.507  18.542  0.00  0.00    +0.000 C 
ENDBRANCH  11  12
ENDBRANCH   8  11
ENDBRANCH   1   2
BRANCH   1  15
ATOM     15  O   UNL     1       1.662   9.193  17.848  0.00  0.00    +0.000 OA
BRANCH  15  24
ATOM     16  C   UNL     1       4.859   3.622  19.255  0.00  0.00    +0.000 C 
ATOM     17  C   UNL     1       5.119   4.722  18.265  0.00  0.00    +0.000 A 
ATOM     18  C   UNL     1       6.189   4.691  17.457  0.00  0.00    +0.000 A 
ATOM     19  C   UNL     1       6.497   5.740  16.475  0.00  0.00    +0.000 A 
ATOM     20  O   UNL     1       7.491   5.653  15.761  0.00  0.00    +0.000 OA
ATOM     21  O   UNL     1       5.624   6.810  16.410  0.00  0.00    +0.000 OA
ATOM     22  C   UNL     1       4.487   6.876  17.240  0.00  0.00    +0.000 A 
ATOM     23  C   UNL     1       3.676   8.007  17.082  0.00  0.00    +0.000 A 
ATOM     24  C   UNL     1       2.538   8.144  17.867  0.00  0.00    +0.000 A 
ATOM     25  C   UNL     1       2.228   7.139  18.789  0.00  0.00    +0.000 A 
ATOM     26  C   UNL     1       3.047   6.012  18.939  0.00  0.00    +0.000 A 
ATOM     27  C   UNL     1       4.204   5.865  18.161  0.00  0.00    +0.000 A 
ENDBRANCH  15  24
ENDBRANCH   1  15
TORSDOF 5
ENDMDL
MODEL 9
REMARK VINA RESULT:      -7.8      7.450      8.350
REMARK  Name = 
REMARK  8 active torsions:
REMARK  status: ('A' for Active; 'I' for Inactive)
REMARK    1  A    between atoms: C_1  and  C_2
REMARK    2  A    between atoms: C_9  and  O_10
REMARK    3  A    between atoms: O_10  and  C_11
REMARK    4  A    between atoms: C_11  and  C_12
REMARK    5  A    between atoms: C_18  and  C_19
REMARK    6  A    between atoms: C_19  and  C_20
REMARK    7  A    between atoms: C_20  and  C_21
REMARK    8  A    between atoms: C_20  and  C_22
REMARK                            x       y       z     vdW  Elec       q    Type
REMARK                         _______ _______ _______ _____ _____    ______ ____
ROOT
ATOM      1  C   UNL     1       8.551   9.369  18.038  0.00  0.00    +0.000 C 
ENDROOT
BRANCH   1   2
ATOM      2  C   UNL     1       7.936   7.969  18.030  0.00  0.00    +0.000 C 
ATOM      3  O   UNL     1       8.273   7.144  18.874  0.00  0.00    +0.000 OA
ATOM      4  N   UNL     1       7.037   7.765  16.999  0.00  0.00    +0.000 N 
ATOM      5  C   UNL     1       6.316   6.611  16.792  0.00  0.00    +0.000 A 
ATOM      6  N   UNL     1       5.720   6.336  15.653  0.00  0.00    +0.000 NA
ATOM      7  N   UNL     1       5.002   5.153  15.712  0.00  0.00    +0.000 NA
ATOM      8  C   UNL     1       5.016   4.625  16.919  0.00  0.00    +0.000 A 
ATOM      9  S   UNL     1       6.012   5.474  18.030  0.00  0.00    +0.000 S 
ATOM     10  H   UNL     1       6.953   8.441  16.254  0.00  0.00    +0.000 HD
BRANCH   8  11
ATOM     11  C   UNL     1       4.264   3.392  17.328  0.00  0.00    +0.000 C 
BRANCH  11  12
ATOM     12  C   UNL     1       3.823   3.394  18.808  0.00  0.00    +0.000 C 
ATOM     13  C   UNL     1       2.404   3.935  19.010  0.00  0.00    +0.000 C 
ATOM     14  C   UNL     1       3.889   1.971  19.378  0.00  0.00    +0.000 C 
ENDBRANCH  11  12
ENDBRANCH   8  11
ENDBRANCH   1   2
BRANCH   1  15
ATOM     15  O   UNL     1       9.076   9.592  19.343  0.00  0.00    +0.000 OA
BRANCH  15  24
ATOM     16  C   UNL     1      10.324  15.336  22.289  0.00  0.00    +0.000 C 
ATOM     17  C   UNL     1      10.626  14.811  20.913  0.00  0.00    +0.000 A 
ATOM     18  C   UNL     1      11.257  15.568  20.004  0.00  0.00    +0.000 A 
ATOM     19  C   UNL     1      11.572  15.111  18.644  0.00  0.00    +0.000 A 
ATOM     20  O   UNL     1      12.155  15.851  17.857  0.00  0.00    +0.000 OA
ATOM     21  O   UNL     1      11.175  13.831  18.307  0.00  0.00    +0.000 OA
ATOM     22  C   UNL     1      10.513  13.004  19.237  0.00  0.00    +0.000 A 
ATOM     23  C   UNL     1      10.161  11.727  18.782  0.00  0.00    +0.000 A 
ATOM     24  C   UNL     1       9.503  10.856  19.641  0.00  0.00    +0.000 A 
ATOM     25  C   UNL     1       9.219  11.277  20.944  0.00  0.00    +0.000 A 
ATOM     26  C   UNL     1       9.574  12.557  21.388  0.00  0.00    +0.000 A 
ATOM     27  C   UNL     1      10.229  13.451  20.529  0.00  0.00    +0.000 A 
ENDBRANCH  15  24
ENDBRANCH   1  15
TORSDOF 5
ENDMDL
