MODEL 1
REMARK VINA RESULT:      -9.1      0.000      0.000
REMARK  Name = 
REMARK  9 active torsions:
REMARK  status: ('A' for Active; 'I' for Inactive)
REMARK    1  A    between atoms: C_1  and  C_2
REMARK    2  A    between atoms: C_2  and  O_3
REMARK    3  A    between atoms: C_4  and  O_5
REMARK    4  A    between atoms: C_6  and  C_7
REMARK    5  A    between atoms: C_7  and  O_8
REMARK    6  A    between atoms: O_8  and  C_9
REMARK    7  A    between atoms: N_11  and  C_12
REMARK    8  A    between atoms: C_18  and  N_19
REMARK    9  A    between atoms: N_24  and  C_25
REMARK                            x       y       z     vdW  Elec       q    Type
REMARK                         _______ _______ _______ _____ _____    ______ ____
ROOT
ATOM      1  C   UNL     1       1.591   4.728  17.656  0.00  0.00    +0.000 C 
ATOM      2  C   UNL     1       2.674   4.526  18.712  0.00  0.00    +0.000 C 
ATOM      3  C   UNL     1       4.063   4.297  18.114  0.00  0.00    +0.000 C 
ATOM      4  C   UNL     1       4.969   4.620  19.302  0.00  0.00    +0.000 C 
ATOM      5  O   UNL     1       4.357   5.751  19.950  0.00  0.00    +0.000 OA
ATOM      6  C   UNL     1       2.927   5.708  19.687  0.00  0.00    +0.000 C 
ENDROOT
BRANCH   6   7
ATOM      7  N   UNL     1       2.516   7.017  19.217  0.00  0.00    +0.000 N 
ATOM      8  C   UNL     1       2.767   7.567  17.987  0.00  0.00    +0.000 A 
ATOM      9  N   UNL     1       2.155   8.723  17.829  0.00  0.00    +0.000 NA
ATOM     10  C   UNL     1       1.525   8.960  19.035  0.00  0.00    +0.000 A 
ATOM     11  C   UNL     1       0.715  10.024  19.483  0.00  0.00    +0.000 A 
ATOM     12  N   UNL     1       0.376  11.070  18.629  0.00  0.00    +0.000 N 
ATOM     13  N   UNL     1       0.263   9.980  20.760  0.00  0.00    +0.000 NA
ATOM     14  C   UNL     1       0.584   8.905  21.508  0.00  0.00    +0.000 A 
ATOM     15 CL   UNL     1      -0.031   8.911  23.107  0.00  0.00    +0.000 Cl
ATOM     16  N   UNL     1       1.314   7.818  21.181  0.00  0.00    +0.000 NA
ATOM     17  C   UNL     1       1.763   7.920  19.920  0.00  0.00    +0.000 A 
ATOM     18  H   UNL     1       0.944  11.049  17.784  0.00  0.00    +0.000 HD
BRANCH  12  19
ATOM     19  C   UNL     1       0.098  12.384  19.187  0.00  0.00    +0.000 C 
ATOM     20  C   UNL     1       1.372  13.161  19.528  0.00  0.00    +0.000 C 
ATOM     21  C   UNL     1       0.947  14.616  19.423  0.00  0.00    +0.000 C 
ATOM     22  C   UNL     1       0.024  14.644  18.217  0.00  0.00    +0.000 C 
ATOM     23  C   UNL     1      -0.614  13.257  18.146  0.00  0.00    +0.000 C 
ENDBRANCH  12  19
ENDBRANCH   6   7
BRANCH   2  24
ATOM     24  O   UNL     1       2.321   3.348  19.474  0.00  0.00    +0.000 OA
ATOM     25  H   UNL     1       1.617   3.605  20.101  0.00  0.00    +0.000 HD
ENDBRANCH   2  24
BRANCH   3  26
ATOM     26  O   UNL     1       4.211   2.971  17.619  0.00  0.00    +0.000 OA
ATOM     27  H   UNL     1       3.939   2.981  16.681  0.00  0.00    +0.000 HD
ENDBRANCH   3  26
BRANCH   4  28
ATOM     28  C   UNL     1       6.412   4.954  18.907  0.00  0.00    +0.000 C 
BRANCH  28  29
ATOM     29  O   UNL     1       6.522   5.619  17.640  0.00  0.00    +0.000 OA
BRANCH  29  30
ATOM     30  C   UNL     1       7.142   4.908  16.667  0.00  0.00    +0.000 C 
ATOM     31  O   UNL     1       8.110   4.184  16.839  0.00  0.00    +0.000 OA
ATOM     32  N   UNL     1       6.492   5.090  15.484  0.00  0.00    +0.000 N 
ATOM     33  H   UNL     1       5.632   5.619  15.545  0.00  0.00    +0.000 HD
BRANCH  32  34
ATOM     34  C   UNL     1       6.736   4.237  14.344  0.00  0.00    +0.000 C 
ATOM     35  C   UNL     1       5.443   3.844  13.635  0.00  0.00    +0.000 C 
ATOM     36  C   UNL     1       5.934   3.366  12.280  0.00  0.00    +0.000 C 
ATOM     37  C   UNL     1       7.071   4.321  11.928  0.00  0.00    +0.000 C 
ATOM     38  C   UNL     1       7.563   4.912  13.250  0.00  0.00    +0.000 C 
ENDBRANCH  32  34
ENDBRANCH  29  30
ENDBRANCH  28  29
ENDBRANCH   4  28
TORSDOF 8
ENDMDL
MODEL 2
REMARK VINA RESULT:      -8.7      0.628      1.072
REMARK  Name = 
REMARK  9 active torsions:
REMARK  status: ('A' for Active; 'I' for Inactive)
REMARK    1  A    between atoms: C_1  and  C_2
REMARK    2  A    between atoms: C_2  and  O_3
REMARK    3  A    between atoms: C_4  and  O_5
REMARK    4  A    between atoms: C_6  and  C_7
REMARK    5  A    between atoms: C_7  and  O_8
REMARK    6  A    between atoms: O_8  and  C_9
REMARK    7  A    between atoms: N_11  and  C_12
REMARK    8  A    between atoms: C_18  and  N_19
REMARK    9  A    between atoms: N_24  and  C_25
REMARK                            x       y       z     vdW  Elec       q    Type
REMARK                         _______ _______ _______ _____ _____    ______ ____
ROOT
ATOM      1  C   UNL     1       1.388   4.593  17.974  0.00  0.00    +0.000 C 
ATOM      2  C   UNL     1       2.664   4.381  18.783  0.00  0.00    +0.000 C 
ATOM      3  C   UNL     1       3.873   4.024  17.917  0.00  0.00    +0.000 C 
ATOM      4  C   UNL     1       5.034   4.352  18.855  0.00  0.00    +0.000 C 
ATOM      5  O   UNL     1       4.641   5.558  19.537  0.00  0.00    +0.000 OA
ATOM      6  C   UNL     1       3.188   5.597  19.593  0.00  0.00    +0.000 C 
ENDROOT
BRANCH   6   7
ATOM      7  N   UNL     1       2.754   6.902  19.130  0.00  0.00    +0.000 N 
ATOM      8  C   UNL     1       3.071   7.501  17.939  0.00  0.00    +0.000 A 
ATOM      9  N   UNL     1       2.420   8.633  17.768  0.00  0.00    +0.000 NA
ATOM     10  C   UNL     1       1.693   8.804  18.929  0.00  0.00    +0.000 A 
ATOM     11  C   UNL     1       0.804   9.819  19.344  0.00  0.00    +0.000 A 
ATOM     12  N   UNL     1       0.482  10.875  18.496  0.00  0.00    +0.000 N 
ATOM     13  N   UNL     1       0.260   9.714  20.582  0.00  0.00    +0.000 NA
ATOM     14  C   UNL     1       0.574   8.631  21.321  0.00  0.00    +0.000 A 
ATOM     15 CL   UNL     1      -0.158   8.560  22.868  0.00  0.00    +0.000 Cl
ATOM     16  N   UNL     1       1.374   7.587  21.019  0.00  0.00    +0.000 NA
ATOM     17  C   UNL     1       1.911   7.749  19.800  0.00  0.00    +0.000 A 
ATOM     18  H   UNL     1       1.112  10.905  17.697  0.00  0.00    +0.000 HD
BRANCH  12  19
ATOM     19  C   UNL     1       0.105  12.157  19.069  0.00  0.00    +0.000 C 
ATOM     20  C   UNL     1       1.313  12.978  19.525  0.00  0.00    +0.000 C 
ATOM     21  C   UNL     1       0.831  14.416  19.429  0.00  0.00    +0.000 C 
ATOM     22  C   UNL     1      -0.002  14.442  18.159  0.00  0.00    +0.000 C 
ATOM     23  C   UNL     1      -0.569  13.031  18.002  0.00  0.00    +0.000 C 
ENDBRANCH  12  19
ENDBRANCH   6   7
BRANCH   2  24
ATOM     24  O   UNL     1       2.425   3.276  19.686  0.00  0.00    +0.000 OA
ATOM     25  H   UNL     1       3.156   3.263  20.333  0.00  0.00    +0.000 HD
ENDBRANCH   2  24
BRANCH   3  26
ATOM     26  O   UNL     1       3.838   2.663  17.498  0.00  0.00    +0.000 OA
ATOM     27  H   UNL     1       2.902   2.385  17.500  0.00  0.00    +0.000 HD
ENDBRANCH   3  26
BRANCH   4  28
ATOM     28  C   UNL     1       6.371   4.565  18.135  0.00  0.00    +0.000 C 
BRANCH  28  29
ATOM     29  O   UNL     1       6.521   5.879  17.578  0.00  0.00    +0.000 OA
BRANCH  29  30
ATOM     30  C   UNL     1       6.057   6.026  16.313  0.00  0.00    +0.000 C 
ATOM     31  O   UNL     1       5.473   7.013  15.892  0.00  0.00    +0.000 OA
ATOM     32  N   UNL     1       6.382   4.927  15.578  0.00  0.00    +0.000 N 
ATOM     33  H   UNL     1       6.979   4.259  16.046  0.00  0.00    +0.000 HD
BRANCH  32  34
ATOM     34  C   UNL     1       6.285   4.923  14.136  0.00  0.00    +0.000 C 
ATOM     35  C   UNL     1       7.653   5.039  13.470  0.00  0.00    +0.000 C 
ATOM     36  C   UNL     1       7.378   4.570  12.052  0.00  0.00    +0.000 C 
ATOM     37  C   UNL     1       6.391   3.419  12.216  0.00  0.00    +0.000 C 
ATOM     38  C   UNL     1       5.714   3.621  13.573  0.00  0.00    +0.000 C 
ENDBRANCH  32  34
ENDBRANCH  29  30
ENDBRANCH  28  29
ENDBRANCH   4  28
TORSDOF 8
ENDMDL
MODEL 3
REMARK VINA RESULT:      -8.4      0.850      1.026
REMARK  Name = 
REMARK  9 active torsions:
REMARK  status: ('A' for Active; 'I' for Inactive)
REMARK    1  A    between atoms: C_1  and  C_2
REMARK    2  A    between atoms: C_2  and  O_3
REMARK    3  A    between atoms: C_4  and  O_5
REMARK    4  A    between atoms: C_6  and  C_7
REMARK    5  A    between atoms: C_7  and  O_8
REMARK    6  A    between atoms: O_8  and  C_9
REMARK    7  A    between atoms: N_11  and  C_12
REMARK    8  A    between atoms: C_18  and  N_19
REMARK    9  A    between atoms: N_24  and  C_25
REMARK                            x       y       z     vdW  Elec       q    Type
REMARK                         _______ _______ _______ _____ _____    ______ ____
ROOT
ATOM      1  C   UNL     1       0.571   4.898  20.147  0.00  0.00    +0.000 C 
ATOM      2  C   UNL     1       2.069   4.643  20.281  0.00  0.00    +0.000 C 
ATOM      3  C   UNL     1       2.655   3.863  19.103  0.00  0.00    +0.000 C 
ATOM      4  C   UNL     1       4.145   4.176  19.234  0.00  0.00    +0.000 C 
ATOM      5  O   UNL     1       4.209   5.563  19.618  0.00  0.00    +0.000 OA
ATOM      6  C   UNL     1       2.988   5.893  20.336  0.00  0.00    +0.000 C 
ENDROOT
BRANCH   6   7
ATOM      7  N   UNL     1       2.441   7.108  19.761  0.00  0.00    +0.000 N 
ATOM      8  C   UNL     1       2.530   7.513  18.455  0.00  0.00    +0.000 A 
ATOM      9  N   UNL     1       1.826   8.603  18.228  0.00  0.00    +0.000 NA
ATOM     10  C   UNL     1       1.304   8.952  19.458  0.00  0.00    +0.000 A 
ATOM     11  C   UNL     1       0.470  10.016  19.860  0.00  0.00    +0.000 A 
ATOM     12  N   UNL     1      -0.025  10.926  18.929  0.00  0.00    +0.000 N 
ATOM     13  N   UNL     1       0.150  10.106  21.175  0.00  0.00    +0.000 NA
ATOM     14  C   UNL     1       0.619   9.153  22.005  0.00  0.00    +0.000 A 
ATOM     15 CL   UNL     1       0.166   9.324  23.649  0.00  0.00    +0.000 Cl
ATOM     16  N   UNL     1       1.387   8.077  21.733  0.00  0.00    +0.000 NA
ATOM     17  C   UNL     1       1.701   8.047  20.429  0.00  0.00    +0.000 A 
ATOM     18  H   UNL     1       0.458  10.832  18.037  0.00  0.00    +0.000 HD
BRANCH  12  19
ATOM     19  C   UNL     1      -0.337  12.280  19.354  0.00  0.00    +0.000 C 
ATOM     20  C   UNL     1       0.874  13.007  19.945  0.00  0.00    +0.000 C 
ATOM     21  C   UNL     1       0.577  14.475  19.685  0.00  0.00    +0.000 C 
ATOM     22  C   UNL     1      -0.046  14.485  18.300  0.00  0.00    +0.000 C 
ATOM     23  C   UNL     1      -0.739  13.132  18.142  0.00  0.00    +0.000 C 
ENDBRANCH  12  19
ENDBRANCH   6   7
BRANCH   2  24
ATOM     24  O   UNL     1       2.268   3.854  21.477  0.00  0.00    +0.000 OA
ATOM     25  H   UNL     1       1.506   4.017  22.066  0.00  0.00    +0.000 HD
ENDBRANCH   2  24
BRANCH   3  26
ATOM     26  O   UNL     1       2.348   2.475  19.185  0.00  0.00    +0.000 OA
ATOM     27  H   UNL     1       1.379   2.389  19.105  0.00  0.00    +0.000 HD
ENDBRANCH   3  26
BRANCH   4  28
ATOM     28  C   UNL     1       4.941   3.949  17.944  0.00  0.00    +0.000 C 
BRANCH  28  29
ATOM     29  O   UNL     1       6.018   4.879  17.761  0.00  0.00    +0.000 OA
BRANCH  29  30
ATOM     30  C   UNL     1       6.879   4.576  16.759  0.00  0.00    +0.000 C 
ATOM     31  O   UNL     1       8.039   4.227  16.914  0.00  0.00    +0.000 OA
ATOM     32  N   UNL     1       6.238   4.678  15.562  0.00  0.00    +0.000 N 
ATOM     33  H   UNL     1       5.244   4.854  15.621  0.00  0.00    +0.000 HD
BRANCH  32  34
ATOM     34  C   UNL     1       6.804   4.134  14.349  0.00  0.00    +0.000 C 
ATOM     35  C   UNL     1       5.729   3.616  13.397  0.00  0.00    +0.000 C 
ATOM     36  C   UNL     1       6.467   3.526  12.073  0.00  0.00    +0.000 C 
ATOM     37  C   UNL     1       7.373   4.753  12.057  0.00  0.00    +0.000 C 
ATOM     38  C   UNL     1       7.560   5.170  13.517  0.00  0.00    +0.000 C 
ENDBRANCH  32  34
ENDBRANCH  29  30
ENDBRANCH  28  29
ENDBRANCH   4  28
TORSDOF 8
ENDMDL
MODEL 4
REMARK VINA RESULT:      -8.3      0.800      1.317
REMARK  Name = 
REMARK  9 active torsions:
REMARK  status: ('A' for Active; 'I' for Inactive)
REMARK    1  A    between atoms: C_1  and  C_2
REMARK    2  A    between atoms: C_2  and  O_3
REMARK    3  A    between atoms: C_4  and  O_5
REMARK    4  A    between atoms: C_6  and  C_7
REMARK    5  A    between atoms: C_7  and  O_8
REMARK    6  A    between atoms: O_8  and  C_9
REMARK    7  A    between atoms: N_11  and  C_12
REMARK    8  A    between atoms: C_18  and  N_19
REMARK    9  A    between atoms: N_24  and  C_25
REMARK                            x       y       z     vdW  Elec       q    Type
REMARK                         _______ _______ _______ _____ _____    ______ ____
ROOT
ATOM      1  C   UNL     1       1.768   4.645  17.791  0.00  0.00    +0.000 C 
ATOM      2  C   UNL     1       2.941   4.571  18.763  0.00  0.00    +0.000 C 
ATOM      3  C   UNL     1       4.281   4.312  18.071  0.00  0.00    +0.000 C 
ATOM      4  C   UNL     1       5.274   4.768  19.139  0.00  0.00    +0.000 C 
ATOM      5  O   UNL     1       4.688   5.945  19.726  0.00  0.00    +0.000 OA
ATOM      6  C   UNL     1       3.243   5.848  19.594  0.00  0.00    +0.000 C 
ENDROOT
BRANCH   6   7
ATOM      7  N   UNL     1       2.756   7.096  19.037  0.00  0.00    +0.000 N 
ATOM      8  C   UNL     1       3.040   7.612  17.800  0.00  0.00    +0.000 A 
ATOM      9  N   UNL     1       2.346   8.703  17.549  0.00  0.00    +0.000 NA
ATOM     10  C   UNL     1       1.622   8.937  18.702  0.00  0.00    +0.000 A 
ATOM     11  C   UNL     1       0.699   9.947  19.047  0.00  0.00    +0.000 A 
ATOM     12  N   UNL     1       0.332  10.922  18.124  0.00  0.00    +0.000 N 
ATOM     13  N   UNL     1       0.170   9.918  20.295  0.00  0.00    +0.000 NA
ATOM     14  C   UNL     1       0.530   8.908  21.112  0.00  0.00    +0.000 A 
ATOM     15 CL   UNL     1      -0.186   8.930  22.667  0.00  0.00    +0.000 Cl
ATOM     16  N   UNL     1       1.367   7.874  20.883  0.00  0.00    +0.000 NA
ATOM     17  C   UNL     1       1.887   7.961  19.648  0.00  0.00    +0.000 A 
ATOM     18  H   UNL     1       0.954  10.914  17.318  0.00  0.00    +0.000 HD
BRANCH  12  19
ATOM     19  C   UNL     1      -0.089  12.230  18.600  0.00  0.00    +0.000 C 
ATOM     20  C   UNL     1      -1.398  12.175  19.394  0.00  0.00    +0.000 C 
ATOM     21  C   UNL     1      -1.306  13.373  20.326  0.00  0.00    +0.000 C 
ATOM     22  C   UNL     1       0.151  13.394  20.755  0.00  0.00    +0.000 C 
ATOM     23  C   UNL     1       0.939  12.782  19.597  0.00  0.00    +0.000 C 
ENDBRANCH  12  19
ENDBRANCH   6   7
BRANCH   2  24
ATOM     24  O   UNL     1       2.688   3.467  19.664  0.00  0.00    +0.000 OA
ATOM     25  H   UNL     1       1.825   3.630  20.090  0.00  0.00    +0.000 HD
ENDBRANCH   2  24
BRANCH   3  26
ATOM     26  O   UNL     1       4.424   2.946  17.696  0.00  0.00    +0.000 OA
ATOM     27  H   UNL     1       3.747   2.440  18.184  0.00  0.00    +0.000 HD
ENDBRANCH   3  26
BRANCH   4  28
ATOM     28  C   UNL     1       6.669   5.091  18.590  0.00  0.00    +0.000 C 
BRANCH  28  29
ATOM     29  O   UNL     1       7.013   4.341  17.416  0.00  0.00    +0.000 OA
BRANCH  29  30
ATOM     30  C   UNL     1       6.755   4.961  16.239  0.00  0.00    +0.000 C 
ATOM     31  O   UNL     1       7.029   6.124  15.986  0.00  0.00    +0.000 OA
ATOM     32  N   UNL     1       6.187   4.077  15.373  0.00  0.00    +0.000 N 
ATOM     33  H   UNL     1       6.149   3.121  15.700  0.00  0.00    +0.000 HD
BRANCH  32  34
ATOM     34  C   UNL     1       6.076   4.362  13.961  0.00  0.00    +0.000 C 
ATOM     35  C   UNL     1       7.368   4.051  13.210  0.00  0.00    +0.000 C 
ATOM     36  C   UNL     1       6.909   3.982  11.764  0.00  0.00    +0.000 C 
ATOM     37  C   UNL     1       5.548   3.297  11.829  0.00  0.00    +0.000 C 
ATOM     38  C   UNL     1       5.027   3.506  13.252  0.00  0.00    +0.000 C 
ENDBRANCH  32  34
ENDBRANCH  29  30
ENDBRANCH  28  29
ENDBRANCH   4  28
TORSDOF 8
ENDMDL
MODEL 5
REMARK VINA RESULT:      -8.1      1.913      2.754
REMARK  Name = 
REMARK  9 active torsions:
REMARK  status: ('A' for Active; 'I' for Inactive)
REMARK    1  A    between atoms: C_1  and  C_2
REMARK    2  A    between atoms: C_2  and  O_3
REMARK    3  A    between atoms: C_4  and  O_5
REMARK    4  A    between atoms: C_6  and  C_7
REMARK    5  A    between atoms: C_7  and  O_8
REMARK    6  A    between atoms: O_8  and  C_9
REMARK    7  A    between atoms: N_11  and  C_12
REMARK    8  A    between atoms: C_18  and  N_19
REMARK    9  A    between atoms: N_24  and  C_25
REMARK                            x       y       z     vdW  Elec       q    Type
REMARK                         _______ _______ _______ _____ _____    ______ ____
ROOT
ATOM      1  C   UNL     1       0.325   4.638  20.152  0.00  0.00    +0.000 C 
ATOM      2  C   UNL     1       1.750   4.096  20.219  0.00  0.00    +0.000 C 
ATOM      3  C   UNL     1       2.102   3.182  19.044  0.00  0.00    +0.000 C 
ATOM      4  C   UNL     1       3.629   3.199  19.085  0.00  0.00    +0.000 C 
ATOM      5  O   UNL     1       3.986   4.556  19.411  0.00  0.00    +0.000 OA
ATOM      6  C   UNL     1       2.897   5.141  20.177  0.00  0.00    +0.000 C 
ENDROOT
BRANCH   6   7
ATOM      7  N   UNL     1       2.566   6.423  19.583  0.00  0.00    +0.000 N 
ATOM      8  C   UNL     1       2.739   6.794  18.275  0.00  0.00    +0.000 A 
ATOM      9  N   UNL     1       2.227   7.982  18.028  0.00  0.00    +0.000 NA
ATOM     10  C   UNL     1       1.752   8.426  19.246  0.00  0.00    +0.000 A 
ATOM     11  C   UNL     1       1.099   9.617  19.627  0.00  0.00    +0.000 A 
ATOM     12  N   UNL     1       0.774  10.585  18.680  0.00  0.00    +0.000 N 
ATOM     13  N   UNL     1       0.780   9.772  20.935  0.00  0.00    +0.000 NA
ATOM     14  C   UNL     1       1.073   8.764  21.781  0.00  0.00    +0.000 A 
ATOM     15 CL   UNL     1       0.631   9.025  23.416  0.00  0.00    +0.000 Cl
ATOM     16  N   UNL     1       1.657   7.574  21.530  0.00  0.00    +0.000 NA
ATOM     17  C   UNL     1       1.981   7.478  20.231  0.00  0.00    +0.000 A 
ATOM     18  H   UNL     1       1.247  10.404  17.797  0.00  0.00    +0.000 HD
BRANCH  12  19
ATOM     19  C   UNL     1       0.683  11.977  19.089  0.00  0.00    +0.000 C 
ATOM     20  C   UNL     1       1.833  12.829  18.543  0.00  0.00    +0.000 C 
ATOM     21  C   UNL     1       1.243  14.228  18.469  0.00  0.00    +0.000 C 
ATOM     22  C   UNL     1      -0.181  14.002  17.989  0.00  0.00    +0.000 C 
ATOM     23  C   UNL     1      -0.580  12.617  18.498  0.00  0.00    +0.000 C 
ENDBRANCH  12  19
ENDBRANCH   6   7
BRANCH   2  24
ATOM     24  O   UNL     1       1.860   3.318  21.433  0.00  0.00    +0.000 OA
ATOM     25  H   UNL     1       0.995   2.891  21.587  0.00  0.00    +0.000 HD
ENDBRANCH   2  24
BRANCH   3  26
ATOM     26  O   UNL     1       1.535   1.885  19.197  0.00  0.00    +0.000 OA
ATOM     27  H   UNL     1       2.091   1.401  19.836  0.00  0.00    +0.000 HD
ENDBRANCH   3  26
BRANCH   4  28
ATOM     28  C   UNL     1       4.290   2.781  17.766  0.00  0.00    +0.000 C 
BRANCH  28  29
ATOM     29  O   UNL     1       4.074   3.713  16.696  0.00  0.00    +0.000 OA
BRANCH  29  30
ATOM     30  C   UNL     1       5.175   4.394  16.294  0.00  0.00    +0.000 C 
ATOM     31  O   UNL     1       5.440   4.676  15.136  0.00  0.00    +0.000 OA
ATOM     32  N   UNL     1       5.911   4.753  17.383  0.00  0.00    +0.000 N 
ATOM     33  H   UNL     1       5.482   4.552  18.275  0.00  0.00    +0.000 HD
BRANCH  32  34
ATOM     34  C   UNL     1       6.968   5.733  17.294  0.00  0.00    +0.000 C 
ATOM     35  C   UNL     1       6.425   7.148  17.111  0.00  0.00    +0.000 C 
ATOM     36  C   UNL     1       7.611   8.016  17.491  0.00  0.00    +0.000 C 
ATOM     37  C   UNL     1       8.256   7.289  18.666  0.00  0.00    +0.000 C 
ATOM     38  C   UNL     1       7.812   5.828  18.565  0.00  0.00    +0.000 C 
ENDBRANCH  32  34
ENDBRANCH  29  30
ENDBRANCH  28  29
ENDBRANCH   4  28
TORSDOF 8
ENDMDL
MODEL 6
REMARK VINA RESULT:      -8.1      2.580      3.555
REMARK  Name = 
REMARK  9 active torsions:
REMARK  status: ('A' for Active; 'I' for Inactive)
REMARK    1  A    between atoms: C_1  and  C_2
REMARK    2  A    between atoms: C_2  and  O_3
REMARK    3  A    between atoms: C_4  and  O_5
REMARK    4  A    between atoms: C_6  and  C_7
REMARK    5  A    between atoms: C_7  and  O_8
REMARK    6  A    between atoms: O_8  and  C_9
REMARK    7  A    between atoms: N_11  and  C_12
REMARK    8  A    between atoms: C_18  and  N_19
REMARK    9  A    between atoms: N_24  and  C_25
REMARK                            x       y       z     vdW  Elec       q    Type
REMARK                         _______ _______ _______ _____ _____    ______ ____
ROOT
ATOM      1  C   UNL     1       1.719   4.709  17.623  0.00  0.00    +0.000 C 
ATOM      2  C   UNL     1       2.926   4.537  18.541  0.00  0.00    +0.000 C 
ATOM      3  C   UNL     1       4.233   4.310  17.780  0.00  0.00    +0.000 C 
ATOM      4  C   UNL     1       5.275   4.662  18.842  0.00  0.00    +0.000 C 
ATOM      5  O   UNL     1       4.734   5.800  19.541  0.00  0.00    +0.000 OA
ATOM      6  C   UNL     1       3.284   5.739  19.457  0.00  0.00    +0.000 C 
ENDROOT
BRANCH   6   7
ATOM      7  N   UNL     1       2.803   7.036  19.018  0.00  0.00    +0.000 N 
ATOM      8  C   UNL     1       3.072   7.654  17.825  0.00  0.00    +0.000 A 
ATOM      9  N   UNL     1       2.387   8.769  17.682  0.00  0.00    +0.000 NA
ATOM     10  C   UNL     1       1.686   8.911  18.863  0.00  0.00    +0.000 A 
ATOM     11  C   UNL     1       0.782   9.897  19.311  0.00  0.00    +0.000 A 
ATOM     12  N   UNL     1       0.410  10.952  18.482  0.00  0.00    +0.000 N 
ATOM     13  N   UNL     1       0.274   9.767  20.561  0.00  0.00    +0.000 NA
ATOM     14  C   UNL     1       0.635   8.686  21.281  0.00  0.00    +0.000 A 
ATOM     15 CL   UNL     1      -0.053   8.581  22.846  0.00  0.00    +0.000 Cl
ATOM     16  N   UNL     1       1.455   7.667  20.949  0.00  0.00    +0.000 NA
ATOM     17  C   UNL     1       1.955   7.854  19.717  0.00  0.00    +0.000 A 
ATOM     18  H   UNL     1       1.018  11.006  17.668  0.00  0.00    +0.000 HD
BRANCH  12  19
ATOM     19  C   UNL     1       0.013  12.218  19.077  0.00  0.00    +0.000 C 
ATOM     20  C   UNL     1       1.210  13.050  19.546  0.00  0.00    +0.000 C 
ATOM     21  C   UNL     1       0.705  14.482  19.475  0.00  0.00    +0.000 C 
ATOM     22  C   UNL     1      -0.129  14.516  18.206  0.00  0.00    +0.000 C 
ATOM     23  C   UNL     1      -0.675  13.099  18.026  0.00  0.00    +0.000 C 
ENDBRANCH  12  19
ENDBRANCH   6   7
BRANCH   2  24
ATOM     24  O   UNL     1       2.683   3.371  19.361  0.00  0.00    +0.000 OA
ATOM     25  H   UNL     1       3.067   3.546  20.242  0.00  0.00    +0.000 HD
ENDBRANCH   2  24
BRANCH   3  26
ATOM     26  O   UNL     1       4.334   2.975  17.294  0.00  0.00    +0.000 OA
ATOM     27  H   UNL     1       4.341   2.385  18.071  0.00  0.00    +0.000 HD
ENDBRANCH   3  26
BRANCH   4  28
ATOM     28  C   UNL     1       6.654   5.003  18.266  0.00  0.00    +0.000 C 
BRANCH  28  29
ATOM     29  O   UNL     1       7.321   6.066  18.963  0.00  0.00    +0.000 OA
BRANCH  29  30
ATOM     30  C   UNL     1       7.883   7.011  18.171  0.00  0.00    +0.000 C 
ATOM     31  O   UNL     1       7.779   7.058  16.955  0.00  0.00    +0.000 OA
ATOM     32  N   UNL     1       8.539   7.922  18.943  0.00  0.00    +0.000 N 
ATOM     33  H   UNL     1       8.418   7.805  19.940  0.00  0.00    +0.000 HD
BRANCH  32  34
ATOM     34  C   UNL     1       8.977   9.192  18.412  0.00  0.00    +0.000 C 
ATOM     35  C   UNL     1       7.823   9.990  17.811  0.00  0.00    +0.000 C 
ATOM     36  C   UNL     1       8.388  11.398  17.742  0.00  0.00    +0.000 C 
ATOM     37  C   UNL     1       9.204  11.545  19.021  0.00  0.00    +0.000 C 
ATOM     38  C   UNL     1       9.552  10.126  19.477  0.00  0.00    +0.000 C 
ENDBRANCH  32  34
ENDBRANCH  29  30
ENDBRANCH  28  29
ENDBRANCH   4  28
TORSDOF 8
ENDMDL
MODEL 7
REMARK VINA RESULT:      -8.0      1.102      1.572
REMARK  Name = 
REMARK  9 active torsions:
REMARK  status: ('A' for Active; 'I' for Inactive)
REMARK    1  A    between atoms: C_1  and  C_2
REMARK    2  A    between atoms: C_2  and  O_3
REMARK    3  A    between atoms: C_4  and  O_5
REMARK    4  A    between atoms: C_6  and  C_7
REMARK    5  A    between atoms: C_7  and  O_8
REMARK    6  A    between atoms: O_8  and  C_9
REMARK    7  A    between atoms: N_11  and  C_12
REMARK    8  A    between atoms: C_18  and  N_19
REMARK    9  A    between atoms: N_24  and  C_25
REMARK                            x       y       z     vdW  Elec       q    Type
REMARK                         _______ _______ _______ _____ _____    ______ ____
ROOT
ATOM      1  C   UNL     1       0.739   4.771  20.029  0.00  0.00    +0.000 C 
ATOM      2  C   UNL     1       2.237   4.577  20.243  0.00  0.00    +0.000 C 
ATOM      3  C   UNL     1       2.893   3.719  19.159  0.00  0.00    +0.000 C 
ATOM      4  C   UNL     1       4.367   4.090  19.321  0.00  0.00    +0.000 C 
ATOM      5  O   UNL     1       4.376   5.505  19.587  0.00  0.00    +0.000 OA
ATOM      6  C   UNL     1       3.117   5.856  20.226  0.00  0.00    +0.000 C 
ENDROOT
BRANCH   6   7
ATOM      7  N   UNL     1       2.560   6.999  19.528  0.00  0.00    +0.000 N 
ATOM      8  C   UNL     1       2.695   7.297  18.197  0.00  0.00    +0.000 A 
ATOM      9  N   UNL     1       1.969   8.340  17.849  0.00  0.00    +0.000 NA
ATOM     10  C   UNL     1       1.383   8.773  19.023  0.00  0.00    +0.000 A 
ATOM     11  C   UNL     1       0.500   9.839  19.299  0.00  0.00    +0.000 A 
ATOM     12  N   UNL     1       0.021  10.651  18.274  0.00  0.00    +0.000 N 
ATOM     13  N   UNL     1       0.121  10.027  20.587  0.00  0.00    +0.000 NA
ATOM     14  C   UNL     1       0.580   9.162  21.514  0.00  0.00    +0.000 A 
ATOM     15 CL   UNL     1       0.051   9.454  23.117  0.00  0.00    +0.000 Cl
ATOM     16  N   UNL     1       1.391   8.094  21.366  0.00  0.00    +0.000 NA
ATOM     17  C   UNL     1       1.763   7.966  20.083  0.00  0.00    +0.000 A 
ATOM     18  H   UNL     1       0.544  10.499  17.415  0.00  0.00    +0.000 HD
BRANCH  12  19
ATOM     19  C   UNL     1      -0.350  12.025  18.570  0.00  0.00    +0.000 C 
ATOM     20  C   UNL     1      -1.483  12.122  19.595  0.00  0.00    +0.000 C 
ATOM     21  C   UNL     1      -1.261  13.475  20.252  0.00  0.00    +0.000 C 
ATOM     22  C   UNL     1       0.249  13.577  20.383  0.00  0.00    +0.000 C 
ATOM     23  C   UNL     1       0.826  12.756  19.231  0.00  0.00    +0.000 C 
ENDBRANCH  12  19
ENDBRANCH   6   7
BRANCH   2  24
ATOM     24  O   UNL     1       2.409   3.898  21.509  0.00  0.00    +0.000 OA
ATOM     25  H   UNL     1       2.624   4.576  22.177  0.00  0.00    +0.000 HD
ENDBRANCH   2  24
BRANCH   3  26
ATOM     26  O   UNL     1       2.623   2.334  19.349  0.00  0.00    +0.000 OA
ATOM     27  H   UNL     1       1.686   2.188  19.115  0.00  0.00    +0.000 HD
ENDBRANCH   3  26
BRANCH   4  28
ATOM     28  C   UNL     1       5.223   3.780  18.087  0.00  0.00    +0.000 C 
BRANCH  28  29
ATOM     29  O   UNL     1       6.208   4.783  17.804  0.00  0.00    +0.000 OA
BRANCH  29  30
ATOM     30  C   UNL     1       6.097   5.374  16.589  0.00  0.00    +0.000 C 
ATOM     31  O   UNL     1       6.192   6.574  16.383  0.00  0.00    +0.000 OA
ATOM     32  N   UNL     1       5.910   4.421  15.634  0.00  0.00    +0.000 N 
ATOM     33  H   UNL     1       5.985   3.467  15.961  0.00  0.00    +0.000 HD
BRANCH  32  34
ATOM     34  C   UNL     1       6.054   4.718  14.228  0.00  0.00    +0.000 C 
ATOM     35  C   UNL     1       7.518   4.849  13.817  0.00  0.00    +0.000 C 
ATOM     36  C   UNL     1       7.458   4.703  12.307  0.00  0.00    +0.000 C 
ATOM     37  C   UNL     1       6.399   3.632  12.069  0.00  0.00    +0.000 C 
ATOM     38  C   UNL     1       5.518   3.611  13.319  0.00  0.00    +0.000 C 
ENDBRANCH  32  34
ENDBRANCH  29  30
ENDBRANCH  28  29
ENDBRANCH   4  28
TORSDOF 8
ENDMDL
MODEL 8
REMARK VINA RESULT:      -7.8      5.230     10.637
REMARK  Name = 
REMARK  9 active torsions:
REMARK  status: ('A' for Active; 'I' for Inactive)
REMARK    1  A    between atoms: C_1  and  C_2
REMARK    2  A    between atoms: C_2  and  O_3
REMARK    3  A    between atoms: C_4  and  O_5
REMARK    4  A    between atoms: C_6  and  C_7
REMARK    5  A    between atoms: C_7  and  O_8
REMARK    6  A    between atoms: O_8  and  C_9
REMARK    7  A    between atoms: N_11  and  C_12
REMARK    8  A    between atoms: C_18  and  N_19
REMARK    9  A    between atoms: N_24  and  C_25
REMARK                            x       y       z     vdW  Elec       q    Type
REMARK                         _______ _______ _______ _____ _____    ______ ____
ROOT
ATOM      1  C   UNL     1      -1.544  10.889  17.912  0.00  0.00    +0.000 C 
ATOM      2  C   UNL     1      -0.696  12.059  18.400  0.00  0.00    +0.000 C 
ATOM      3  C   UNL     1      -1.036  12.496  19.826  0.00  0.00    +0.000 C 
ATOM      4  C   UNL     1       0.216  13.279  20.217  0.00  0.00    +0.000 C 
ATOM      5  O   UNL     1       1.318  12.540  19.656  0.00  0.00    +0.000 OA
ATOM      6  C   UNL     1       0.836  11.824  18.485  0.00  0.00    +0.000 C 
ENDROOT
BRANCH   6   7
ATOM      7  N   UNL     1       1.260  10.441  18.596  0.00  0.00    +0.000 N 
ATOM      8  C   UNL     1       1.898   9.696  17.639  0.00  0.00    +0.000 A 
ATOM      9  N   UNL     1       2.255   8.512  18.092  0.00  0.00    +0.000 NA
ATOM     10  C   UNL     1       1.774   8.466  19.386  0.00  0.00    +0.000 A 
ATOM     11  C   UNL     1       1.840   7.470  20.383  0.00  0.00    +0.000 A 
ATOM     12  N   UNL     1       2.532   6.283  20.158  0.00  0.00    +0.000 N 
ATOM     13  N   UNL     1       1.229   7.720  21.567  0.00  0.00    +0.000 NA
ATOM     14  C   UNL     1       0.631   8.917  21.730  0.00  0.00    +0.000 A 
ATOM     15 CL   UNL     1      -0.109   9.167  23.254  0.00  0.00    +0.000 Cl
ATOM     16  N   UNL     1       0.535   9.954  20.872  0.00  0.00    +0.000 NA
ATOM     17  C   UNL     1       1.127   9.650  19.706  0.00  0.00    +0.000 A 
ATOM     18  H   UNL     1       2.761   6.176  19.172  0.00  0.00    +0.000 HD
BRANCH  12  19
ATOM     19  C   UNL     1       2.122   5.077  20.860  0.00  0.00    +0.000 C 
ATOM     20  C   UNL     1       0.851   4.457  20.274  0.00  0.00    +0.000 C 
ATOM     21  C   UNL     1       0.974   2.982  20.621  0.00  0.00    +0.000 C 
ATOM     22  C   UNL     1       2.448   2.678  20.417  0.00  0.00    +0.000 C 
ATOM     23  C   UNL     1       3.189   3.986  20.696  0.00  0.00    +0.000 C 
ENDBRANCH  12  19
ENDBRANCH   6   7
BRANCH   2  24
ATOM     24  O   UNL     1      -0.957  13.178  17.521  0.00  0.00    +0.000 OA
ATOM     25  H   UNL     1      -1.837  13.039  17.122  0.00  0.00    +0.000 HD
ENDBRANCH   2  24
BRANCH   3  26
ATOM     26  O   UNL     1      -2.234  13.264  19.870  0.00  0.00    +0.000 OA
ATOM     27  H   UNL     1      -2.658  13.088  20.731  0.00  0.00    +0.000 HD
ENDBRANCH   3  26
BRANCH   4  28
ATOM     28  C   UNL     1       0.401  13.435  21.731  0.00  0.00    +0.000 C 
BRANCH  28  29
ATOM     29  O   UNL     1       0.041  14.734  22.224  0.00  0.00    +0.000 OA
BRANCH  29  30
ATOM     30  C   UNL     1      -0.819  14.736  23.271  0.00  0.00    +0.000 C 
ATOM     31  O   UNL     1      -0.692  15.414  24.279  0.00  0.00    +0.000 OA
ATOM     32  N   UNL     1      -1.862  13.902  23.006  0.00  0.00    +0.000 N 
ATOM     33  H   UNL     1      -1.876  13.517  22.071  0.00  0.00    +0.000 HD
BRANCH  32  34
ATOM     34  C   UNL     1      -3.071  13.924  23.796  0.00  0.00    +0.000 C 
ATOM     35  C   UNL     1      -4.139  14.828  23.185  0.00  0.00    +0.000 C 
ATOM     36  C   UNL     1      -5.408  14.365  23.878  0.00  0.00    +0.000 C 
ATOM     37  C   UNL     1      -5.256  12.851  23.982  0.00  0.00    +0.000 C 
ATOM     38  C   UNL     1      -3.757  12.561  23.890  0.00  0.00    +0.000 C 
ENDBRANCH  32  34
ENDBRANCH  29  30
ENDBRANCH  28  29
ENDBRANCH   4  28
TORSDOF 8
ENDMDL
MODEL 9
REMARK VINA RESULT:      -7.8      5.230     10.865
REMARK  Name = 
REMARK  9 active torsions:
REMARK  status: ('A' for Active; 'I' for Inactive)
REMARK    1  A    between atoms: C_1  and  C_2
REMARK    2  A    between atoms: C_2  and  O_3
REMARK    3  A    between atoms: C_4  and  O_5
REMARK    4  A    between atoms: C_6  and  C_7
REMARK    5  A    between atoms: C_7  and  O_8
REMARK    6  A    between atoms: O_8  and  C_9
REMARK    7  A    between atoms: N_11  and  C_12
REMARK    8  A    between atoms: C_18  and  N_19
REMARK    9  A    between atoms: N_24  and  C_25
REMARK                            x       y       z     vdW  Elec       q    Type
REMARK                         _______ _______ _______ _____ _____    ______ ____
ROOT
ATOM      1  C   UNL     1      -1.632  10.683  17.643  0.00  0.00    +0.000 C 
ATOM      2  C   UNL     1      -0.959  11.878  18.312  0.00  0.00    +0.000 C 
ATOM      3  C   UNL     1      -1.524  12.188  19.699  0.00  0.00    +0.000 C 
ATOM      4  C   UNL     1      -0.406  13.034  20.307  0.00  0.00    +0.000 C 
ATOM      5  O   UNL     1       0.820  12.420  19.864  0.00  0.00    +0.000 OA
ATOM      6  C   UNL     1       0.563  11.753  18.597  0.00  0.00    +0.000 C 
ENDROOT
BRANCH   6   7
ATOM      7  N   UNL     1       1.082  10.401  18.686  0.00  0.00    +0.000 N 
ATOM      8  C   UNL     1       1.818   9.738  17.739  0.00  0.00    +0.000 A 
ATOM      9  N   UNL     1       2.240   8.568  18.173  0.00  0.00    +0.000 NA
ATOM     10  C   UNL     1       1.702   8.443  19.439  0.00  0.00    +0.000 A 
ATOM     11  C   UNL     1       1.795   7.420  20.406  0.00  0.00    +0.000 A 
ATOM     12  N   UNL     1       2.583   6.294  20.180  0.00  0.00    +0.000 N 
ATOM     13  N   UNL     1       1.112   7.583  21.566  0.00  0.00    +0.000 NA
ATOM     14  C   UNL     1       0.420   8.728  21.736  0.00  0.00    +0.000 A 
ATOM     15 CL   UNL     1      -0.409   8.870  23.228  0.00  0.00    +0.000 Cl
ATOM     16  N   UNL     1       0.288   9.784  20.907  0.00  0.00    +0.000 NA
ATOM     17  C   UNL     1       0.955   9.564  19.763  0.00  0.00    +0.000 A 
ATOM     18  H   UNL     1       2.866   6.239  19.203  0.00  0.00    +0.000 HD
BRANCH  12  19
ATOM     19  C   UNL     1       2.231   5.039  20.822  0.00  0.00    +0.000 C 
ATOM     20  C   UNL     1       0.917   4.455  20.296  0.00  0.00    +0.000 C 
ATOM     21  C   UNL     1       1.068   2.960  20.524  0.00  0.00    +0.000 C 
ATOM     22  C   UNL     1       2.521   2.680  20.181  0.00  0.00    +0.000 C 
ATOM     23  C   UNL     1       3.281   3.969  20.495  0.00  0.00    +0.000 C 
ENDBRANCH  12  19
ENDBRANCH   6   7
BRANCH   2  24
ATOM     24  O   UNL     1      -1.191  13.032  17.471  0.00  0.00    +0.000 OA
ATOM     25  H   UNL     1      -1.089  13.826  18.030  0.00  0.00    +0.000 HD
ENDBRANCH   2  24
BRANCH   3  26
ATOM     26  O   UNL     1      -2.777  12.859  19.619  0.00  0.00    +0.000 OA
ATOM     27  H   UNL     1      -2.877  13.174  18.701  0.00  0.00    +0.000 HD
ENDBRANCH   3  26
BRANCH   4  28
ATOM     28  C   UNL     1      -0.441  13.099  21.838  0.00  0.00    +0.000 C 
BRANCH  28  29
ATOM     29  O   UNL     1      -1.230  12.062  22.440  0.00  0.00    +0.000 OA
BRANCH  29  30
ATOM     30  C   UNL     1      -2.317  12.489  23.126  0.00  0.00    +0.000 C 
ATOM     31  O   UNL     1      -3.180  11.763  23.594  0.00  0.00    +0.000 OA
ATOM     32  N   UNL     1      -2.274  13.845  23.250  0.00  0.00    +0.000 N 
ATOM     33  H   UNL     1      -1.424  14.279  22.916  0.00  0.00    +0.000 HD
BRANCH  32  34
ATOM     34  C   UNL     1      -3.129  14.550  24.177  0.00  0.00    +0.000 C 
ATOM     35  C   UNL     1      -2.574  15.926  24.535  0.00  0.00    +0.000 C 
ATOM     36  C   UNL     1      -3.785  16.637  25.113  0.00  0.00    +0.000 C 
ATOM     37  C   UNL     1      -4.950  16.175  24.244  0.00  0.00    +0.000 C 
ATOM     38  C   UNL     1      -4.516  14.852  23.609  0.00  0.00    +0.000 C 
ENDBRANCH  32  34
ENDBRANCH  29  30
ENDBRANCH  28  29
ENDBRANCH   4  28
TORSDOF 8
ENDMDL
