MODEL 1
REMARK VINA RESULT:     -10.1      0.000      0.000
REMARK  Name = 
REMARK  5 active torsions:
REMARK  status: ('A' for Active; 'I' for Inactive)
REMARK    1  A    between atoms: C_1  and  C_2
REMARK    2  A    between atoms: C_5  and  C_6
REMARK    3  A    between atoms: N_8  and  C_9
REMARK    4  A    between atoms: C_13  and  N_14
REMARK    5  A    between atoms: N_14  and  C_15
REMARK                            x       y       z     vdW  Elec       q    Type
REMARK                         _______ _______ _______ _____ _____    ______ ____
ROOT
ATOM      1  N   UNL     1       2.513   6.806  20.396  0.00  0.00    +0.000 N 
ATOM      2  H   UNL     1       3.073   6.776  21.247  0.00  0.00    +0.000 HD
ENDROOT
BRANCH   1   3
ATOM      3  C   UNL     1       2.093   5.498  20.016  0.00  0.00    +0.000 A 
ATOM      4  N   UNL     1       1.149   4.898  20.788  0.00  0.00    +0.000 NA
ATOM      5  C   UNL     1       0.759   3.676  20.436  0.00  0.00    +0.000 A 
ATOM      6  N   UNL     1       1.230   2.990  19.398  0.00  0.00    +0.000 NA
ATOM      7  C   UNL     1       2.158   3.619  18.651  0.00  0.00    +0.000 A 
ATOM      8  C   UNL     1       2.717   3.003  17.563  0.00  0.00    +0.000 A 
ATOM      9  N   UNL     1       3.652   3.544  16.756  0.00  0.00    +0.000 NA
ATOM     10  C   UNL     1       4.079   4.781  17.037  0.00  0.00    +0.000 A 
ATOM     11  N   UNL     1       5.018   5.340  16.220  0.00  0.00    +0.000 N 
ATOM     12  C   UNL     1       5.546   4.635  15.050  0.00  0.00    +0.000 C 
ATOM     13  C   UNL     1       7.073   4.502  15.158  0.00  0.00    +0.000 C 
ATOM     14  O   UNL     1       7.702   5.773  15.399  0.00  0.00    +0.000 OA
ATOM     15  C   UNL     1       7.209   6.349  16.621  0.00  0.00    +0.000 C 
ATOM     16  C   UNL     1       5.692   6.591  16.557  0.00  0.00    +0.000 C 
ATOM     17  N   UNL     1       3.608   5.472  18.091  0.00  0.00    +0.000 NA
ATOM     18  C   UNL     1       2.653   4.896  18.878  0.00  0.00    +0.000 A 
ENDBRANCH   1   3
BRANCH   1  25
ATOM     19  C   UNL     1       2.342   8.236  17.810  0.00  0.00    +0.000 C 
ATOM     20  C   UNL     1       1.649   8.694  19.065  0.00  0.00    +0.000 A 
ATOM     21  C   UNL     1       0.894   9.880  19.000  0.00  0.00    +0.000 A 
ATOM     22  C   UNL     1       0.227  10.367  20.122  0.00  0.00    +0.000 A 
ATOM     23  C   UNL     1       0.303   9.679  21.333  0.00  0.00    +0.000 A 
ATOM     24  C   UNL     1       1.065   8.510  21.414  0.00  0.00    +0.000 A 
ATOM     25  C   UNL     1       1.739   7.992  20.288  0.00  0.00    +0.000 A 
BRANCH  23  26
ATOM     26  C   UNL     1      -0.393  10.264  22.508  0.00  0.00    +0.000 C 
ATOM     27  O   UNL     1      -0.031   9.944  23.641  0.00  0.00    +0.000 OA
ATOM     28  N   UNL     1      -1.396  11.183  22.262  0.00  0.00    +0.000 N 
ATOM     29  H   UNL     1      -1.543  11.516  21.316  0.00  0.00    +0.000 HD
BRANCH  28  30
ATOM     30  C   UNL     1      -2.051  11.862  23.339  0.00  0.00    +0.000 C 
ATOM     31  C   UNL     1      -2.167  13.361  23.380  0.00  0.00    +0.000 C 
ATOM     32  C   UNL     1      -3.385  12.520  23.120  0.00  0.00    +0.000 C 
ENDBRANCH  28  30
ENDBRANCH  23  26
ENDBRANCH   1  25
TORSDOF 4
ENDMDL
MODEL 2
REMARK VINA RESULT:      -8.5      2.500      9.190
REMARK  Name = 
REMARK  5 active torsions:
REMARK  status: ('A' for Active; 'I' for Inactive)
REMARK    1  A    between atoms: C_1  and  C_2
REMARK    2  A    between atoms: C_5  and  C_6
REMARK    3  A    between atoms: N_8  and  C_9
REMARK    4  A    between atoms: C_13  and  N_14
REMARK    5  A    between atoms: N_14  and  C_15
REMARK                            x       y       z     vdW  Elec       q    Type
REMARK                         _______ _______ _______ _____ _____    ______ ____
ROOT
ATOM      1  N   UNL     1       4.379   5.610  16.902  0.00  0.00    +0.000 N 
ATOM      2  H   UNL     1       3.615   6.105  16.446  0.00  0.00    +0.000 HD
ENDROOT
BRANCH   1   3
ATOM      3  C   UNL     1       3.903   4.842  18.005  0.00  0.00    +0.000 A 
ATOM      4  N   UNL     1       4.260   3.531  18.051  0.00  0.00    +0.000 NA
ATOM      5  C   UNL     1       3.812   2.813  19.078  0.00  0.00    +0.000 A 
ATOM      6  N   UNL     1       3.033   3.272  20.053  0.00  0.00    +0.000 NA
ATOM      7  C   UNL     1       2.704   4.577  19.977  0.00  0.00    +0.000 A 
ATOM      8  C   UNL     1       1.899   5.153  20.924  0.00  0.00    +0.000 A 
ATOM      9  N   UNL     1       1.512   6.445  20.937  0.00  0.00    +0.000 NA
ATOM     10  C   UNL     1       1.942   7.234  19.944  0.00  0.00    +0.000 A 
ATOM     11  N   UNL     1       1.563   8.545  19.955  0.00  0.00    +0.000 N 
ATOM     12  C   UNL     1       0.728   9.102  21.021  0.00  0.00    +0.000 C 
ATOM     13  C   UNL     1      -0.554   9.707  20.426  0.00  0.00    +0.000 C 
ATOM     14  O   UNL     1      -0.262  10.641  19.373  0.00  0.00    +0.000 OA
ATOM     15  C   UNL     1       0.465   9.991  18.317  0.00  0.00    +0.000 C 
ATOM     16  C   UNL     1       1.805   9.430  18.819  0.00  0.00    +0.000 C 
ATOM     17  N   UNL     1       2.725   6.769  18.955  0.00  0.00    +0.000 NA
ATOM     18  C   UNL     1       3.106   5.458  18.983  0.00  0.00    +0.000 A 
ENDBRANCH   1   3
BRANCH   1  25
ATOM     19  C   UNL     1       7.221   6.099  17.567  0.00  0.00    +0.000 C 
ATOM     20  C   UNL     1       6.763   5.448  16.290  0.00  0.00    +0.000 A 
ATOM     21  C   UNL     1       7.747   5.070  15.358  0.00  0.00    +0.000 A 
ATOM     22  C   UNL     1       7.397   4.464  14.153  0.00  0.00    +0.000 A 
ATOM     23  C   UNL     1       6.056   4.227  13.854  0.00  0.00    +0.000 A 
ATOM     24  C   UNL     1       5.068   4.614  14.764  0.00  0.00    +0.000 A 
ATOM     25  C   UNL     1       5.400   5.218  15.996  0.00  0.00    +0.000 A 
BRANCH  23  26
ATOM     26  C   UNL     1       5.735   3.616  12.537  0.00  0.00    +0.000 C 
ATOM     27  O   UNL     1       6.619   3.019  11.921  0.00  0.00    +0.000 OA
ATOM     28  N   UNL     1       4.432   3.716  12.090  0.00  0.00    +0.000 N 
ATOM     29  H   UNL     1       3.720   4.085  12.711  0.00  0.00    +0.000 HD
BRANCH  28  30
ATOM     30  C   UNL     1       4.020   3.073  10.878  0.00  0.00    +0.000 C 
ATOM     31  C   UNL     1       2.570   2.827  10.562  0.00  0.00    +0.000 C 
ATOM     32  C   UNL     1       3.340   3.864   9.795  0.00  0.00    +0.000 C 
ENDBRANCH  28  30
ENDBRANCH  23  26
ENDBRANCH   1  25
TORSDOF 4
ENDMDL
MODEL 3
REMARK VINA RESULT:      -8.3      2.407      9.515
REMARK  Name = 
REMARK  5 active torsions:
REMARK  status: ('A' for Active; 'I' for Inactive)
REMARK    1  A    between atoms: C_1  and  C_2
REMARK    2  A    between atoms: C_5  and  C_6
REMARK    3  A    between atoms: N_8  and  C_9
REMARK    4  A    between atoms: C_13  and  N_14
REMARK    5  A    between atoms: N_14  and  C_15
REMARK                            x       y       z     vdW  Elec       q    Type
REMARK                         _______ _______ _______ _____ _____    ______ ____
ROOT
ATOM      1  N   UNL     1       3.748   4.892  16.768  0.00  0.00    +0.000 N 
ATOM      2  H   UNL     1       2.961   4.949  16.125  0.00  0.00    +0.000 HD
ENDROOT
BRANCH   1   3
ATOM      3  C   UNL     1       3.408   4.131  17.925  0.00  0.00    +0.000 A 
ATOM      4  N   UNL     1       3.665   2.797  17.890  0.00  0.00    +0.000 NA
ATOM      5  C   UNL     1       3.344   2.086  18.968  0.00  0.00    +0.000 A 
ATOM      6  N   UNL     1       2.780   2.575  20.069  0.00  0.00    +0.000 NA
ATOM      7  C   UNL     1       2.547   3.901  20.070  0.00  0.00    +0.000 A 
ATOM      8  C   UNL     1       1.962   4.509  21.149  0.00  0.00    +0.000 A 
ATOM      9  N   UNL     1       1.685   5.826  21.247  0.00  0.00    +0.000 NA
ATOM     10  C   UNL     1       1.999   6.608  20.207  0.00  0.00    +0.000 A 
ATOM     11  N   UNL     1       1.732   7.943  20.302  0.00  0.00    +0.000 N 
ATOM     12  C   UNL     1       1.136   8.531  21.503  0.00  0.00    +0.000 C 
ATOM     13  C   UNL     1      -0.177   9.246  21.147  0.00  0.00    +0.000 C 
ATOM     14  O   UNL     1       0.003  10.184  20.072  0.00  0.00    +0.000 OA
ATOM     15  C   UNL     1       0.487   9.511  18.898  0.00  0.00    +0.000 C 
ATOM     16  C   UNL     1       1.845   8.839  19.154  0.00  0.00    +0.000 C 
ATOM     17  N   UNL     1       2.564   6.113  19.091  0.00  0.00    +0.000 NA
ATOM     18  C   UNL     1       2.840   4.778  19.034  0.00  0.00    +0.000 A 
ENDBRANCH   1   3
BRANCH   1  25
ATOM     19  C   UNL     1       6.130   6.082  18.060  0.00  0.00    +0.000 C 
ATOM     20  C   UNL     1       6.151   5.444  16.698  0.00  0.00    +0.000 A 
ATOM     21  C   UNL     1       7.372   5.433  15.998  0.00  0.00    +0.000 A 
ATOM     22  C   UNL     1       7.468   4.863  14.731  0.00  0.00    +0.000 A 
ATOM     23  C   UNL     1       6.342   4.294  14.136  0.00  0.00    +0.000 A 
ATOM     24  C   UNL     1       5.120   4.314  14.812  0.00  0.00    +0.000 A 
ATOM     25  C   UNL     1       5.003   4.876  16.102  0.00  0.00    +0.000 A 
BRANCH  23  26
ATOM     26  C   UNL     1       6.489   3.736  12.765  0.00  0.00    +0.000 C 
ATOM     27  O   UNL     1       7.252   4.287  11.971  0.00  0.00    +0.000 OA
ATOM     28  N   UNL     1       5.783   2.585  12.468  0.00  0.00    +0.000 N 
ATOM     29  H   UNL     1       5.294   2.097  13.209  0.00  0.00    +0.000 HD
BRANCH  28  30
ATOM     30  C   UNL     1       5.943   1.932  11.203  0.00  0.00    +0.000 C 
ATOM     31  C   UNL     1       7.246   1.306  10.791  0.00  0.00    +0.000 C 
ATOM     32  C   UNL     1       6.071   0.436  11.135  0.00  0.00    +0.000 C 
ENDBRANCH  28  30
ENDBRANCH  23  26
ENDBRANCH   1  25
TORSDOF 4
ENDMDL
MODEL 4
REMARK VINA RESULT:      -8.3      2.425      7.525
REMARK  Name = 
REMARK  5 active torsions:
REMARK  status: ('A' for Active; 'I' for Inactive)
REMARK    1  A    between atoms: C_1  and  C_2
REMARK    2  A    between atoms: C_5  and  C_6
REMARK    3  A    between atoms: N_8  and  C_9
REMARK    4  A    between atoms: C_13  and  N_14
REMARK    5  A    between atoms: N_14  and  C_15
REMARK                            x       y       z     vdW  Elec       q    Type
REMARK                         _______ _______ _______ _____ _____    ______ ____
ROOT
ATOM      1  N   UNL     1       3.863   4.388  16.473  0.00  0.00    +0.000 N 
ATOM      2  H   UNL     1       3.466   3.908  15.667  0.00  0.00    +0.000 HD
ENDROOT
BRANCH   1   3
ATOM      3  C   UNL     1       3.442   3.776  17.690  0.00  0.00    +0.000 A 
ATOM      4  N   UNL     1       3.603   2.430  17.798  0.00  0.00    +0.000 NA
ATOM      5  C   UNL     1       3.207   1.858  18.932  0.00  0.00    +0.000 A 
ATOM      6  N   UNL     1       2.654   2.495  19.960  0.00  0.00    +0.000 NA
ATOM      7  C   UNL     1       2.517   3.828  19.820  0.00  0.00    +0.000 A 
ATOM      8  C   UNL     1       1.953   4.583  20.814  0.00  0.00    +0.000 A 
ATOM      9  N   UNL     1       1.769   5.919  20.770  0.00  0.00    +0.000 NA
ATOM     10  C   UNL     1       2.162   6.566  19.666  0.00  0.00    +0.000 A 
ATOM     11  N   UNL     1       1.989   7.919  19.617  0.00  0.00    +0.000 N 
ATOM     12  C   UNL     1       1.410   8.667  20.734  0.00  0.00    +0.000 C 
ATOM     13  C   UNL     1       0.160   9.431  20.268  0.00  0.00    +0.000 C 
ATOM     14  O   UNL     1       0.432  10.239  19.110  0.00  0.00    +0.000 OA
ATOM     15  C   UNL     1       0.894   9.416  18.024  0.00  0.00    +0.000 C 
ATOM     16  C   UNL     1       2.194   8.681  18.389  0.00  0.00    +0.000 C 
ATOM     17  N   UNL     1       2.716   5.921  18.624  0.00  0.00    +0.000 NA
ATOM     18  C   UNL     1       2.897   4.571  18.710  0.00  0.00    +0.000 A 
ENDBRANCH   1   3
BRANCH   1  25
ATOM     19  C   UNL     1       5.313   3.639  14.004  0.00  0.00    +0.000 C 
ATOM     20  C   UNL     1       5.866   4.573  15.046  0.00  0.00    +0.000 A 
ATOM     21  C   UNL     1       7.153   5.102  14.834  0.00  0.00    +0.000 A 
ATOM     22  C   UNL     1       7.731   5.971  15.757  0.00  0.00    +0.000 A 
ATOM     23  C   UNL     1       7.035   6.328  16.911  0.00  0.00    +0.000 A 
ATOM     24  C   UNL     1       5.763   5.796  17.141  0.00  0.00    +0.000 A 
ATOM     25  C   UNL     1       5.153   4.922  16.214  0.00  0.00    +0.000 A 
BRANCH  23  26
ATOM     26  C   UNL     1       7.714   7.226  17.882  0.00  0.00    +0.000 C 
ATOM     27  O   UNL     1       8.184   6.747  18.914  0.00  0.00    +0.000 OA
ATOM     28  N   UNL     1       7.819   8.562  17.546  0.00  0.00    +0.000 N 
ATOM     29  H   UNL     1       7.547   8.864  16.618  0.00  0.00    +0.000 HD
BRANCH  28  30
ATOM     30  C   UNL     1       8.541   9.474  18.382  0.00  0.00    +0.000 C 
ATOM     31  C   UNL     1       9.631  10.356  17.840  0.00  0.00    +0.000 C 
ATOM     32  C   UNL     1       8.318  10.956  18.254  0.00  0.00    +0.000 C 
ENDBRANCH  28  30
ENDBRANCH  23  26
ENDBRANCH   1  25
TORSDOF 4
ENDMDL
MODEL 5
REMARK VINA RESULT:      -8.1      4.056     10.567
REMARK  Name = 
REMARK  5 active torsions:
REMARK  status: ('A' for Active; 'I' for Inactive)
REMARK    1  A    between atoms: C_1  and  C_2
REMARK    2  A    between atoms: C_5  and  C_6
REMARK    3  A    between atoms: N_8  and  C_9
REMARK    4  A    between atoms: C_13  and  N_14
REMARK    5  A    between atoms: N_14  and  C_15
REMARK                            x       y       z     vdW  Elec       q    Type
REMARK                         _______ _______ _______ _____ _____    ______ ____
ROOT
ATOM      1  N   UNL     1      -1.537  11.964  18.974  0.00  0.00    +0.000 N 
ATOM      2  H   UNL     1      -1.072  12.834  18.720  0.00  0.00    +0.000 HD
ENDROOT
BRANCH   1   3
ATOM      3  C   UNL     1      -2.587  11.660  18.058  0.00  0.00    +0.000 A 
ATOM      4  N   UNL     1      -2.229  11.302  16.797  0.00  0.00    +0.000 NA
ATOM      5  C   UNL     1      -3.208  11.023  15.941  0.00  0.00    +0.000 A 
ATOM      6  N   UNL     1      -4.508  11.080  16.217  0.00  0.00    +0.000 NA
ATOM      7  C   UNL     1      -4.825  11.432  17.479  0.00  0.00    +0.000 A 
ATOM      8  C   UNL     1      -6.133  11.530  17.871  0.00  0.00    +0.000 A 
ATOM      9  N   UNL     1      -6.554  11.875  19.105  0.00  0.00    +0.000 NA
ATOM     10  C   UNL     1      -5.622  12.151  20.026  0.00  0.00    +0.000 A 
ATOM     11  N   UNL     1      -6.039  12.492  21.280  0.00  0.00    +0.000 N 
ATOM     12  C   UNL     1      -7.457  12.543  21.639  0.00  0.00    +0.000 C 
ATOM     13  C   UNL     1      -7.824  13.945  22.151  0.00  0.00    +0.000 C 
ATOM     14  O   UNL     1      -6.945  14.372  23.206  0.00  0.00    +0.000 OA
ATOM     15  C   UNL     1      -5.584  14.399  22.741  0.00  0.00    +0.000 C 
ATOM     16  C   UNL     1      -5.117  13.007  22.289  0.00  0.00    +0.000 C 
ATOM     17  N   UNL     1      -4.308  12.100  19.745  0.00  0.00    +0.000 NA
ATOM     18  C   UNL     1      -3.921  11.734  18.488  0.00  0.00    +0.000 A 
ENDBRANCH   1   3
BRANCH   1  25
ATOM     19  C   UNL     1      -1.400  11.716  21.920  0.00  0.00    +0.000 C 
ATOM     20  C   UNL     1      -0.570  10.892  20.974  0.00  0.00    +0.000 A 
ATOM     21  C   UNL     1       0.333   9.966  21.530  0.00  0.00    +0.000 A 
ATOM     22  C   UNL     1       1.136   9.171  20.716  0.00  0.00    +0.000 A 
ATOM     23  C   UNL     1       1.055   9.286  19.329  0.00  0.00    +0.000 A 
ATOM     24  C   UNL     1       0.176  10.214  18.765  0.00  0.00    +0.000 A 
ATOM     25  C   UNL     1      -0.656  11.022  19.569  0.00  0.00    +0.000 A 
BRANCH  23  26
ATOM     26  C   UNL     1       1.964   8.443  18.508  0.00  0.00    +0.000 C 
ATOM     27  O   UNL     1       2.314   8.844  17.397  0.00  0.00    +0.000 OA
ATOM     28  N   UNL     1       2.407   7.258  19.064  0.00  0.00    +0.000 N 
ATOM     29  H   UNL     1       2.205   7.059  20.037  0.00  0.00    +0.000 HD
BRANCH  28  30
ATOM     30  C   UNL     1       3.358   6.435  18.377  0.00  0.00    +0.000 C 
ATOM     31  C   UNL     1       4.244   5.465  19.109  0.00  0.00    +0.000 C 
ATOM     32  C   UNL     1       3.124   4.956  18.246  0.00  0.00    +0.000 C 
ENDBRANCH  28  30
ENDBRANCH  23  26
ENDBRANCH   1  25
TORSDOF 4
ENDMDL
MODEL 6
REMARK VINA RESULT:      -7.9      3.700     10.273
REMARK  Name = 
REMARK  5 active torsions:
REMARK  status: ('A' for Active; 'I' for Inactive)
REMARK    1  A    between atoms: C_1  and  C_2
REMARK    2  A    between atoms: C_5  and  C_6
REMARK    3  A    between atoms: N_8  and  C_9
REMARK    4  A    between atoms: C_13  and  N_14
REMARK    5  A    between atoms: N_14  and  C_15
REMARK                            x       y       z     vdW  Elec       q    Type
REMARK                         _______ _______ _______ _____ _____    ______ ____
ROOT
ATOM      1  N   UNL     1      -0.885  11.644  19.518  0.00  0.00    +0.000 N 
ATOM      2  H   UNL     1      -0.196  12.292  19.142  0.00  0.00    +0.000 HD
ENDROOT
BRANCH   1   3
ATOM      3  C   UNL     1      -1.913  11.383  18.566  0.00  0.00    +0.000 A 
ATOM      4  N   UNL     1      -1.561  10.710  17.438  0.00  0.00    +0.000 NA
ATOM      5  C   UNL     1      -2.520  10.470  16.547  0.00  0.00    +0.000 A 
ATOM      6  N   UNL     1      -3.789  10.847  16.665  0.00  0.00    +0.000 NA
ATOM      7  C   UNL     1      -4.103  11.506  17.798  0.00  0.00    +0.000 A 
ATOM      8  C   UNL     1      -5.379  11.949  18.021  0.00  0.00    +0.000 A 
ATOM      9  N   UNL     1      -5.793  12.617  19.117  0.00  0.00    +0.000 NA
ATOM     10  C   UNL     1      -4.887  12.877  20.067  0.00  0.00    +0.000 A 
ATOM     11  N   UNL     1      -5.299  13.544  21.184  0.00  0.00    +0.000 N 
ATOM     12  C   UNL     1      -6.691  13.957  21.371  0.00  0.00    +0.000 C 
ATOM     13  C   UNL     1      -6.769  15.479  21.573  0.00  0.00    +0.000 C 
ATOM     14  O   UNL     1      -5.888  15.922  22.620  0.00  0.00    +0.000 OA
ATOM     15  C   UNL     1      -4.528  15.574  22.309  0.00  0.00    +0.000 C 
ATOM     16  C   UNL     1      -4.354  14.053  22.175  0.00  0.00    +0.000 C 
ATOM     17  N   UNL     1      -3.601  12.500  19.945  0.00  0.00    +0.000 NA
ATOM     18  C   UNL     1      -3.223  11.816  18.827  0.00  0.00    +0.000 A 
ENDBRANCH   1   3
BRANCH   1  25
ATOM     19  C   UNL     1      -1.107  12.042  22.442  0.00  0.00    +0.000 C 
ATOM     20  C   UNL     1      -0.408  10.869  21.811  0.00  0.00    +0.000 A 
ATOM     21  C   UNL     1       0.186   9.922  22.666  0.00  0.00    +0.000 A 
ATOM     22  C   UNL     1       0.852   8.812  22.153  0.00  0.00    +0.000 A 
ATOM     23  C   UNL     1       0.941   8.627  20.774  0.00  0.00    +0.000 A 
ATOM     24  C   UNL     1       0.370   9.569  19.914  0.00  0.00    +0.000 A 
ATOM     25  C   UNL     1      -0.320  10.695  20.411  0.00  0.00    +0.000 A 
BRANCH  23  26
ATOM     26  C   UNL     1       1.698   7.447  20.279  0.00  0.00    +0.000 C 
ATOM     27  O   UNL     1       2.458   7.581  19.319  0.00  0.00    +0.000 OA
ATOM     28  N   UNL     1       1.538   6.256  20.961  0.00  0.00    +0.000 N 
ATOM     29  H   UNL     1       1.018   6.248  21.831  0.00  0.00    +0.000 HD
BRANCH  28  30
ATOM     30  C   UNL     1       2.303   5.098  20.606  0.00  0.00    +0.000 C 
ATOM     31  C   UNL     1       2.258   3.835  21.422  0.00  0.00    +0.000 C 
ATOM     32  C   UNL     1       1.618   3.875  20.064  0.00  0.00    +0.000 C 
ENDBRANCH  28  30
ENDBRANCH  23  26
ENDBRANCH   1  25
TORSDOF 4
ENDMDL
MODEL 7
REMARK VINA RESULT:      -7.9      2.352      3.335
REMARK  Name = 
REMARK  5 active torsions:
REMARK  status: ('A' for Active; 'I' for Inactive)
REMARK    1  A    between atoms: C_1  and  C_2
REMARK    2  A    between atoms: C_5  and  C_6
REMARK    3  A    between atoms: N_8  and  C_9
REMARK    4  A    between atoms: C_13  and  N_14
REMARK    5  A    between atoms: N_14  and  C_15
REMARK                            x       y       z     vdW  Elec       q    Type
REMARK                         _______ _______ _______ _____ _____    ______ ____
ROOT
ATOM      1  N   UNL     1       2.218   7.747  19.903  0.00  0.00    +0.000 N 
ATOM      2  H   UNL     1       3.107   7.881  20.383  0.00  0.00    +0.000 HD
ENDROOT
BRANCH   1   3
ATOM      3  C   UNL     1       1.885   6.363  19.823  0.00  0.00    +0.000 A 
ATOM      4  N   UNL     1       0.934   5.901  20.678  0.00  0.00    +0.000 NA
ATOM      5  C   UNL     1       0.625   4.609  20.606  0.00  0.00    +0.000 A 
ATOM      6  N   UNL     1       1.183   3.732  19.776  0.00  0.00    +0.000 NA
ATOM      7  C   UNL     1       2.116   4.227  18.940  0.00  0.00    +0.000 A 
ATOM      8  C   UNL     1       2.761   3.412  18.049  0.00  0.00    +0.000 A 
ATOM      9  N   UNL     1       3.709   3.807  17.174  0.00  0.00    +0.000 NA
ATOM     10  C   UNL     1       4.057   5.100  17.175  0.00  0.00    +0.000 A 
ATOM     11  N   UNL     1       5.008   5.511  16.286  0.00  0.00    +0.000 N 
ATOM     12  C   UNL     1       5.631   4.589  15.336  0.00  0.00    +0.000 C 
ATOM     13  C   UNL     1       7.156   4.578  15.531  0.00  0.00    +0.000 C 
ATOM     14  O   UNL     1       7.706   5.906  15.493  0.00  0.00    +0.000 OA
ATOM     15  C   UNL     1       7.121   6.718  16.525  0.00  0.00    +0.000 C 
ATOM     16  C   UNL     1       5.600   6.845  16.348  0.00  0.00    +0.000 C 
ATOM     17  N   UNL     1       3.497   5.986  18.018  0.00  0.00    +0.000 NA
ATOM     18  C   UNL     1       2.533   5.550  18.881  0.00  0.00    +0.000 A 
ENDBRANCH   1   3
BRANCH   1  25
ATOM     19  C   UNL     1       1.853   8.832  22.633  0.00  0.00    +0.000 C 
ATOM     20  C   UNL     1       1.109   9.338  21.427  0.00  0.00    +0.000 A 
ATOM     21  C   UNL     1       0.176  10.374  21.620  0.00  0.00    +0.000 A 
ATOM     22  C   UNL     1      -0.552  10.892  20.551  0.00  0.00    +0.000 A 
ATOM     23  C   UNL     1      -0.363  10.383  19.267  0.00  0.00    +0.000 A 
ATOM     24  C   UNL     1       0.547   9.342  19.064  0.00  0.00    +0.000 A 
ATOM     25  C   UNL     1       1.304   8.810  20.131  0.00  0.00    +0.000 A 
BRANCH  23  26
ATOM     26  C   UNL     1      -1.195  10.943  18.169  0.00  0.00    +0.000 C 
ATOM     27  O   UNL     1      -1.500  12.135  18.195  0.00  0.00    +0.000 OA
ATOM     28  N   UNL     1      -1.550  10.090  17.141  0.00  0.00    +0.000 N 
ATOM     29  H   UNL     1      -1.141   9.163  17.101  0.00  0.00    +0.000 HD
BRANCH  28  30
ATOM     30  C   UNL     1      -2.268  10.573  16.000  0.00  0.00    +0.000 C 
ATOM     31  C   UNL     1      -3.137   9.671  15.167  0.00  0.00    +0.000 C 
ATOM     32  C   UNL     1      -3.765  10.711  16.051  0.00  0.00    +0.000 C 
ENDBRANCH  28  30
ENDBRANCH  23  26
ENDBRANCH   1  25
TORSDOF 4
ENDMDL
MODEL 8
REMARK VINA RESULT:      -7.9      2.583      9.573
REMARK  Name = 
REMARK  5 active torsions:
REMARK  status: ('A' for Active; 'I' for Inactive)
REMARK    1  A    between atoms: C_1  and  C_2
REMARK    2  A    between atoms: C_5  and  C_6
REMARK    3  A    between atoms: N_8  and  C_9
REMARK    4  A    between atoms: C_13  and  N_14
REMARK    5  A    between atoms: N_14  and  C_15
REMARK                            x       y       z     vdW  Elec       q    Type
REMARK                         _______ _______ _______ _____ _____    ______ ____
ROOT
ATOM      1  N   UNL     1       4.251   5.978  17.094  0.00  0.00    +0.000 N 
ATOM      2  H   UNL     1       3.500   6.494  16.638  0.00  0.00    +0.000 HD
ENDROOT
BRANCH   1   3
ATOM      3  C   UNL     1       3.764   5.270  18.232  0.00  0.00    +0.000 A 
ATOM      4  N   UNL     1       4.144   3.972  18.367  0.00  0.00    +0.000 NA
ATOM      5  C   UNL     1       3.687   3.310  19.427  0.00  0.00    +0.000 A 
ATOM      6  N   UNL     1       2.878   3.813  20.355  0.00  0.00    +0.000 NA
ATOM      7  C   UNL     1       2.528   5.104  20.192  0.00  0.00    +0.000 A 
ATOM      8  C   UNL     1       1.692   5.721  21.084  0.00  0.00    +0.000 A 
ATOM      9  N   UNL     1       1.282   7.004  21.009  0.00  0.00    +0.000 NA
ATOM     10  C   UNL     1       1.718   7.738  19.979  0.00  0.00    +0.000 A 
ATOM     11  N   UNL     1       1.316   9.040  19.900  0.00  0.00    +0.000 N 
ATOM     12  C   UNL     1       0.448   9.646  20.911  0.00  0.00    +0.000 C 
ATOM     13  C   UNL     1      -0.831  10.188  20.254  0.00  0.00    +0.000 C 
ATOM     14  O   UNL     1      -0.533  11.061  19.151  0.00  0.00    +0.000 OA
ATOM     15  C   UNL     1       0.229  10.361  18.153  0.00  0.00    +0.000 C 
ATOM     16  C   UNL     1       1.567   9.858  18.717  0.00  0.00    +0.000 C 
ATOM     17  N   UNL     1       2.532   7.229  19.037  0.00  0.00    +0.000 NA
ATOM     18  C   UNL     1       2.935   5.930  19.153  0.00  0.00    +0.000 A 
ENDBRANCH   1   3
BRANCH   1  25
ATOM     19  C   UNL     1       7.113   6.577  17.548  0.00  0.00    +0.000 C 
ATOM     20  C   UNL     1       6.602   5.787  16.374  0.00  0.00    +0.000 A 
ATOM     21  C   UNL     1       7.543   5.327  15.434  0.00  0.00    +0.000 A 
ATOM     22  C   UNL     1       7.143   4.593  14.320  0.00  0.00    +0.000 A 
ATOM     23  C   UNL     1       5.793   4.305  14.121  0.00  0.00    +0.000 A 
ATOM     24  C   UNL     1       4.847   4.772  15.038  0.00  0.00    +0.000 A 
ATOM     25  C   UNL     1       5.230   5.508  16.180  0.00  0.00    +0.000 A 
BRANCH  23  26
ATOM     26  C   UNL     1       5.417   3.554  12.895  0.00  0.00    +0.000 C 
ATOM     27  O   UNL     1       4.457   3.939  12.225  0.00  0.00    +0.000 OA
ATOM     28  N   UNL     1       6.203   2.472  12.545  0.00  0.00    +0.000 N 
ATOM     29  H   UNL     1       7.064   2.300  13.051  0.00  0.00    +0.000 HD
BRANCH  28  30
ATOM     30  C   UNL     1       5.964   1.754  11.329  0.00  0.00    +0.000 C 
ATOM     31  C   UNL     1       7.090   1.215  10.490  0.00  0.00    +0.000 C 
ATOM     32  C   UNL     1       6.212   0.273  11.263  0.00  0.00    +0.000 C 
ENDBRANCH  28  30
ENDBRANCH  23  26
ENDBRANCH   1  25
TORSDOF 4
ENDMDL
MODEL 9
REMARK VINA RESULT:      -7.9      3.209     10.053
REMARK  Name = 
REMARK  5 active torsions:
REMARK  status: ('A' for Active; 'I' for Inactive)
REMARK    1  A    between atoms: C_1  and  C_2
REMARK    2  A    between atoms: C_5  and  C_6
REMARK    3  A    between atoms: N_8  and  C_9
REMARK    4  A    between atoms: C_13  and  N_14
REMARK    5  A    between atoms: N_14  and  C_15
REMARK                            x       y       z     vdW  Elec       q    Type
REMARK                         _______ _______ _______ _____ _____    ______ ____
ROOT
ATOM      1  N   UNL     1      -0.237  10.897  18.927  0.00  0.00    +0.000 N 
ATOM      2  H   UNL     1       0.363  11.600  18.498  0.00  0.00    +0.000 HD
ENDROOT
BRANCH   1   3
ATOM      3  C   UNL     1      -1.506  10.846  18.279  0.00  0.00    +0.000 A 
ATOM      4  N   UNL     1      -1.590  10.125  17.129  0.00  0.00    +0.000 NA
ATOM      5  C   UNL     1      -2.772  10.080  16.522  0.00  0.00    +0.000 A 
ATOM      6  N   UNL     1      -3.874  10.695  16.943  0.00  0.00    +0.000 NA
ATOM      7  C   UNL     1      -3.755  11.394  18.088  0.00  0.00    +0.000 A 
ATOM      8  C   UNL     1      -4.825  12.073  18.609  0.00  0.00    +0.000 A 
ATOM      9  N   UNL     1      -4.809  12.802  19.744  0.00  0.00    +0.000 NA
ATOM     10  C   UNL     1      -3.656  12.876  20.420  0.00  0.00    +0.000 A 
ATOM     11  N   UNL     1      -3.633  13.602  21.575  0.00  0.00    +0.000 N 
ATOM     12  C   UNL     1      -4.826  14.275  22.092  0.00  0.00    +0.000 C 
ATOM     13  C   UNL     1      -4.562  15.782  22.240  0.00  0.00    +0.000 C 
ATOM     14  O   UNL     1      -3.375  16.040  23.009  0.00  0.00    +0.000 OA
ATOM     15  C   UNL     1      -2.231  15.438  22.379  0.00  0.00    +0.000 C 
ATOM     16  C   UNL     1      -2.387  13.912  22.271  0.00  0.00    +0.000 C 
ATOM     17  N   UNL     1      -2.540  12.259  19.992  0.00  0.00    +0.000 NA
ATOM     18  C   UNL     1      -2.599  11.521  18.845  0.00  0.00    +0.000 A 
ENDBRANCH   1   3
BRANCH   1  25
ATOM     19  C   UNL     1      -0.376  10.191  21.798  0.00  0.00    +0.000 C 
ATOM     20  C   UNL     1       0.442   9.430  20.790  0.00  0.00    +0.000 A 
ATOM     21  C   UNL     1       1.194   8.334  21.250  0.00  0.00    +0.000 A 
ATOM     22  C   UNL     1       1.978   7.584  20.376  0.00  0.00    +0.000 A 
ATOM     23  C   UNL     1       2.027   7.917  19.023  0.00  0.00    +0.000 A 
ATOM     24  C   UNL     1       1.298   9.014  18.556  0.00  0.00    +0.000 A 
ATOM     25  C   UNL     1       0.489   9.781  19.422  0.00  0.00    +0.000 A 
BRANCH  23  26
ATOM     26  C   UNL     1       2.910   7.110  18.141  0.00  0.00    +0.000 C 
ATOM     27  O   UNL     1       3.762   7.681  17.459  0.00  0.00    +0.000 OA
ATOM     28  N   UNL     1       2.753   5.737  18.167  0.00  0.00    +0.000 N 
ATOM     29  H   UNL     1       2.141   5.320  18.859  0.00  0.00    +0.000 HD
BRANCH  28  30
ATOM     30  C   UNL     1       3.626   4.883  17.419  0.00  0.00    +0.000 C 
ATOM     31  C   UNL     1       4.559   3.915  18.093  0.00  0.00    +0.000 C 
ATOM     32  C   UNL     1       3.360   3.405  17.346  0.00  0.00    +0.000 C 
ENDBRANCH  28  30
ENDBRANCH  23  26
ENDBRANCH   1  25
TORSDOF 4
ENDMDL
