MODEL 1
REMARK VINA RESULT:      -6.3      0.000      0.000
REMARK  Name = 
REMARK  8 active torsions:
REMARK  status: ('A' for Active; 'I' for Inactive)
REMARK    1  A    between atoms: C_1  and  O_2
REMARK    2  A    between atoms: O_2  and  C_3
REMARK    3  A    between atoms: C_5  and  C_6
REMARK    4  A    between atoms: C_7  and  C_8
REMARK    5  A    between atoms: C_10  and  N_11
REMARK    6  A    between atoms: C_17  and  N_18
REMARK    7  A    between atoms: C_19  and  N_20
REMARK    8  A    between atoms: C_24  and  O_25
REMARK                            x       y       z     vdW  Elec       q    Type
REMARK                         _______ _______ _______ _____ _____    ______ ____
ROOT
ATOM      1  C   UNL     1      -0.003  11.498  18.489  0.00  0.00    +0.000 C 
ATOM      2  C   UNL     1       0.321  12.785  19.201  0.00  0.00    +0.000 C 
ATOM      3  C   UNL     1      -0.647  13.573  19.712  0.00  0.00    +0.000 C 
ATOM      4  O   UNL     1      -1.998  13.246  19.621  0.00  0.00    +0.000 OA
ATOM      5  C   UNL     1      -2.406  12.155  18.878  0.00  0.00    +0.000 A 
ATOM      6  C   UNL     1      -1.486  11.296  18.275  0.00  0.00    +0.000 A 
ATOM      7  C   UNL     1      -1.952  10.225  17.503  0.00  0.00    +0.000 A 
ATOM      8  C   UNL     1      -3.317   9.998  17.361  0.00  0.00    +0.000 A 
ATOM      9  C   UNL     1      -4.251  10.811  18.010  0.00  0.00    +0.000 A 
ATOM     10  C   UNL     1      -3.796  11.913  18.775  0.00  0.00    +0.000 A 
ENDROOT
BRANCH   1  13
ATOM     11  C   UNL     1       0.709   8.806  21.150  0.00  0.00    +0.000 A 
ATOM     12  C   UNL     1       0.230   9.960  20.518  0.00  0.00    +0.000 A 
ATOM     13  C   UNL     1       0.593  10.279  19.198  0.00  0.00    +0.000 A 
ATOM     14  C   UNL     1       1.443   9.411  18.502  0.00  0.00    +0.000 A 
ATOM     15  C   UNL     1       1.909   8.251  19.119  0.00  0.00    +0.000 A 
ATOM     16 BR   UNL     1       3.000   7.070  18.109  0.00  0.00    +0.000 Br
ATOM     17  C   UNL     1       1.548   7.943  20.439  0.00  0.00    +0.000 A 
BRANCH  11  19
ATOM     18  C   UNL     1      -0.277   9.789  23.072  0.00  0.00    +0.000 C 
ATOM     19  O   UNL     1       0.210   8.628  22.412  0.00  0.00    +0.000 OA
ENDBRANCH  11  19
BRANCH  17  20
ATOM     20  O   UNL     1       1.987   6.774  21.003  0.00  0.00    +0.000 OA
ATOM     21  H   UNL     1       2.926   6.667  20.765  0.00  0.00    +0.000 HD
ENDBRANCH  17  20
ENDBRANCH   1  13
BRANCH   3  22
ATOM     22  N   UNL     1      -0.422  14.756  20.383  0.00  0.00    +0.000 N 
ATOM     23  H   UNL     1      -0.702  15.606  19.893  0.00  0.00    +0.000 HD
ATOM     24  H   UNL     1       0.522  14.808  20.760  0.00  0.00    +0.000 HD
ENDBRANCH   3  22
BRANCH   9  25
ATOM     25  N   UNL     1      -5.612  10.628  17.701  0.00  0.00    +0.000 N 
ATOM     26  H   UNL     1      -5.778  10.279  16.763  0.00  0.00    +0.000 HD
ATOM     27  H   UNL     1      -6.141  10.130  18.404  0.00  0.00    +0.000 HD
ENDBRANCH   9  25
BRANCH  10  28
ATOM     28  N   UNL     1      -4.715  12.870  19.267  0.00  0.00    +0.000 N 
ATOM     29  H   UNL     1      -4.528  13.813  18.962  0.00  0.00    +0.000 HD
ATOM     30  H   UNL     1      -5.680  12.586  19.123  0.00  0.00    +0.000 HD
ENDBRANCH  10  28
BRANCH   2  31
ATOM     31  C   UNL     1       1.699  13.150  19.296  0.00  0.00    +0.000 C 
ATOM     32  N   UNL     1       2.811  13.467  19.378  0.00  0.00    +0.000 NA
ENDBRANCH   2  31
TORSDOF 7
ENDMDL
MODEL 2
REMARK VINA RESULT:      -6.0      5.793      8.175
REMARK  Name = 
REMARK  8 active torsions:
REMARK  status: ('A' for Active; 'I' for Inactive)
REMARK    1  A    between atoms: C_1  and  O_2
REMARK    2  A    between atoms: O_2  and  C_3
REMARK    3  A    between atoms: C_5  and  C_6
REMARK    4  A    between atoms: C_7  and  C_8
REMARK    5  A    between atoms: C_10  and  N_11
REMARK    6  A    between atoms: C_17  and  N_18
REMARK    7  A    between atoms: C_19  and  N_20
REMARK    8  A    between atoms: C_24  and  O_25
REMARK                            x       y       z     vdW  Elec       q    Type
REMARK                         _______ _______ _______ _____ _____    ______ ____
ROOT
ATOM      1  C   UNL     1       2.735   5.895  17.605  0.00  0.00    +0.000 C 
ATOM      2  C   UNL     1       2.503   7.019  18.580  0.00  0.00    +0.000 C 
ATOM      3  C   UNL     1       2.198   6.782  19.873  0.00  0.00    +0.000 C 
ATOM      4  O   UNL     1       2.085   5.492  20.387  0.00  0.00    +0.000 OA
ATOM      5  C   UNL     1       2.153   4.396  19.548  0.00  0.00    +0.000 A 
ATOM      6  C   UNL     1       2.426   4.534  18.186  0.00  0.00    +0.000 A 
ATOM      7  C   UNL     1       2.448   3.393  17.372  0.00  0.00    +0.000 A 
ATOM      8  C   UNL     1       2.231   2.132  17.918  0.00  0.00    +0.000 A 
ATOM      9  C   UNL     1       2.019   1.970  19.291  0.00  0.00    +0.000 A 
ATOM     10  C   UNL     1       1.969   3.116  20.122  0.00  0.00    +0.000 A 
ENDROOT
BRANCH   1  13
ATOM     11  C   UNL     1       6.518   6.514  17.237  0.00  0.00    +0.000 A 
ATOM     12  C   UNL     1       5.202   6.559  17.710  0.00  0.00    +0.000 A 
ATOM     13  C   UNL     1       4.155   5.908  17.034  0.00  0.00    +0.000 A 
ATOM     14  C   UNL     1       4.447   5.189  15.868  0.00  0.00    +0.000 A 
ATOM     15  C   UNL     1       5.760   5.125  15.402  0.00  0.00    +0.000 A 
ATOM     16 BR   UNL     1       6.116   4.077  13.859  0.00  0.00    +0.000 Br
ATOM     17  C   UNL     1       6.797   5.782  16.079  0.00  0.00    +0.000 A 
BRANCH  11  19
ATOM     18  C   UNL     1       7.788   8.473  17.665  0.00  0.00    +0.000 C 
ATOM     19  O   UNL     1       7.413   7.157  18.050  0.00  0.00    +0.000 OA
ENDBRANCH  11  19
BRANCH  17  20
ATOM     20  O   UNL     1       8.083   5.664  15.619  0.00  0.00    +0.000 OA
ATOM     21  H   UNL     1       8.599   5.203  16.304  0.00  0.00    +0.000 HD
ENDBRANCH  17  20
ENDBRANCH   1  13
BRANCH   3  22
ATOM     22  N   UNL     1       1.982   7.760  20.820  0.00  0.00    +0.000 N 
ATOM     23  H   UNL     1       2.145   7.486  21.788  0.00  0.00    +0.000 HD
ATOM     24  H   UNL     1       1.092   8.234  20.684  0.00  0.00    +0.000 HD
ENDBRANCH   3  22
BRANCH   9  25
ATOM     25  N   UNL     1       1.650   0.694  19.755  0.00  0.00    +0.000 N 
ATOM     26  H   UNL     1       0.826   0.694  20.347  0.00  0.00    +0.000 HD
ATOM     27  H   UNL     1       1.624  -0.022  19.043  0.00  0.00    +0.000 HD
ENDBRANCH   9  25
BRANCH  10  28
ATOM     28  N   UNL     1       1.551   3.004  21.470  0.00  0.00    +0.000 N 
ATOM     29  H   UNL     1       0.550   3.019  21.591  0.00  0.00    +0.000 HD
ATOM     30  H   UNL     1       2.001   2.229  21.949  0.00  0.00    +0.000 HD
ENDBRANCH  10  28
BRANCH   2  31
ATOM     31  C   UNL     1       2.599   8.352  18.076  0.00  0.00    +0.000 C 
ATOM     32  N   UNL     1       2.660   9.430  17.655  0.00  0.00    +0.000 NA
ENDBRANCH   2  31
TORSDOF 7
ENDMDL
MODEL 3
REMARK VINA RESULT:      -5.9      3.352      6.128
REMARK  Name = 
REMARK  8 active torsions:
REMARK  status: ('A' for Active; 'I' for Inactive)
REMARK    1  A    between atoms: C_1  and  O_2
REMARK    2  A    between atoms: O_2  and  C_3
REMARK    3  A    between atoms: C_5  and  C_6
REMARK    4  A    between atoms: C_7  and  C_8
REMARK    5  A    between atoms: C_10  and  N_11
REMARK    6  A    between atoms: C_17  and  N_18
REMARK    7  A    between atoms: C_19  and  N_20
REMARK    8  A    between atoms: C_24  and  O_25
REMARK                            x       y       z     vdW  Elec       q    Type
REMARK                         _______ _______ _______ _____ _____    ______ ____
ROOT
ATOM      1  C   UNL     1      -0.266  11.194  20.114  0.00  0.00    +0.000 C 
ATOM      2  C   UNL     1      -0.714  10.956  21.532  0.00  0.00    +0.000 C 
ATOM      3  C   UNL     1      -0.270   9.900  22.245  0.00  0.00    +0.000 C 
ATOM      4  O   UNL     1       0.630   8.974  21.723  0.00  0.00    +0.000 OA
ATOM      5  C   UNL     1       1.001   9.032  20.393  0.00  0.00    +0.000 A 
ATOM      6  C   UNL     1       0.567  10.063  19.557  0.00  0.00    +0.000 A 
ATOM      7  C   UNL     1       0.943  10.055  18.208  0.00  0.00    +0.000 A 
ATOM      8  C   UNL     1       1.766   9.050  17.709  0.00  0.00    +0.000 A 
ATOM      9  C   UNL     1       2.261   8.046  18.547  0.00  0.00    +0.000 A 
ATOM     10  C   UNL     1       1.870   8.026  19.908  0.00  0.00    +0.000 A 
ENDROOT
BRANCH   1  13
ATOM     11  C   UNL     1       0.568  14.832  19.161  0.00  0.00    +0.000 A 
ATOM     12  C   UNL     1      -0.076  13.591  19.244  0.00  0.00    +0.000 A 
ATOM     13  C   UNL     1       0.485  12.519  19.960  0.00  0.00    +0.000 A 
ATOM     14  C   UNL     1       1.709  12.709  20.613  0.00  0.00    +0.000 A 
ATOM     15  C   UNL     1       2.346  13.949  20.549  0.00  0.00    +0.000 A 
ATOM     16 BR   UNL     1       3.966  14.178  21.512  0.00  0.00    +0.000 Br
ATOM     17  C   UNL     1       1.783  15.010  19.827  0.00  0.00    +0.000 A 
BRANCH  11  19
ATOM     18  C   UNL     1      -0.934  16.668  19.245  0.00  0.00    +0.000 C 
ATOM     19  O   UNL     1      -0.148  15.772  18.470  0.00  0.00    +0.000 OA
ENDBRANCH  11  19
BRANCH  17  20
ATOM     20  O   UNL     1       2.412  16.228  19.820  0.00  0.00    +0.000 OA
ATOM     21  H   UNL     1       2.281  16.633  20.696  0.00  0.00    +0.000 HD
ENDBRANCH  17  20
ENDBRANCH   1  13
BRANCH   3  22
ATOM     22  N   UNL     1      -0.630   9.627  23.548  0.00  0.00    +0.000 N 
ATOM     23  H   UNL     1      -0.554   8.652  23.835  0.00  0.00    +0.000 HD
ATOM     24  H   UNL     1      -1.524  10.046  23.792  0.00  0.00    +0.000 HD
ENDBRANCH   3  22
BRANCH   9  25
ATOM     25  N   UNL     1       2.955   6.976  17.954  0.00  0.00    +0.000 N 
ATOM     26  H   UNL     1       2.406   6.127  17.867  0.00  0.00    +0.000 HD
ATOM     27  H   UNL     1       3.449   7.212  17.105  0.00  0.00    +0.000 HD
ENDBRANCH   9  25
BRANCH  10  28
ATOM     28  N   UNL     1       2.182   6.914  20.726  0.00  0.00    +0.000 N 
ATOM     29  H   UNL     1       1.493   6.178  20.698  0.00  0.00    +0.000 HD
ATOM     30  H   UNL     1       3.131   6.581  20.575  0.00  0.00    +0.000 HD
ENDBRANCH  10  28
BRANCH   2  31
ATOM     31  C   UNL     1      -1.647  11.884  22.088  0.00  0.00    +0.000 C 
ATOM     32  N   UNL     1      -2.400  12.649  22.523  0.00  0.00    +0.000 NA
ENDBRANCH   2  31
TORSDOF 7
ENDMDL
MODEL 4
REMARK VINA RESULT:      -5.8      3.725      6.126
REMARK  Name = 
REMARK  8 active torsions:
REMARK  status: ('A' for Active; 'I' for Inactive)
REMARK    1  A    between atoms: C_1  and  O_2
REMARK    2  A    between atoms: O_2  and  C_3
REMARK    3  A    between atoms: C_5  and  C_6
REMARK    4  A    between atoms: C_7  and  C_8
REMARK    5  A    between atoms: C_10  and  N_11
REMARK    6  A    between atoms: C_17  and  N_18
REMARK    7  A    between atoms: C_19  and  N_20
REMARK    8  A    between atoms: C_24  and  O_25
REMARK                            x       y       z     vdW  Elec       q    Type
REMARK                         _______ _______ _______ _____ _____    ______ ____
ROOT
ATOM      1  C   UNL     1      -0.252  11.191  20.462  0.00  0.00    +0.000 C 
ATOM      2  C   UNL     1      -0.579  10.845  21.891  0.00  0.00    +0.000 C 
ATOM      3  C   UNL     1      -0.062   9.751  22.488  0.00  0.00    +0.000 C 
ATOM      4  O   UNL     1       0.807   8.883  21.830  0.00  0.00    +0.000 OA
ATOM      5  C   UNL     1       1.067   9.042  20.482  0.00  0.00    +0.000 A 
ATOM      6  C   UNL     1       0.550  10.119  19.760  0.00  0.00    +0.000 A 
ATOM      7  C   UNL     1       0.814  10.214  18.388  0.00  0.00    +0.000 A 
ATOM      8  C   UNL     1       1.609   9.265  17.754  0.00  0.00    +0.000 A 
ATOM      9  C   UNL     1       2.187   8.215  18.475  0.00  0.00    +0.000 A 
ATOM     10  C   UNL     1       1.908   8.092  19.859  0.00  0.00    +0.000 A 
ENDROOT
BRANCH   1  13
ATOM     11  C   UNL     1       2.481  13.901  20.599  0.00  0.00    +0.000 A 
ATOM     12  C   UNL     1       1.793  12.695  20.772  0.00  0.00    +0.000 A 
ATOM     13  C   UNL     1       0.463  12.539  20.343  0.00  0.00    +0.000 A 
ATOM     14  C   UNL     1      -0.176  13.618  19.718  0.00  0.00    +0.000 A 
ATOM     15  C   UNL     1       0.511  14.816  19.526  0.00  0.00    +0.000 A 
ATOM     16 BR   UNL     1      -0.373  16.223  18.607  0.00  0.00    +0.000 Br
ATOM     17  C   UNL     1       1.835  14.965  19.963  0.00  0.00    +0.000 A 
BRANCH  11  19
ATOM     18  C   UNL     1       4.086  14.576  22.214  0.00  0.00    +0.000 C 
ATOM     19  O   UNL     1       3.781  13.854  21.027  0.00  0.00    +0.000 OA
ENDBRANCH  11  19
BRANCH  17  20
ATOM     20  O   UNL     1       2.497  16.140  19.721  0.00  0.00    +0.000 OA
ATOM     21  H   UNL     1       2.688  16.179  18.767  0.00  0.00    +0.000 HD
ENDBRANCH  17  20
ENDBRANCH   1  13
BRANCH   3  22
ATOM     22  N   UNL     1      -0.310   9.380  23.793  0.00  0.00    +0.000 N 
ATOM     23  H   UNL     1      -1.250   9.035  23.986  0.00  0.00    +0.000 HD
ATOM     24  H   UNL     1      -0.001  10.087  24.456  0.00  0.00    +0.000 HD
ENDBRANCH   3  22
BRANCH   9  25
ATOM     25  N   UNL     1       2.847   7.204  17.753  0.00  0.00    +0.000 N 
ATOM     26  H   UNL     1       3.125   6.409  18.319  0.00  0.00    +0.000 HD
ATOM     27  H   UNL     1       2.390   6.934  16.893  0.00  0.00    +0.000 HD
ENDBRANCH   9  25
BRANCH  10  28
ATOM     28  N   UNL     1       2.304   6.932  20.567  0.00  0.00    +0.000 N 
ATOM     29  H   UNL     1       2.552   6.154  19.975  0.00  0.00    +0.000 HD
ATOM     30  H   UNL     1       3.004   7.134  21.276  0.00  0.00    +0.000 HD
ENDBRANCH  10  28
BRANCH   2  31
ATOM     31  C   UNL     1      -1.478  11.711  22.585  0.00  0.00    +0.000 C 
ATOM     32  N   UNL     1      -2.223  12.399  23.145  0.00  0.00    +0.000 NA
ENDBRANCH   2  31
TORSDOF 7
ENDMDL
MODEL 5
REMARK VINA RESULT:      -5.7      3.529      4.825
REMARK  Name = 
REMARK  8 active torsions:
REMARK  status: ('A' for Active; 'I' for Inactive)
REMARK    1  A    between atoms: C_1  and  O_2
REMARK    2  A    between atoms: O_2  and  C_3
REMARK    3  A    between atoms: C_5  and  C_6
REMARK    4  A    between atoms: C_7  and  C_8
REMARK    5  A    between atoms: C_10  and  N_11
REMARK    6  A    between atoms: C_17  and  N_18
REMARK    7  A    between atoms: C_19  and  N_20
REMARK    8  A    between atoms: C_24  and  O_25
REMARK                            x       y       z     vdW  Elec       q    Type
REMARK                         _______ _______ _______ _____ _____    ______ ____
ROOT
ATOM      1  C   UNL     1      -3.974  13.802  21.031  0.00  0.00    +0.000 C 
ATOM      2  C   UNL     1      -4.445  14.387  22.336  0.00  0.00    +0.000 C 
ATOM      3  C   UNL     1      -5.508  13.882  22.995  0.00  0.00    +0.000 C 
ATOM      4  O   UNL     1      -6.229  12.789  22.518  0.00  0.00    +0.000 OA
ATOM      5  C   UNL     1      -5.957  12.262  21.270  0.00  0.00    +0.000 A 
ATOM      6  C   UNL     1      -4.902  12.739  20.490  0.00  0.00    +0.000 A 
ATOM      7  C   UNL     1      -4.691  12.194  19.216  0.00  0.00    +0.000 A 
ATOM      8  C   UNL     1      -5.502  11.167  18.743  0.00  0.00    +0.000 A 
ATOM      9  C   UNL     1      -6.523  10.636  19.537  0.00  0.00    +0.000 A 
ATOM     10  C   UNL     1      -6.764  11.193  20.817  0.00  0.00    +0.000 A 
ENDROOT
BRANCH   1  13
ATOM     11  C   UNL     1      -0.882  11.857  22.254  0.00  0.00    +0.000 A 
ATOM     12  C   UNL     1      -2.159  12.428  22.197  0.00  0.00    +0.000 A 
ATOM     13  C   UNL     1      -2.549  13.251  21.126  0.00  0.00    +0.000 A 
ATOM     14  C   UNL     1      -1.636  13.491  20.091  0.00  0.00    +0.000 A 
ATOM     15  C   UNL     1      -0.369  12.910  20.133  0.00  0.00    +0.000 A 
ATOM     16 BR   UNL     1       0.805  13.205  18.671  0.00  0.00    +0.000 Br
ATOM     17  C   UNL     1       0.014  12.096  21.208  0.00  0.00    +0.000 A 
BRANCH  11  19
ATOM     18  C   UNL     1      -0.591   9.650  23.076  0.00  0.00    +0.000 C 
ATOM     19  O   UNL     1      -0.697  11.043  23.339  0.00  0.00    +0.000 OA
ENDBRANCH  11  19
BRANCH  17  20
ATOM     20  O   UNL     1       1.250  11.505  21.199  0.00  0.00    +0.000 OA
ATOM     21  H   UNL     1       1.233  10.777  21.846  0.00  0.00    +0.000 HD
ENDBRANCH  17  20
ENDBRANCH   1  13
BRANCH   3  22
ATOM     22  N   UNL     1      -5.987  14.361  24.196  0.00  0.00    +0.000 N 
ATOM     23  H   UNL     1      -6.690  13.783  24.658  0.00  0.00    +0.000 HD
ATOM     24  H   UNL     1      -6.255  15.341  24.136  0.00  0.00    +0.000 HD
ENDBRANCH   3  22
BRANCH   9  25
ATOM     25  N   UNL     1      -7.405   9.713  18.946  0.00  0.00    +0.000 N 
ATOM     26  H   UNL     1      -7.393   8.795  19.379  0.00  0.00    +0.000 HD
ATOM     27  H   UNL     1      -8.341  10.062  18.793  0.00  0.00    +0.000 HD
ENDBRANCH   9  25
BRANCH  10  28
ATOM     28  N   UNL     1      -7.915  10.820  21.554  0.00  0.00    +0.000 N 
ATOM     29  H   UNL     1      -7.723  10.213  22.335  0.00  0.00    +0.000 HD
ATOM     30  H   UNL     1      -8.489  11.622  21.801  0.00  0.00    +0.000 HD
ENDBRANCH  10  28
BRANCH   2  31
ATOM     31  C   UNL     1      -3.732  15.518  22.841  0.00  0.00    +0.000 C 
ATOM     32  N   UNL     1      -3.137  16.421  23.256  0.00  0.00    +0.000 NA
ENDBRANCH   2  31
TORSDOF 7
ENDMDL
MODEL 6
REMARK VINA RESULT:      -5.6      5.923      8.395
REMARK  Name = 
REMARK  8 active torsions:
REMARK  status: ('A' for Active; 'I' for Inactive)
REMARK    1  A    between atoms: C_1  and  O_2
REMARK    2  A    between atoms: O_2  and  C_3
REMARK    3  A    between atoms: C_5  and  C_6
REMARK    4  A    between atoms: C_7  and  C_8
REMARK    5  A    between atoms: C_10  and  N_11
REMARK    6  A    between atoms: C_17  and  N_18
REMARK    7  A    between atoms: C_19  and  N_20
REMARK    8  A    between atoms: C_24  and  O_25
REMARK                            x       y       z     vdW  Elec       q    Type
REMARK                         _______ _______ _______ _____ _____    ______ ____
ROOT
ATOM      1  C   UNL     1       2.727   5.813  17.618  0.00  0.00    +0.000 C 
ATOM      2  C   UNL     1       2.476   6.962  18.559  0.00  0.00    +0.000 C 
ATOM      3  C   UNL     1       2.071   6.759  19.830  0.00  0.00    +0.000 C 
ATOM      4  O   UNL     1       1.868   5.483  20.352  0.00  0.00    +0.000 OA
ATOM      5  C   UNL     1       1.948   4.372  19.535  0.00  0.00    +0.000 A 
ATOM      6  C   UNL     1       2.321   4.476  18.194  0.00  0.00    +0.000 A 
ATOM      7  C   UNL     1       2.352   3.322  17.399  0.00  0.00    +0.000 A 
ATOM      8  C   UNL     1       2.044   2.080  17.945  0.00  0.00    +0.000 A 
ATOM      9  C   UNL     1       1.730   1.950  19.301  0.00  0.00    +0.000 A 
ATOM     10  C   UNL     1       1.671   3.110  20.112  0.00  0.00    +0.000 A 
ENDROOT
BRANCH   1  13
ATOM     11  C   UNL     1       5.928   4.755  15.754  0.00  0.00    +0.000 A 
ATOM     12  C   UNL     1       4.618   4.770  16.249  0.00  0.00    +0.000 A 
ATOM     13  C   UNL     1       4.183   5.759  17.149  0.00  0.00    +0.000 A 
ATOM     14  C   UNL     1       5.084   6.756  17.544  0.00  0.00    +0.000 A 
ATOM     15  C   UNL     1       6.384   6.758  17.040  0.00  0.00    +0.000 A 
ATOM     16 BR   UNL     1       7.543   8.173  17.548  0.00  0.00    +0.000 Br
ATOM     17  C   UNL     1       6.812   5.764  16.148  0.00  0.00    +0.000 A 
BRANCH  11  19
ATOM     18  C   UNL     1       5.957   4.077  13.479  0.00  0.00    +0.000 C 
ATOM     19  O   UNL     1       6.158   3.754  14.850  0.00  0.00    +0.000 OA
ENDBRANCH  11  19
BRANCH  17  20
ATOM     20  O   UNL     1       8.082   5.818  15.637  0.00  0.00    +0.000 OA
ATOM     21  H   UNL     1       8.087   6.490  14.932  0.00  0.00    +0.000 HD
ENDBRANCH  17  20
ENDBRANCH   1  13
BRANCH   3  22
ATOM     22  N   UNL     1       1.833   7.761  20.746  0.00  0.00    +0.000 N 
ATOM     23  H   UNL     1       1.450   8.628  20.369  0.00  0.00    +0.000 HD
ATOM     24  H   UNL     1       2.628   7.912  21.363  0.00  0.00    +0.000 HD
ENDBRANCH   3  22
BRANCH   9  25
ATOM     25  N   UNL     1       1.276   0.698  19.756  0.00  0.00    +0.000 N 
ATOM     26  H   UNL     1       0.571   0.276  19.161  0.00  0.00    +0.000 HD
ATOM     27  H   UNL     1       2.008   0.053  20.016  0.00  0.00    +0.000 HD
ENDBRANCH   9  25
BRANCH  10  28
ATOM     28  N   UNL     1       1.155   3.038  21.428  0.00  0.00    +0.000 N 
ATOM     29  H   UNL     1       0.703   3.884  21.739  0.00  0.00    +0.000 HD
ATOM     30  H   UNL     1       0.591   2.205  21.575  0.00  0.00    +0.000 HD
ENDBRANCH  10  28
BRANCH   2  31
ATOM     31  C   UNL     1       2.664   8.282  18.045  0.00  0.00    +0.000 C 
ATOM     32  N   UNL     1       2.796   9.352  17.621  0.00  0.00    +0.000 NA
ENDBRANCH   2  31
TORSDOF 7
ENDMDL
MODEL 7
REMARK VINA RESULT:      -5.5      3.927      5.881
REMARK  Name = 
REMARK  8 active torsions:
REMARK  status: ('A' for Active; 'I' for Inactive)
REMARK    1  A    between atoms: C_1  and  O_2
REMARK    2  A    between atoms: O_2  and  C_3
REMARK    3  A    between atoms: C_5  and  C_6
REMARK    4  A    between atoms: C_7  and  C_8
REMARK    5  A    between atoms: C_10  and  N_11
REMARK    6  A    between atoms: C_17  and  N_18
REMARK    7  A    between atoms: C_19  and  N_20
REMARK    8  A    between atoms: C_24  and  O_25
REMARK                            x       y       z     vdW  Elec       q    Type
REMARK                         _______ _______ _______ _____ _____    ______ ____
ROOT
ATOM      1  C   UNL     1      -0.025  12.851  21.771  0.00  0.00    +0.000 C 
ATOM      2  C   UNL     1       0.510  14.251  21.619  0.00  0.00    +0.000 C 
ATOM      3  C   UNL     1       1.247  14.613  20.549  0.00  0.00    +0.000 C 
ATOM      4  O   UNL     1       1.551  13.726  19.519  0.00  0.00    +0.000 OA
ATOM      5  C   UNL     1       1.216  12.390  19.625  0.00  0.00    +0.000 A 
ATOM      6  C   UNL     1       0.487  11.903  20.711  0.00  0.00    +0.000 A 
ATOM      7  C   UNL     1       0.205  10.533  20.788  0.00  0.00    +0.000 A 
ATOM      8  C   UNL     1       0.618   9.668  19.779  0.00  0.00    +0.000 A 
ATOM      9  C   UNL     1       1.293  10.150  18.653  0.00  0.00    +0.000 A 
ATOM     10  C   UNL     1       1.608  11.529  18.573  0.00  0.00    +0.000 A 
ENDROOT
BRANCH   1  13
ATOM     11  C   UNL     1      -3.701  12.663  20.636  0.00  0.00    +0.000 A 
ATOM     12  C   UNL     1      -2.305  12.770  20.616  0.00  0.00    +0.000 A 
ATOM     13  C   UNL     1      -1.555  12.818  21.804  0.00  0.00    +0.000 A 
ATOM     14  C   UNL     1      -2.226  12.743  23.031  0.00  0.00    +0.000 A 
ATOM     15  C   UNL     1      -3.615  12.617  23.057  0.00  0.00    +0.000 A 
ATOM     16 BR   UNL     1      -4.472  12.445  24.743  0.00  0.00    +0.000 Br
ATOM     17  C   UNL     1      -4.356  12.577  21.868  0.00  0.00    +0.000 A 
BRANCH  11  19
ATOM     18  C   UNL     1      -3.660  11.653  18.488  0.00  0.00    +0.000 C 
ATOM     19  O   UNL     1      -4.259  12.575  19.389  0.00  0.00    +0.000 OA
ENDBRANCH  11  19
BRANCH  17  20
ATOM     20  O   UNL     1      -5.715  12.410  21.926  0.00  0.00    +0.000 OA
ATOM     21  H   UNL     1      -6.121  13.295  21.938  0.00  0.00    +0.000 HD
ENDBRANCH  17  20
ENDBRANCH   1  13
BRANCH   3  22
ATOM     22  N   UNL     1       1.759  15.877  20.342  0.00  0.00    +0.000 N 
ATOM     23  H   UNL     1       2.041  16.091  19.385  0.00  0.00    +0.000 HD
ATOM     24  H   UNL     1       2.469  16.118  21.030  0.00  0.00    +0.000 HD
ENDBRANCH   3  22
BRANCH   9  25
ATOM     25  N   UNL     1       1.820   9.210  17.748  0.00  0.00    +0.000 N 
ATOM     26  H   UNL     1       2.142   8.353  18.187  0.00  0.00    +0.000 HD
ATOM     27  H   UNL     1       1.249   9.043  16.932  0.00  0.00    +0.000 HD
ENDBRANCH   9  25
BRANCH  10  28
ATOM     28  N   UNL     1       2.467  12.008  17.555  0.00  0.00    +0.000 N 
ATOM     29  H   UNL     1       3.343  12.373  17.896  0.00  0.00    +0.000 HD
ATOM     30  H   UNL     1       2.579  11.337  16.799  0.00  0.00    +0.000 HD
ENDBRANCH  10  28
BRANCH   2  31
ATOM     31  C   UNL     1       0.224  15.177  22.668  0.00  0.00    +0.000 C 
ATOM     32  N   UNL     1      -0.016  15.913  23.531  0.00  0.00    +0.000 NA
ENDBRANCH   2  31
TORSDOF 7
ENDMDL
MODEL 8
REMARK VINA RESULT:      -5.5      3.133      5.648
REMARK  Name = 
REMARK  8 active torsions:
REMARK  status: ('A' for Active; 'I' for Inactive)
REMARK    1  A    between atoms: C_1  and  O_2
REMARK    2  A    between atoms: O_2  and  C_3
REMARK    3  A    between atoms: C_5  and  C_6
REMARK    4  A    between atoms: C_7  and  C_8
REMARK    5  A    between atoms: C_10  and  N_11
REMARK    6  A    between atoms: C_17  and  N_18
REMARK    7  A    between atoms: C_19  and  N_20
REMARK    8  A    between atoms: C_24  and  O_25
REMARK                            x       y       z     vdW  Elec       q    Type
REMARK                         _______ _______ _______ _____ _____    ______ ____
ROOT
ATOM      1  C   UNL     1      -0.216  12.094  20.244  0.00  0.00    +0.000 C 
ATOM      2  C   UNL     1       0.540  12.843  19.179  0.00  0.00    +0.000 C 
ATOM      3  C   UNL     1       1.441  12.226  18.386  0.00  0.00    +0.000 C 
ATOM      4  O   UNL     1       1.722  10.866  18.496  0.00  0.00    +0.000 OA
ATOM      5  C   UNL     1       1.177  10.120  19.523  0.00  0.00    +0.000 A 
ATOM      6  C   UNL     1       0.263  10.672  20.423  0.00  0.00    +0.000 A 
ATOM      7  C   UNL     1      -0.233   9.881  21.468  0.00  0.00    +0.000 A 
ATOM      8  C   UNL     1       0.156   8.551  21.593  0.00  0.00    +0.000 A 
ATOM      9  C   UNL     1       1.021   7.965  20.664  0.00  0.00    +0.000 A 
ATOM     10  C   UNL     1       1.550   8.758  19.616  0.00  0.00    +0.000 A 
ENDROOT
BRANCH   1  13
ATOM     11  C   UNL     1      -3.985  12.750  20.694  0.00  0.00    +0.000 A 
ATOM     12  C   UNL     1      -2.610  12.663  20.941  0.00  0.00    +0.000 A 
ATOM     13  C   UNL     1      -1.727  12.108  19.998  0.00  0.00    +0.000 A 
ATOM     14  C   UNL     1      -2.242  11.646  18.780  0.00  0.00    +0.000 A 
ATOM     15  C   UNL     1      -3.609  11.748  18.520  0.00  0.00    +0.000 A 
ATOM     16 BR   UNL     1      -4.247  11.176  16.826  0.00  0.00    +0.000 Br
ATOM     17  C   UNL     1      -4.483  12.296  19.469  0.00  0.00    +0.000 A 
BRANCH  11  19
ATOM     18  C   UNL     1      -4.290  13.052  23.029  0.00  0.00    +0.000 C 
ATOM     19  O   UNL     1      -4.682  13.367  21.698  0.00  0.00    +0.000 OA
ENDBRANCH  11  19
BRANCH  17  20
ATOM     20  O   UNL     1      -5.814  12.421  19.167  0.00  0.00    +0.000 OA
ATOM     21  H   UNL     1      -6.315  12.318  19.995  0.00  0.00    +0.000 HD
ENDBRANCH  17  20
ENDBRANCH   1  13
BRANCH   3  22
ATOM     22  N   UNL     1       2.161  12.847  17.387  0.00  0.00    +0.000 N 
ATOM     23  H   UNL     1       1.810  13.755  17.084  0.00  0.00    +0.000 HD
ATOM     24  H   UNL     1       2.358  12.218  16.612  0.00  0.00    +0.000 HD
ENDBRANCH   3  22
BRANCH   9  25
ATOM     25  N   UNL     1       1.498   6.669  20.934  0.00  0.00    +0.000 N 
ATOM     26  H   UNL     1       2.083   6.285  20.199  0.00  0.00    +0.000 HD
ATOM     27  H   UNL     1       1.895   6.549  21.855  0.00  0.00    +0.000 HD
ENDBRANCH   9  25
BRANCH  10  28
ATOM     28  N   UNL     1       2.583   8.255  18.790  0.00  0.00    +0.000 N 
ATOM     29  H   UNL     1       2.895   7.329  19.041  0.00  0.00    +0.000 HD
ATOM     30  H   UNL     1       2.365   8.349  17.802  0.00  0.00    +0.000 HD
ENDBRANCH  10  28
BRANCH   2  31
ATOM     31  C   UNL     1       0.281  14.242  19.054  0.00  0.00    +0.000 C 
ATOM     32  N   UNL     1       0.078  15.380  18.972  0.00  0.00    +0.000 NA
ENDBRANCH   2  31
TORSDOF 7
ENDMDL
MODEL 9
REMARK VINA RESULT:      -5.5      3.465      5.967
REMARK  Name = 
REMARK  8 active torsions:
REMARK  status: ('A' for Active; 'I' for Inactive)
REMARK    1  A    between atoms: C_1  and  O_2
REMARK    2  A    between atoms: O_2  and  C_3
REMARK    3  A    between atoms: C_5  and  C_6
REMARK    4  A    between atoms: C_7  and  C_8
REMARK    5  A    between atoms: C_10  and  N_11
REMARK    6  A    between atoms: C_17  and  N_18
REMARK    7  A    between atoms: C_19  and  N_20
REMARK    8  A    between atoms: C_24  and  O_25
REMARK                            x       y       z     vdW  Elec       q    Type
REMARK                         _______ _______ _______ _____ _____    ______ ____
ROOT
ATOM      1  C   UNL     1      -0.286  12.218  20.115  0.00  0.00    +0.000 C 
ATOM      2  C   UNL     1       0.525  12.932  19.066  0.00  0.00    +0.000 C 
ATOM      3  C   UNL     1       1.456  12.287  18.333  0.00  0.00    +0.000 C 
ATOM      4  O   UNL     1       1.720  10.929  18.493  0.00  0.00    +0.000 OA
ATOM      5  C   UNL     1       1.122  10.215  19.514  0.00  0.00    +0.000 A 
ATOM      6  C   UNL     1       0.172  10.798  20.354  0.00  0.00    +0.000 A 
ATOM      7  C   UNL     1      -0.378  10.040  21.396  0.00  0.00    +0.000 A 
ATOM      8  C   UNL     1      -0.007   8.711  21.576  0.00  0.00    +0.000 A 
ATOM      9  C   UNL     1       0.895   8.094  20.704  0.00  0.00    +0.000 A 
ATOM     10  C   UNL     1       1.478   8.854  19.661  0.00  0.00    +0.000 A 
ENDROOT
BRANCH   1  13
ATOM     11  C   UNL     1      -3.658  11.590  18.362  0.00  0.00    +0.000 A 
ATOM     12  C   UNL     1      -2.284  11.647  18.625  0.00  0.00    +0.000 A 
ATOM     13  C   UNL     1      -1.784  12.237  19.799  0.00  0.00    +0.000 A 
ATOM     14  C   UNL     1      -2.688  12.767  20.728  0.00  0.00    +0.000 A 
ATOM     15  C   UNL     1      -4.059  12.697  20.480  0.00  0.00    +0.000 A 
ATOM     16 BR   UNL     1      -5.247  13.364  21.803  0.00  0.00    +0.000 Br
ATOM     17  C   UNL     1      -4.550  12.113  19.304  0.00  0.00    +0.000 A 
BRANCH  11  19
ATOM     18  C   UNL     1      -2.981  10.962  16.176  0.00  0.00    +0.000 C 
ATOM     19  O   UNL     1      -3.965  10.933  17.202  0.00  0.00    +0.000 OA
ENDBRANCH  11  19
BRANCH  17  20
ATOM     20  O   UNL     1      -5.903  12.022  19.110  0.00  0.00    +0.000 OA
ATOM     21  H   UNL     1      -6.147  12.668  18.424  0.00  0.00    +0.000 HD
ENDBRANCH  17  20
ENDBRANCH   1  13
BRANCH   3  22
ATOM     22  N   UNL     1       2.227  12.874  17.352  0.00  0.00    +0.000 N 
ATOM     23  H   UNL     1       1.834  13.710  16.918  0.00  0.00    +0.000 HD
ATOM     24  H   UNL     1       2.564  12.195  16.674  0.00  0.00    +0.000 HD
ENDBRANCH   3  22
BRANCH   9  25
ATOM     25  N   UNL     1       1.348   6.802  21.031  0.00  0.00    +0.000 N 
ATOM     26  H   UNL     1       1.223   6.558  22.008  0.00  0.00    +0.000 HD
ATOM     27  H   UNL     1       1.039   6.075  20.401  0.00  0.00    +0.000 HD
ENDBRANCH   9  25
BRANCH  10  28
ATOM     28  N   UNL     1       2.544   8.320  18.897  0.00  0.00    +0.000 N 
ATOM     29  H   UNL     1       3.011   8.998  18.315  0.00  0.00    +0.000 HD
ATOM     30  H   UNL     1       3.184   7.769  19.463  0.00  0.00    +0.000 HD
ENDBRANCH  10  28
BRANCH   2  31
ATOM     31  C   UNL     1       0.284  14.329  18.891  0.00  0.00    +0.000 C 
ATOM     32  N   UNL     1       0.071  15.461  18.762  0.00  0.00    +0.000 NA
ENDBRANCH   2  31
TORSDOF 7
ENDMDL
