MODEL 1
REMARK VINA RESULT:      -5.8      0.000      0.000
REMARK  Name = 
REMARK  3 active torsions:
REMARK  status: ('A' for Active; 'I' for Inactive)
REMARK    1  A    between atoms: O_1  and  C_2
REMARK    2  A    between atoms: C_5  and  C_6
REMARK    3  A    between atoms: N_7  and  C_8
REMARK                            x       y       z     vdW  Elec       q    Type
REMARK                         _______ _______ _______ _____ _____    ______ ____
ROOT
ATOM      1  C   UNL     1       6.965   4.995  15.113  0.00  0.00    +0.000 A 
ATOM      2  C   UNL     1       5.631   4.751  14.801  0.00  0.00    +0.000 A 
ATOM      3  C   UNL     1       4.724   4.494  15.831  0.00  0.00    +0.000 A 
ATOM      4  C   UNL     1       5.160   4.486  17.161  0.00  0.00    +0.000 A 
ATOM      5  C   UNL     1       6.502   4.730  17.466  0.00  0.00    +0.000 A 
ATOM      6  C   UNL     1       7.406   4.987  16.433  0.00  0.00    +0.000 A 
ENDROOT
BRANCH   1   7
ATOM      7  O   UNL     1       7.884   5.252  14.138  0.00  0.00    +0.000 OA
ATOM      8  H   UNL     1       7.461   5.788  13.447  0.00  0.00    +0.000 HD
ENDBRANCH   1   7
BRANCH   4   9
ATOM      9  C   UNL     1       4.205   4.230  18.262  0.00  0.00    +0.000 C 
ATOM     10  N   UNL     1       4.049   3.041  18.744  0.00  0.00    +0.000 NA
BRANCH  10  11
ATOM     11  C   UNL     1       3.124   2.917  19.729  0.00  0.00    +0.000 A 
ATOM     12  N   UNL     1       3.304   2.552  20.984  0.00  0.00    +0.000 NA
ATOM     13  C   UNL     1       2.109   2.588  21.675  0.00  0.00    +0.000 A 
ATOM     14  C   UNL     1       1.010   2.974  20.945  0.00  0.00    +0.000 A 
ATOM     15  S   UNL     1       1.480   3.298  19.333  0.00  0.00    +0.000 S 
ENDBRANCH  10  11
ENDBRANCH   4   9
TORSDOF 3
ENDMDL
MODEL 2
REMARK VINA RESULT:      -5.8      0.458      1.334
REMARK  Name = 
REMARK  3 active torsions:
REMARK  status: ('A' for Active; 'I' for Inactive)
REMARK    1  A    between atoms: O_1  and  C_2
REMARK    2  A    between atoms: C_5  and  C_6
REMARK    3  A    between atoms: N_7  and  C_8
REMARK                            x       y       z     vdW  Elec       q    Type
REMARK                         _______ _______ _______ _____ _____    ______ ____
ROOT
ATOM      1  C   UNL     1       7.001   5.110  15.079  0.00  0.00    +0.000 A 
ATOM      2  C   UNL     1       7.177   5.413  16.425  0.00  0.00    +0.000 A 
ATOM      3  C   UNL     1       6.192   5.042  17.343  0.00  0.00    +0.000 A 
ATOM      4  C   UNL     1       5.045   4.370  16.906  0.00  0.00    +0.000 A 
ATOM      5  C   UNL     1       4.876   4.070  15.551  0.00  0.00    +0.000 A 
ATOM      6  C   UNL     1       5.863   4.443  14.635  0.00  0.00    +0.000 A 
ENDROOT
BRANCH   1   7
ATOM      7  O   UNL     1       7.938   5.452  14.148  0.00  0.00    +0.000 OA
ATOM      8  H   UNL     1       8.423   6.230  14.469  0.00  0.00    +0.000 HD
ENDBRANCH   1   7
BRANCH   4   9
ATOM      9  C   UNL     1       4.002   3.958  17.871  0.00  0.00    +0.000 C 
ATOM     10  N   UNL     1       4.277   3.815  19.126  0.00  0.00    +0.000 NA
BRANCH  10  11
ATOM     11  C   UNL     1       3.252   3.402  19.914  0.00  0.00    +0.000 A 
ATOM     12  N   UNL     1       3.299   2.644  20.993  0.00  0.00    +0.000 NA
ATOM     13  C   UNL     1       2.035   2.484  21.528  0.00  0.00    +0.000 A 
ATOM     14  C   UNL     1       1.019   3.117  20.852  0.00  0.00    +0.000 A 
ATOM     15  S   UNL     1       1.657   3.934  19.492  0.00  0.00    +0.000 S 
ENDBRANCH  10  11
ENDBRANCH   4   9
TORSDOF 3
ENDMDL
MODEL 3
REMARK VINA RESULT:      -5.7      6.334      7.735
REMARK  Name = 
REMARK  3 active torsions:
REMARK  status: ('A' for Active; 'I' for Inactive)
REMARK    1  A    between atoms: O_1  and  C_2
REMARK    2  A    between atoms: C_5  and  C_6
REMARK    3  A    between atoms: N_7  and  C_8
REMARK                            x       y       z     vdW  Elec       q    Type
REMARK                         _______ _______ _______ _____ _____    ______ ____
ROOT
ATOM      1  C   UNL     1       9.563  12.721  19.086  0.00  0.00    +0.000 A 
ATOM      2  C   UNL     1       9.932  11.769  20.031  0.00  0.00    +0.000 A 
ATOM      3  C   UNL     1       9.585  10.432  19.825  0.00  0.00    +0.000 A 
ATOM      4  C   UNL     1       8.875  10.062  18.677  0.00  0.00    +0.000 A 
ATOM      5  C   UNL     1       8.507  11.025  17.734  0.00  0.00    +0.000 A 
ATOM      6  C   UNL     1       8.855  12.362  17.943  0.00  0.00    +0.000 A 
ENDROOT
BRANCH   1   7
ATOM      7  O   UNL     1       9.882  14.038  19.246  0.00  0.00    +0.000 OA
ATOM      8  H   UNL     1      10.570  14.109  19.929  0.00  0.00    +0.000 HD
ENDBRANCH   1   7
BRANCH   4   9
ATOM      9  C   UNL     1       8.515   8.647  18.440  0.00  0.00    +0.000 C 
ATOM     10  N   UNL     1       7.857   8.296  17.384  0.00  0.00    +0.000 NA
BRANCH  10  11
ATOM     11  C   UNL     1       7.554   6.977  17.286  0.00  0.00    +0.000 A 
ATOM     12  N   UNL     1       7.227   6.286  16.210  0.00  0.00    +0.000 NA
ATOM     13  C   UNL     1       7.028   4.957  16.529  0.00  0.00    +0.000 A 
ATOM     14  C   UNL     1       7.196   4.632  17.854  0.00  0.00    +0.000 A 
ATOM     15  S   UNL     1       7.609   6.035  18.740  0.00  0.00    +0.000 S 
ENDBRANCH  10  11
ENDBRANCH   4   9
TORSDOF 3
ENDMDL
MODEL 4
REMARK VINA RESULT:      -5.6      3.742      6.641
REMARK  Name = 
REMARK  3 active torsions:
REMARK  status: ('A' for Active; 'I' for Inactive)
REMARK    1  A    between atoms: O_1  and  C_2
REMARK    2  A    between atoms: C_5  and  C_6
REMARK    3  A    between atoms: N_7  and  C_8
REMARK                            x       y       z     vdW  Elec       q    Type
REMARK                         _______ _______ _______ _____ _____    ______ ____
ROOT
ATOM      1  C   UNL     1       1.619   2.805  21.137  0.00  0.00    +0.000 A 
ATOM      2  C   UNL     1       2.995   2.599  21.133  0.00  0.00    +0.000 A 
ATOM      3  C   UNL     1       3.717   2.828  19.959  0.00  0.00    +0.000 A 
ATOM      4  C   UNL     1       3.055   3.261  18.804  0.00  0.00    +0.000 A 
ATOM      5  C   UNL     1       1.672   3.464  18.817  0.00  0.00    +0.000 A 
ATOM      6  C   UNL     1       0.953   3.234  19.993  0.00  0.00    +0.000 A 
ENDROOT
BRANCH   1   7
ATOM      7  O   UNL     1       0.876   2.595  22.262  0.00  0.00    +0.000 OA
ATOM      8  H   UNL     1       1.478   2.514  23.020  0.00  0.00    +0.000 HD
ENDBRANCH   1   7
BRANCH   4   9
ATOM      9  C   UNL     1       3.810   3.522  17.559  0.00  0.00    +0.000 C 
ATOM     10  N   UNL     1       5.025   3.962  17.598  0.00  0.00    +0.000 NA
BRANCH  10  11
ATOM     11  C   UNL     1       5.609   4.196  16.396  0.00  0.00    +0.000 A 
ATOM     12  N   UNL     1       5.184   3.854  15.194  0.00  0.00    +0.000 NA
ATOM     13  C   UNL     1       6.053   4.313  14.224  0.00  0.00    +0.000 A 
ATOM     14  C   UNL     1       7.150   5.001  14.685  0.00  0.00    +0.000 A 
ATOM     15  S   UNL     1       7.104   5.074  16.393  0.00  0.00    +0.000 S 
ENDBRANCH  10  11
ENDBRANCH   4   9
TORSDOF 3
ENDMDL
MODEL 5
REMARK VINA RESULT:      -5.6      1.504      2.032
REMARK  Name = 
REMARK  3 active torsions:
REMARK  status: ('A' for Active; 'I' for Inactive)
REMARK    1  A    between atoms: O_1  and  C_2
REMARK    2  A    between atoms: C_5  and  C_6
REMARK    3  A    between atoms: N_7  and  C_8
REMARK                            x       y       z     vdW  Elec       q    Type
REMARK                         _______ _______ _______ _____ _____    ______ ____
ROOT
ATOM      1  C   UNL     1       7.191   5.133  14.613  0.00  0.00    +0.000 A 
ATOM      2  C   UNL     1       7.195   5.500  15.955  0.00  0.00    +0.000 A 
ATOM      3  C   UNL     1       6.185   5.028  16.796  0.00  0.00    +0.000 A 
ATOM      4  C   UNL     1       5.183   4.194  16.286  0.00  0.00    +0.000 A 
ATOM      5  C   UNL     1       5.185   3.832  14.936  0.00  0.00    +0.000 A 
ATOM      6  C   UNL     1       6.197   4.305  14.098  0.00  0.00    +0.000 A 
ENDROOT
BRANCH   1   7
ATOM      7  O   UNL     1       8.159   5.569  13.757  0.00  0.00    +0.000 OA
ATOM      8  H   UNL     1       8.759   6.159  14.243  0.00  0.00    +0.000 HD
ENDBRANCH   1   7
BRANCH   4   9
ATOM      9  C   UNL     1       4.116   3.676  17.170  0.00  0.00    +0.000 C 
ATOM     10  N   UNL     1       3.140   4.434  17.550  0.00  0.00    +0.000 NA
BRANCH  10  11
ATOM     11  C   UNL     1       2.236   3.863  18.386  0.00  0.00    +0.000 A 
ATOM     12  N   UNL     1       1.313   2.962  18.107  0.00  0.00    +0.000 NA
ATOM     13  C   UNL     1       0.618   2.612  19.247  0.00  0.00    +0.000 A 
ATOM     14  C   UNL     1       1.005   3.252  20.401  0.00  0.00    +0.000 A 
ATOM     15  S   UNL     1       2.279   4.339  20.052  0.00  0.00    +0.000 S 
ENDBRANCH  10  11
ENDBRANCH   4   9
TORSDOF 3
ENDMDL
MODEL 6
REMARK VINA RESULT:      -5.6      1.143      1.697
REMARK  Name = 
REMARK  3 active torsions:
REMARK  status: ('A' for Active; 'I' for Inactive)
REMARK    1  A    between atoms: O_1  and  C_2
REMARK    2  A    between atoms: C_5  and  C_6
REMARK    3  A    between atoms: N_7  and  C_8
REMARK                            x       y       z     vdW  Elec       q    Type
REMARK                         _______ _______ _______ _____ _____    ______ ____
ROOT
ATOM      1  C   UNL     1       6.970   5.198  15.139  0.00  0.00    +0.000 A 
ATOM      2  C   UNL     1       7.007   5.934  16.319  0.00  0.00    +0.000 A 
ATOM      3  C   UNL     1       6.022   5.725  17.287  0.00  0.00    +0.000 A 
ATOM      4  C   UNL     1       5.013   4.780  17.065  0.00  0.00    +0.000 A 
ATOM      5  C   UNL     1       4.983   4.045  15.877  0.00  0.00    +0.000 A 
ATOM      6  C   UNL     1       5.969   4.258  14.911  0.00  0.00    +0.000 A 
ENDROOT
BRANCH   1   7
ATOM      7  O   UNL     1       7.912   5.370  14.168  0.00  0.00    +0.000 OA
ATOM      8  H   UNL     1       7.476   5.709  13.369  0.00  0.00    +0.000 HD
ENDBRANCH   1   7
BRANCH   4   9
ATOM      9  C   UNL     1       3.974   4.538  18.090  0.00  0.00    +0.000 C 
ATOM     10  N   UNL     1       3.620   3.335  18.406  0.00  0.00    +0.000 NA
BRANCH  10  11
ATOM     11  C   UNL     1       2.635   3.232  19.334  0.00  0.00    +0.000 A 
ATOM     12  N   UNL     1       1.352   3.512  19.205  0.00  0.00    +0.000 NA
ATOM     13  C   UNL     1       0.676   3.235  20.377  0.00  0.00    +0.000 A 
ATOM     14  C   UNL     1       1.446   2.750  21.408  0.00  0.00    +0.000 A 
ATOM     15  S   UNL     1       3.076   2.640  20.902  0.00  0.00    +0.000 S 
ENDBRANCH  10  11
ENDBRANCH   4   9
TORSDOF 3
ENDMDL
MODEL 7
REMARK VINA RESULT:      -5.6      3.956      6.196
REMARK  Name = 
REMARK  3 active torsions:
REMARK  status: ('A' for Active; 'I' for Inactive)
REMARK    1  A    between atoms: O_1  and  C_2
REMARK    2  A    between atoms: C_5  and  C_6
REMARK    3  A    between atoms: N_7  and  C_8
REMARK                            x       y       z     vdW  Elec       q    Type
REMARK                         _______ _______ _______ _____ _____    ______ ____
ROOT
ATOM      1  C   UNL     1       1.296   2.556  18.636  0.00  0.00    +0.000 A 
ATOM      2  C   UNL     1       2.367   2.329  17.778  0.00  0.00    +0.000 A 
ATOM      3  C   UNL     1       3.437   3.227  17.767  0.00  0.00    +0.000 A 
ATOM      4  C   UNL     1       3.426   4.340  18.616  0.00  0.00    +0.000 A 
ATOM      5  C   UNL     1       2.345   4.561  19.475  0.00  0.00    +0.000 A 
ATOM      6  C   UNL     1       1.277   3.661  19.483  0.00  0.00    +0.000 A 
ENDROOT
BRANCH   1   7
ATOM      7  O   UNL     1       0.232   1.705  18.680  0.00  0.00    +0.000 OA
ATOM      8  H   UNL     1       0.003   1.543  19.611  0.00  0.00    +0.000 HD
ENDBRANCH   1   7
BRANCH   4   9
ATOM      9  C   UNL     1       4.560   5.289  18.625  0.00  0.00    +0.000 C 
ATOM     10  N   UNL     1       5.317   5.430  17.587  0.00  0.00    +0.000 NA
BRANCH  10  11
ATOM     11  C   UNL     1       6.347   6.304  17.719  0.00  0.00    +0.000 A 
ATOM     12  N   UNL     1       6.581   7.408  17.034  0.00  0.00    +0.000 NA
ATOM     13  C   UNL     1       7.719   8.036  17.502  0.00  0.00    +0.000 A 
ATOM     14  C   UNL     1       8.361   7.406  18.542  0.00  0.00    +0.000 A 
ATOM     15  S   UNL     1       7.522   5.973  18.949  0.00  0.00    +0.000 S 
ENDBRANCH  10  11
ENDBRANCH   4   9
TORSDOF 3
ENDMDL
MODEL 8
REMARK VINA RESULT:      -5.6      1.191      1.291
REMARK  Name = 
REMARK  3 active torsions:
REMARK  status: ('A' for Active; 'I' for Inactive)
REMARK    1  A    between atoms: O_1  and  C_2
REMARK    2  A    between atoms: C_5  and  C_6
REMARK    3  A    between atoms: N_7  and  C_8
REMARK                            x       y       z     vdW  Elec       q    Type
REMARK                         _______ _______ _______ _____ _____    ______ ____
ROOT
ATOM      1  C   UNL     1       7.085   5.051  14.991  0.00  0.00    +0.000 A 
ATOM      2  C   UNL     1       5.946   4.453  14.461  0.00  0.00    +0.000 A 
ATOM      3  C   UNL     1       4.926   4.041  15.322  0.00  0.00    +0.000 A 
ATOM      4  C   UNL     1       5.057   4.232  16.703  0.00  0.00    +0.000 A 
ATOM      5  C   UNL     1       6.205   4.832  17.227  0.00  0.00    +0.000 A 
ATOM      6  C   UNL     1       7.222   5.243  16.363  0.00  0.00    +0.000 A 
ENDROOT
BRANCH   1   7
ATOM      7  O   UNL     1       8.103   5.470  14.187  0.00  0.00    +0.000 OA
ATOM      8  H   UNL     1       8.086   6.441  14.146  0.00  0.00    +0.000 HD
ENDBRANCH   1   7
BRANCH   4   9
ATOM      9  C   UNL     1       3.977   3.814  17.624  0.00  0.00    +0.000 C 
ATOM     10  N   UNL     1       3.782   4.430  18.743  0.00  0.00    +0.000 NA
BRANCH  10  11
ATOM     11  C   UNL     1       2.786   3.941  19.524  0.00  0.00    +0.000 A 
ATOM     12  N   UNL     1       1.502   4.244  19.504  0.00  0.00    +0.000 NA
ATOM     13  C   UNL     1       0.812   3.496  20.438  0.00  0.00    +0.000 A 
ATOM     14  C   UNL     1       1.573   2.623  21.180  0.00  0.00    +0.000 A 
ATOM     15  S   UNL     1       3.211   2.743  20.703  0.00  0.00    +0.000 S 
ENDBRANCH  10  11
ENDBRANCH   4   9
TORSDOF 3
ENDMDL
MODEL 9
REMARK VINA RESULT:      -5.5      6.417      8.309
REMARK  Name = 
REMARK  3 active torsions:
REMARK  status: ('A' for Active; 'I' for Inactive)
REMARK    1  A    between atoms: O_1  and  C_2
REMARK    2  A    between atoms: C_5  and  C_6
REMARK    3  A    between atoms: N_7  and  C_8
REMARK                            x       y       z     vdW  Elec       q    Type
REMARK                         _______ _______ _______ _____ _____    ______ ____
ROOT
ATOM      1  C   UNL     1       6.608   5.089  18.357  0.00  0.00    +0.000 A 
ATOM      2  C   UNL     1       7.718   5.490  19.093  0.00  0.00    +0.000 A 
ATOM      3  C   UNL     1       8.257   6.761  18.881  0.00  0.00    +0.000 A 
ATOM      4  C   UNL     1       7.679   7.617  17.936  0.00  0.00    +0.000 A 
ATOM      5  C   UNL     1       6.565   7.206  17.199  0.00  0.00    +0.000 A 
ATOM      6  C   UNL     1       6.028   5.934  17.415  0.00  0.00    +0.000 A 
ENDROOT
BRANCH   1   7
ATOM      7  O   UNL     1       6.049   3.858  18.534  0.00  0.00    +0.000 OA
ATOM      8  H   UNL     1       5.184   3.969  18.961  0.00  0.00    +0.000 HD
ENDBRANCH   1   7
BRANCH   4   9
ATOM      9  C   UNL     1       8.231   8.971  17.713  0.00  0.00    +0.000 C 
ATOM     10  N   UNL     1       8.669   9.682  18.700  0.00  0.00    +0.000 NA
BRANCH  10  11
ATOM     11  C   UNL     1       9.123  10.921  18.383  0.00  0.00    +0.000 A 
ATOM     12  N   UNL     1       8.511  11.871  17.702  0.00  0.00    +0.000 NA
ATOM     13  C   UNL     1       9.302  13.001  17.629  0.00  0.00    +0.000 A 
ATOM     14  C   UNL     1      10.525  12.912  18.249  0.00  0.00    +0.000 A 
ATOM     15  S   UNL     1      10.703  11.360  18.944  0.00  0.00    +0.000 S 
ENDBRANCH  10  11
ENDBRANCH   4   9
TORSDOF 3
ENDMDL
