MODEL 1
REMARK VINA RESULT:      -7.0      0.000      0.000
REMARK  Name = 
REMARK  4 active torsions:
REMARK  status: ('A' for Active; 'I' for Inactive)
REMARK    1  A    between atoms: C_4  and  C_5
REMARK    2  A    between atoms: C_10  and  C_11
REMARK    3  A    between atoms: C_11  and  C_12
REMARK    4  A    between atoms: C_12  and  C_13
REMARK                            x       y       z     vdW  Elec       q    Type
REMARK                         _______ _______ _______ _____ _____    ______ ____
ROOT
ATOM      1  C   UNL     1       5.496   5.991  16.046  0.00  0.00    +0.000 A 
ATOM      2  C   UNL     1       5.437   4.613  16.170  0.00  0.00    +0.000 A 
ATOM      3  C   UNL     1       4.485   4.039  17.011  0.00  0.00    +0.000 A 
ATOM      4  C   UNL     1       3.581   4.824  17.762  0.00  0.00    +0.000 A 
ATOM      5  C   UNL     1       3.622   6.238  17.611  0.00  0.00    +0.000 A 
ATOM      6  C   UNL     1       4.597   6.790  16.750  0.00  0.00    +0.000 A 
ENDROOT
BRANCH   4   7
ATOM      7  C   UNL     1       2.663   4.121  18.687  0.00  0.00    +0.000 A 
ATOM      8  C   UNL     1       1.381   3.529  18.426  0.00  0.00    +0.000 A 
ATOM      9  C   UNL     1       0.782   3.002  19.550  0.00  0.00    +0.000 A 
ATOM     10  S   UNL     1       1.783   3.126  20.922  0.00  0.00    +0.000 S 
ATOM     11  C   UNL     1       2.994   3.933  20.021  0.00  0.00    +0.000 A 
ENDBRANCH   4   7
BRANCH   5  12
ATOM     12  C   UNL     1       2.651   7.154  18.338  0.00  0.00    +0.000 C 
BRANCH  12  13
ATOM     13  C   UNL     1       2.498   8.593  17.835  0.00  0.00    +0.000 C 
BRANCH  13  14
ATOM     14  C   UNL     1       1.333   9.267  18.514  0.00  0.00    +0.000 C 
ATOM     15  N   UNL     1       1.130   9.165  19.801  0.00  0.00    +0.000 NA
ATOM     16  C   UNL     1      -0.114   9.958  20.033  0.00  0.00    +0.000 C 
ATOM     17  C   UNL     1      -0.354  10.770  18.756  0.00  0.00    +0.000 C 
ATOM     18  N   UNL     1       0.435  10.022  17.806  0.00  0.00    +0.000 N 
ATOM     19  H   UNL     1       0.764  10.506  16.979  0.00  0.00    +0.000 HD
ENDBRANCH  13  14
ENDBRANCH  12  13
ENDBRANCH   5  12
TORSDOF 4
ENDMDL
MODEL 2
REMARK VINA RESULT:      -6.9      3.273      5.021
REMARK  Name = 
REMARK  4 active torsions:
REMARK  status: ('A' for Active; 'I' for Inactive)
REMARK    1  A    between atoms: C_4  and  C_5
REMARK    2  A    between atoms: C_10  and  C_11
REMARK    3  A    between atoms: C_11  and  C_12
REMARK    4  A    between atoms: C_12  and  C_13
REMARK                            x       y       z     vdW  Elec       q    Type
REMARK                         _______ _______ _______ _____ _____    ______ ____
ROOT
ATOM      1  C   UNL     1       6.733   4.465  15.951  0.00  0.00    +0.000 A 
ATOM      2  C   UNL     1       6.965   5.705  16.524  0.00  0.00    +0.000 A 
ATOM      3  C   UNL     1       5.960   6.314  17.274  0.00  0.00    +0.000 A 
ATOM      4  C   UNL     1       4.695   5.711  17.459  0.00  0.00    +0.000 A 
ATOM      5  C   UNL     1       4.468   4.424  16.896  0.00  0.00    +0.000 A 
ATOM      6  C   UNL     1       5.506   3.832  16.141  0.00  0.00    +0.000 A 
ENDROOT
BRANCH   4   7
ATOM      7  C   UNL     1       3.671   6.475  18.205  0.00  0.00    +0.000 A 
ATOM      8  C   UNL     1       3.077   6.200  19.483  0.00  0.00    +0.000 A 
ATOM      9  C   UNL     1       2.109   7.112  19.845  0.00  0.00    +0.000 A 
ATOM     10  S   UNL     1       1.956   8.366  18.702  0.00  0.00    +0.000 S 
ATOM     11  C   UNL     1       3.148   7.657  17.699  0.00  0.00    +0.000 A 
ENDBRANCH   4   7
BRANCH   5  12
ATOM     12  C   UNL     1       3.157   3.680  17.091  0.00  0.00    +0.000 C 
BRANCH  12  13
ATOM     13  C   UNL     1       3.186   2.351  17.853  0.00  0.00    +0.000 C 
BRANCH  13  14
ATOM     14  C   UNL     1       2.678   2.540  19.260  0.00  0.00    +0.000 C 
ATOM     15  N   UNL     1       3.489   2.616  20.283  0.00  0.00    +0.000 NA
ATOM     16  C   UNL     1       2.576   2.782  21.453  0.00  0.00    +0.000 C 
ATOM     17  C   UNL     1       1.197   3.123  20.881  0.00  0.00    +0.000 C 
ATOM     18  N   UNL     1       1.339   2.645  19.526  0.00  0.00    +0.000 N 
ATOM     19  H   UNL     1       0.740   3.051  18.816  0.00  0.00    +0.000 HD
ENDBRANCH  13  14
ENDBRANCH  12  13
ENDBRANCH   5  12
TORSDOF 4
ENDMDL
MODEL 3
REMARK VINA RESULT:      -6.8      2.150      3.793
REMARK  Name = 
REMARK  4 active torsions:
REMARK  status: ('A' for Active; 'I' for Inactive)
REMARK    1  A    between atoms: C_4  and  C_5
REMARK    2  A    between atoms: C_10  and  C_11
REMARK    3  A    between atoms: C_11  and  C_12
REMARK    4  A    between atoms: C_12  and  C_13
REMARK                            x       y       z     vdW  Elec       q    Type
REMARK                         _______ _______ _______ _____ _____    ______ ____
ROOT
ATOM      1  C   UNL     1       1.153   3.147  18.811  0.00  0.00    +0.000 A 
ATOM      2  C   UNL     1       1.970   2.217  18.190  0.00  0.00    +0.000 A 
ATOM      3  C   UNL     1       3.232   2.603  17.742  0.00  0.00    +0.000 A 
ATOM      4  C   UNL     1       3.705   3.927  17.885  0.00  0.00    +0.000 A 
ATOM      5  C   UNL     1       2.877   4.875  18.550  0.00  0.00    +0.000 A 
ATOM      6  C   UNL     1       1.603   4.454  18.994  0.00  0.00    +0.000 A 
ENDROOT
BRANCH   4   7
ATOM      7  C   UNL     1       5.026   4.253  17.304  0.00  0.00    +0.000 A 
ATOM      8  C   UNL     1       6.283   4.478  17.962  0.00  0.00    +0.000 A 
ATOM      9  C   UNL     1       7.301   4.814  17.097  0.00  0.00    +0.000 A 
ATOM     10  S   UNL     1       6.794   4.780  15.471  0.00  0.00    +0.000 S 
ATOM     11  C   UNL     1       5.198   4.367  15.932  0.00  0.00    +0.000 A 
ENDBRANCH   4   7
BRANCH   5  12
ATOM     12  C   UNL     1       3.327   6.305  18.796  0.00  0.00    +0.000 C 
BRANCH  12  13
ATOM     13  C   UNL     1       2.960   7.369  17.756  0.00  0.00    +0.000 C 
BRANCH  13  14
ATOM     14  C   UNL     1       2.106   8.443  18.382  0.00  0.00    +0.000 C 
ATOM     15  N   UNL     1       1.677   8.355  19.614  0.00  0.00    +0.000 NA
ATOM     16  C   UNL     1       0.876   9.600  19.805  0.00  0.00    +0.000 C 
ATOM     17  C   UNL     1       1.215  10.519  18.627  0.00  0.00    +0.000 C 
ATOM     18  N   UNL     1       1.746   9.565  17.683  0.00  0.00    +0.000 N 
ATOM     19  H   UNL     1       2.379   9.907  16.968  0.00  0.00    +0.000 HD
ENDBRANCH  13  14
ENDBRANCH  12  13
ENDBRANCH   5  12
TORSDOF 4
ENDMDL
MODEL 4
REMARK VINA RESULT:      -6.8      1.978      3.769
REMARK  Name = 
REMARK  4 active torsions:
REMARK  status: ('A' for Active; 'I' for Inactive)
REMARK    1  A    between atoms: C_4  and  C_5
REMARK    2  A    between atoms: C_10  and  C_11
REMARK    3  A    between atoms: C_11  and  C_12
REMARK    4  A    between atoms: C_12  and  C_13
REMARK                            x       y       z     vdW  Elec       q    Type
REMARK                         _______ _______ _______ _____ _____    ______ ____
ROOT
ATOM      1  C   UNL     1       1.046   3.260  20.244  0.00  0.00    +0.000 A 
ATOM      2  C   UNL     1       1.791   2.242  19.670  0.00  0.00    +0.000 A 
ATOM      3  C   UNL     1       2.941   2.557  18.948  0.00  0.00    +0.000 A 
ATOM      4  C   UNL     1       3.367   3.892  18.764  0.00  0.00    +0.000 A 
ATOM      5  C   UNL     1       2.618   4.934  19.379  0.00  0.00    +0.000 A 
ATOM      6  C   UNL     1       1.458   4.584  20.106  0.00  0.00    +0.000 A 
ENDROOT
BRANCH   4   7
ATOM      7  C   UNL     1       4.555   4.125  17.914  0.00  0.00    +0.000 A 
ATOM      8  C   UNL     1       4.670   4.116  16.482  0.00  0.00    +0.000 A 
ATOM      9  C   UNL     1       5.957   4.323  16.034  0.00  0.00    +0.000 A 
ATOM     10  S   UNL     1       7.037   4.622  17.317  0.00  0.00    +0.000 S 
ATOM     11  C   UNL     1       5.791   4.420  18.473  0.00  0.00    +0.000 A 
ENDBRANCH   4   7
BRANCH   5  12
ATOM     12  C   UNL     1       3.035   6.392  19.280  0.00  0.00    +0.000 C 
BRANCH  12  13
ATOM     13  C   UNL     1       2.592   7.190  18.050  0.00  0.00    +0.000 C 
BRANCH  13  14
ATOM     14  C   UNL     1       2.009   8.517  18.465  0.00  0.00    +0.000 C 
ATOM     15  N   UNL     1       2.001   9.550  17.663  0.00  0.00    +0.000 NA
ATOM     16  C   UNL     1       1.360  10.628  18.472  0.00  0.00    +0.000 C 
ATOM     17  C   UNL     1       0.725   9.941  19.684  0.00  0.00    +0.000 C 
ATOM     18  N   UNL     1       1.457   8.697  19.706  0.00  0.00    +0.000 N 
ATOM     19  H   UNL     1       1.023   7.899  20.156  0.00  0.00    +0.000 HD
ENDBRANCH  13  14
ENDBRANCH  12  13
ENDBRANCH   5  12
TORSDOF 4
ENDMDL
MODEL 5
REMARK VINA RESULT:      -6.8      3.077      5.189
REMARK  Name = 
REMARK  4 active torsions:
REMARK  status: ('A' for Active; 'I' for Inactive)
REMARK    1  A    between atoms: C_4  and  C_5
REMARK    2  A    between atoms: C_10  and  C_11
REMARK    3  A    between atoms: C_11  and  C_12
REMARK    4  A    between atoms: C_12  and  C_13
REMARK                            x       y       z     vdW  Elec       q    Type
REMARK                         _______ _______ _______ _____ _____    ______ ____
ROOT
ATOM      1  C   UNL     1       5.368   4.447  16.542  0.00  0.00    +0.000 A 
ATOM      2  C   UNL     1       5.827   5.703  16.903  0.00  0.00    +0.000 A 
ATOM      3  C   UNL     1       4.962   6.596  17.534  0.00  0.00    +0.000 A 
ATOM      4  C   UNL     1       3.615   6.266  17.806  0.00  0.00    +0.000 A 
ATOM      5  C   UNL     1       3.152   4.965  17.463  0.00  0.00    +0.000 A 
ATOM      6  C   UNL     1       4.053   4.082  16.825  0.00  0.00    +0.000 A 
ENDROOT
BRANCH   4   7
ATOM      7  C   UNL     1       2.758   7.312  18.408  0.00  0.00    +0.000 A 
ATOM      8  C   UNL     1       2.245   7.414  19.745  0.00  0.00    +0.000 A 
ATOM      9  C   UNL     1       1.430   8.509  19.936  0.00  0.00    +0.000 A 
ATOM     10  S   UNL     1       1.335   9.483  18.543  0.00  0.00    +0.000 S 
ATOM     11  C   UNL     1       2.343   8.410  17.669  0.00  0.00    +0.000 A 
ENDBRANCH   4   7
BRANCH   5  12
ATOM     12  C   UNL     1       1.736   4.507  17.769  0.00  0.00    +0.000 C 
BRANCH  12  13
ATOM     13  C   UNL     1       1.514   3.037  18.141  0.00  0.00    +0.000 C 
BRANCH  13  14
ATOM     14  C   UNL     1       1.791   2.818  19.606  0.00  0.00    +0.000 C 
ATOM     15  N   UNL     1       2.993   2.565  20.052  0.00  0.00    +0.000 NA
ATOM     16  C   UNL     1       2.804   2.405  21.525  0.00  0.00    +0.000 C 
ATOM     17  C   UNL     1       1.405   2.939  21.842  0.00  0.00    +0.000 C 
ATOM     18  N   UNL     1       0.788   2.878  20.538  0.00  0.00    +0.000 N 
ATOM     19  H   UNL     1       0.003   3.492  20.356  0.00  0.00    +0.000 HD
ENDBRANCH  13  14
ENDBRANCH  12  13
ENDBRANCH   5  12
TORSDOF 4
ENDMDL
MODEL 6
REMARK VINA RESULT:      -6.7      2.189      3.936
REMARK  Name = 
REMARK  4 active torsions:
REMARK  status: ('A' for Active; 'I' for Inactive)
REMARK    1  A    between atoms: C_4  and  C_5
REMARK    2  A    between atoms: C_10  and  C_11
REMARK    3  A    between atoms: C_11  and  C_12
REMARK    4  A    between atoms: C_12  and  C_13
REMARK                            x       y       z     vdW  Elec       q    Type
REMARK                         _______ _______ _______ _____ _____    ______ ____
ROOT
ATOM      1  C   UNL     1       1.182   2.612  18.653  0.00  0.00    +0.000 A 
ATOM      2  C   UNL     1       2.252   1.755  18.454  0.00  0.00    +0.000 A 
ATOM      3  C   UNL     1       3.487   2.275  18.069  0.00  0.00    +0.000 A 
ATOM      4  C   UNL     1       3.682   3.659  17.858  0.00  0.00    +0.000 A 
ATOM      5  C   UNL     1       2.591   4.542  18.092  0.00  0.00    +0.000 A 
ATOM      6  C   UNL     1       1.352   3.985  18.482  0.00  0.00    +0.000 A 
ENDROOT
BRANCH   4   7
ATOM      7  C   UNL     1       5.009   4.100  17.374  0.00  0.00    +0.000 A 
ATOM      8  C   UNL     1       6.158   4.530  18.122  0.00  0.00    +0.000 A 
ATOM      9  C   UNL     1       7.213   4.921  17.327  0.00  0.00    +0.000 A 
ATOM     10  S   UNL     1       6.882   4.698  15.672  0.00  0.00    +0.000 S 
ATOM     11  C   UNL     1       5.306   4.127  16.019  0.00  0.00    +0.000 A 
ENDBRANCH   4   7
BRANCH   5  12
ATOM     12  C   UNL     1       2.728   6.048  17.942  0.00  0.00    +0.000 C 
BRANCH  12  13
ATOM     13  C   UNL     1       2.811   6.898  19.214  0.00  0.00    +0.000 C 
BRANCH  13  14
ATOM     14  C   UNL     1       2.046   8.186  19.038  0.00  0.00    +0.000 C 
ATOM     15  N   UNL     1       2.010   8.817  17.893  0.00  0.00    +0.000 NA
ATOM     16  C   UNL     1       1.174  10.021  18.173  0.00  0.00    +0.000 C 
ATOM     17  C   UNL     1       0.494   9.772  19.522  0.00  0.00    +0.000 C 
ATOM     18  N   UNL     1       1.351   8.750  20.074  0.00  0.00    +0.000 N 
ATOM     19  H   UNL     1       0.962   8.135  20.780  0.00  0.00    +0.000 HD
ENDBRANCH  13  14
ENDBRANCH  12  13
ENDBRANCH   5  12
TORSDOF 4
ENDMDL
MODEL 7
REMARK VINA RESULT:      -6.6      0.699      1.061
REMARK  Name = 
REMARK  4 active torsions:
REMARK  status: ('A' for Active; 'I' for Inactive)
REMARK    1  A    between atoms: C_4  and  C_5
REMARK    2  A    between atoms: C_10  and  C_11
REMARK    3  A    between atoms: C_11  and  C_12
REMARK    4  A    between atoms: C_12  and  C_13
REMARK                            x       y       z     vdW  Elec       q    Type
REMARK                         _______ _______ _______ _____ _____    ______ ____
ROOT
ATOM      1  C   UNL     1       5.595   5.599  15.621  0.00  0.00    +0.000 A 
ATOM      2  C   UNL     1       5.442   4.232  15.778  0.00  0.00    +0.000 A 
ATOM      3  C   UNL     1       4.563   3.747  16.745  0.00  0.00    +0.000 A 
ATOM      4  C   UNL     1       3.828   4.610  17.590  0.00  0.00    +0.000 A 
ATOM      5  C   UNL     1       3.964   6.015  17.407  0.00  0.00    +0.000 A 
ATOM      6  C   UNL     1       4.862   6.477  16.418  0.00  0.00    +0.000 A 
ENDROOT
BRANCH   4   7
ATOM      7  C   UNL     1       2.983   3.995  18.637  0.00  0.00    +0.000 A 
ATOM      8  C   UNL     1       3.288   3.723  20.014  0.00  0.00    +0.000 A 
ATOM      9  C   UNL     1       2.267   3.086  20.685  0.00  0.00    +0.000 A 
ATOM     10  S   UNL     1       0.889   2.882  19.704  0.00  0.00    +0.000 S 
ATOM     11  C   UNL     1       1.681   3.598  18.366  0.00  0.00    +0.000 A 
ENDBRANCH   4   7
BRANCH   5  12
ATOM     12  C   UNL     1       3.171   7.015  18.233  0.00  0.00    +0.000 C 
BRANCH  12  13
ATOM     13  C   UNL     1       2.668   8.287  17.543  0.00  0.00    +0.000 C 
BRANCH  13  14
ATOM     14  C   UNL     1       1.659   8.993  18.412  0.00  0.00    +0.000 C 
ATOM     15  N   UNL     1       1.514   8.702  19.678  0.00  0.00    +0.000 NA
ATOM     16  C   UNL     1       0.421   9.612  20.133  0.00  0.00    +0.000 C 
ATOM     17  C   UNL     1       0.238  10.656  19.027  0.00  0.00    +0.000 C 
ATOM     18  N   UNL     1       0.850   9.978  17.910  0.00  0.00    +0.000 N 
ATOM     19  H   UNL     1       1.204  10.544  17.147  0.00  0.00    +0.000 HD
ENDBRANCH  13  14
ENDBRANCH  12  13
ENDBRANCH   5  12
TORSDOF 4
ENDMDL
MODEL 8
REMARK VINA RESULT:      -6.6      2.318      3.588
REMARK  Name = 
REMARK  4 active torsions:
REMARK  status: ('A' for Active; 'I' for Inactive)
REMARK    1  A    between atoms: C_4  and  C_5
REMARK    2  A    between atoms: C_10  and  C_11
REMARK    3  A    between atoms: C_11  and  C_12
REMARK    4  A    between atoms: C_12  and  C_13
REMARK                            x       y       z     vdW  Elec       q    Type
REMARK                         _______ _______ _______ _____ _____    ______ ____
ROOT
ATOM      1  C   UNL     1       1.604   3.721  17.658  0.00  0.00    +0.000 A 
ATOM      2  C   UNL     1       2.777   3.042  17.372  0.00  0.00    +0.000 A 
ATOM      3  C   UNL     1       4.002   3.682  17.552  0.00  0.00    +0.000 A 
ATOM      4  C   UNL     1       4.088   5.019  18.004  0.00  0.00    +0.000 A 
ATOM      5  C   UNL     1       2.885   5.706  18.326  0.00  0.00    +0.000 A 
ATOM      6  C   UNL     1       1.658   5.030  18.134  0.00  0.00    +0.000 A 
ENDROOT
BRANCH   4   7
ATOM      7  C   UNL     1       5.433   5.632  18.085  0.00  0.00    +0.000 A 
ATOM      8  C   UNL     1       6.491   5.392  19.025  0.00  0.00    +0.000 A 
ATOM      9  C   UNL     1       7.595   6.192  18.824  0.00  0.00    +0.000 A 
ATOM     10  S   UNL     1       7.421   7.183  17.449  0.00  0.00    +0.000 S 
ATOM     11  C   UNL     1       5.846   6.578  17.158  0.00  0.00    +0.000 A 
ENDBRANCH   4   7
BRANCH   5  12
ATOM     12  C   UNL     1       2.888   7.125  18.869  0.00  0.00    +0.000 C 
BRANCH  12  13
ATOM     13  C   UNL     1       2.506   8.265  17.920  0.00  0.00    +0.000 C 
BRANCH  13  14
ATOM     14  C   UNL     1       1.452   9.142  18.548  0.00  0.00    +0.000 C 
ATOM     15  N   UNL     1       1.208   9.118  19.832  0.00  0.00    +0.000 NA
ATOM     16  C   UNL     1       0.105  10.109  20.007  0.00  0.00    +0.000 C 
ATOM     17  C   UNL     1       0.028  10.905  18.701  0.00  0.00    +0.000 C 
ATOM     18  N   UNL     1       0.704  10.008  17.795  0.00  0.00    +0.000 N 
ATOM     19  H   UNL     1       1.125  10.404  16.962  0.00  0.00    +0.000 HD
ENDBRANCH  13  14
ENDBRANCH  12  13
ENDBRANCH   5  12
TORSDOF 4
ENDMDL
MODEL 9
REMARK VINA RESULT:      -6.6      2.110      3.928
REMARK  Name = 
REMARK  4 active torsions:
REMARK  status: ('A' for Active; 'I' for Inactive)
REMARK    1  A    between atoms: C_4  and  C_5
REMARK    2  A    between atoms: C_10  and  C_11
REMARK    3  A    between atoms: C_11  and  C_12
REMARK    4  A    between atoms: C_12  and  C_13
REMARK                            x       y       z     vdW  Elec       q    Type
REMARK                         _______ _______ _______ _____ _____    ______ ____
ROOT
ATOM      1  C   UNL     1       1.178   2.953  20.039  0.00  0.00    +0.000 A 
ATOM      2  C   UNL     1       2.299   2.139  20.041  0.00  0.00    +0.000 A 
ATOM      3  C   UNL     1       3.429   2.527  19.323  0.00  0.00    +0.000 A 
ATOM      4  C   UNL     1       3.465   3.725  18.574  0.00  0.00    +0.000 A 
ATOM      5  C   UNL     1       2.324   4.574  18.597  0.00  0.00    +0.000 A 
ATOM      6  C   UNL     1       1.194   4.155  19.334  0.00  0.00    +0.000 A 
ENDROOT
BRANCH   4   7
ATOM      7  C   UNL     1       4.684   4.006  17.783  0.00  0.00    +0.000 A 
ATOM      8  C   UNL     1       4.911   3.863  16.372  0.00  0.00    +0.000 A 
ATOM      9  C   UNL     1       6.199   4.172  15.990  0.00  0.00    +0.000 A 
ATOM     10  S   UNL     1       7.136   4.725  17.300  0.00  0.00    +0.000 S 
ATOM     11  C   UNL     1       5.833   4.499  18.386  0.00  0.00    +0.000 A 
ENDBRANCH   4   7
BRANCH   5  12
ATOM     12  C   UNL     1       2.296   5.906  17.865  0.00  0.00    +0.000 C 
BRANCH  12  13
ATOM     13  C   UNL     1       3.065   7.083  18.473  0.00  0.00    +0.000 C 
BRANCH  13  14
ATOM     14  C   UNL     1       2.171   7.879  19.389  0.00  0.00    +0.000 C 
ATOM     15  N   UNL     1       1.496   8.916  18.966  0.00  0.00    +0.000 NA
ATOM     16  C   UNL     1       0.776   9.397  20.183  0.00  0.00    +0.000 C 
ATOM     17  C   UNL     1       0.894   8.280  21.225  0.00  0.00    +0.000 C 
ATOM     18  N   UNL     1       2.024   7.545  20.709  0.00  0.00    +0.000 N 
ATOM     19  H   UNL     1       2.113   6.570  20.969  0.00  0.00    +0.000 HD
ENDBRANCH  13  14
ENDBRANCH  12  13
ENDBRANCH   5  12
TORSDOF 4
ENDMDL
