MODEL 1
REMARK VINA RESULT:      -6.8      0.000      0.000
REMARK  Name = 
REMARK  3 active torsions:
REMARK  status: ('A' for Active; 'I' for Inactive)
REMARK    1  A    between atoms: C_1  and  N_2
REMARK    2  A    between atoms: C_4  and  C_5
REMARK    3  A    between atoms: C_8  and  C_9
REMARK                            x       y       z     vdW  Elec       q    Type
REMARK                         _______ _______ _______ _____ _____    ______ ____
ROOT
ATOM      1  C   UNL     1      -2.641  16.908  23.189  0.00  0.00    +0.000 C 
ATOM      2  N   UNL     1      -2.270  15.518  22.905  0.00  0.00    +0.000 NA
ATOM      3  C   UNL     1      -0.863  15.583  22.430  0.00  0.00    +0.000 C 
ATOM      4  C   UNL     1      -0.530  14.245  21.801  0.00  0.00    +0.000 C 
ATOM      5  C   UNL     1      -1.944  13.626  21.491  0.00  0.00    +0.000 C 
ATOM      6  C   UNL     1      -2.120  12.997  20.113  0.00  0.00    +0.000 C 
ATOM      7  O   UNL     1      -1.145  11.993  19.785  0.00  0.00    +0.000 OA
ATOM      8  C   UNL     1      -0.811  11.126  20.787  0.00  0.00    +0.000 A 
ATOM      9  C   UNL     1       0.097  10.112  20.479  0.00  0.00    +0.000 A 
ATOM     10  C   UNL     1       0.570   9.253  21.479  0.00  0.00    +0.000 A 
ATOM     11  C   UNL     1       0.126   9.386  22.794  0.00  0.00    +0.000 A 
ATOM     12  C   UNL     1      -0.783  10.387  23.106  0.00  0.00    +0.000 A 
ATOM     13  C   UNL     1      -1.231  11.258  22.103  0.00  0.00    +0.000 A 
ATOM     14  C   UNL     1      -1.953  12.473  22.495  0.00  0.00    +0.000 C 
ATOM     15  O   UNL     1      -2.268  12.573  23.678  0.00  0.00    +0.000 OA
ATOM     16  C   UNL     1      -3.036  14.718  21.876  0.00  0.00    +0.000 C 
ATOM     17  C   UNL     1      -3.489  15.718  20.697  0.00  0.00    +0.000 C 
ATOM     18  O   UNL     1      -2.881  16.669  20.223  0.00  0.00    +0.000 OA
ATOM     19  N   UNL     1      -4.812  15.456  20.351  0.00  0.00    +0.000 N 
ATOM     20  C   UNL     1      -5.415  14.779  21.408  0.00  0.00    +0.000 A 
ATOM     21  C   UNL     1      -6.797  14.659  21.541  0.00  0.00    +0.000 A 
ATOM     22  C   UNL     1      -7.285  13.762  22.476  0.00  0.00    +0.000 A 
ATOM     23  C   UNL     1      -6.377  12.937  23.136  0.00  0.00    +0.000 A 
ATOM     24  C   UNL     1      -4.981  13.141  23.014  0.00  0.00    +0.000 A 
ATOM     25  C   UNL     1      -4.463  14.167  22.223  0.00  0.00    +0.000 A 
ATOM     26  H   UNL     1      -4.854  14.865  19.520  0.00  0.00    +0.000 HD
ENDROOT
BRANCH   4  27
ATOM     27  C   UNL     1       0.610  14.327  20.792  0.00  0.00    +0.000 A 
ATOM     28  C   UNL     1       1.782  13.543  20.983  0.00  0.00    +0.000 A 
ATOM     29  C   UNL     1       2.937  13.690  20.198  0.00  0.00    +0.000 A 
ATOM     30  C   UNL     1       2.942  14.628  19.171  0.00  0.00    +0.000 A 
ATOM     31  C   UNL     1       1.787  15.405  18.960  0.00  0.00    +0.000 A 
ATOM     32  C   UNL     1       0.625  15.233  19.723  0.00  0.00    +0.000 A 
BRANCH  30  33
ATOM     33  C   UNL     1       4.111  14.859  18.365  0.00  0.00    +0.000 C 
ATOM     34  N   UNL     1       5.080  15.018  17.716  0.00  0.00    +0.000 NA
ENDBRANCH  30  33
ENDBRANCH   4  27
TORSDOF 2
ENDMDL
MODEL 2
REMARK VINA RESULT:      -6.8      2.243      5.031
REMARK  Name = 
REMARK  3 active torsions:
REMARK  status: ('A' for Active; 'I' for Inactive)
REMARK    1  A    between atoms: C_1  and  N_2
REMARK    2  A    between atoms: C_4  and  C_5
REMARK    3  A    between atoms: C_8  and  C_9
REMARK                            x       y       z     vdW  Elec       q    Type
REMARK                         _______ _______ _______ _____ _____    ______ ____
ROOT
ATOM      1  C   UNL     1      -5.566  13.459  22.195  0.00  0.00    +0.000 C 
ATOM      2  N   UNL     1      -4.244  13.951  21.792  0.00  0.00    +0.000 NA
ATOM      3  C   UNL     1      -3.521  12.751  21.295  0.00  0.00    +0.000 C 
ATOM      4  C   UNL     1      -2.054  13.114  21.186  0.00  0.00    +0.000 C 
ATOM      5  C   UNL     1      -1.920  14.379  22.114  0.00  0.00    +0.000 C 
ATOM      6  C   UNL     1      -0.729  14.397  23.066  0.00  0.00    +0.000 C 
ATOM      7  O   UNL     1       0.547  14.210  22.431  0.00  0.00    +0.000 OA
ATOM      8  C   UNL     1       0.733  14.865  21.246  0.00  0.00    +0.000 A 
ATOM      9  C   UNL     1       1.981  14.739  20.635  0.00  0.00    +0.000 A 
ATOM     10  C   UNL     1       2.212  15.290  19.367  0.00  0.00    +0.000 A 
ATOM     11  C   UNL     1       1.204  15.990  18.707  0.00  0.00    +0.000 A 
ATOM     12  C   UNL     1      -0.038  16.127  19.312  0.00  0.00    +0.000 A 
ATOM     13  C   UNL     1      -0.266  15.550  20.569  0.00  0.00    +0.000 A 
ATOM     14  C   UNL     1      -1.645  15.452  21.059  0.00  0.00    +0.000 C 
ATOM     15  O   UNL     1      -2.508  16.034  20.407  0.00  0.00    +0.000 OA
ATOM     16  C   UNL     1      -3.335  14.614  22.803  0.00  0.00    +0.000 C 
ATOM     17  C   UNL     1      -3.560  13.898  24.228  0.00  0.00    +0.000 C 
ATOM     18  O   UNL     1      -3.777  12.717  24.467  0.00  0.00    +0.000 OA
ATOM     19  N   UNL     1      -3.639  14.867  25.226  0.00  0.00    +0.000 N 
ATOM     20  C   UNL     1      -3.957  16.084  24.628  0.00  0.00    +0.000 A 
ATOM     21  C   UNL     1      -4.435  17.179  25.347  0.00  0.00    +0.000 A 
ATOM     22  C   UNL     1      -4.480  18.407  24.709  0.00  0.00    +0.000 A 
ATOM     23  C   UNL     1      -3.925  18.509  23.435  0.00  0.00    +0.000 A 
ATOM     24  C   UNL     1      -3.510  17.358  22.723  0.00  0.00    +0.000 A 
ATOM     25  C   UNL     1      -3.633  16.081  23.273  0.00  0.00    +0.000 A 
ATOM     26  H   UNL     1      -2.741  14.963  25.701  0.00  0.00    +0.000 HD
ENDROOT
BRANCH   4  27
ATOM     27  C   UNL     1      -1.132  11.901  21.252  0.00  0.00    +0.000 A 
ATOM     28  C   UNL     1      -0.370  11.528  20.110  0.00  0.00    +0.000 A 
ATOM     29  C   UNL     1       0.365  10.334  20.037  0.00  0.00    +0.000 A 
ATOM     30  C   UNL     1       0.371   9.475  21.133  0.00  0.00    +0.000 A 
ATOM     31  C   UNL     1      -0.369   9.833  22.275  0.00  0.00    +0.000 A 
ATOM     32  C   UNL     1      -1.073  11.041  22.357  0.00  0.00    +0.000 A 
BRANCH  30  33
ATOM     33  C   UNL     1       1.064   8.215  21.100  0.00  0.00    +0.000 C 
ATOM     34  N   UNL     1       1.603   7.170  21.058  0.00  0.00    +0.000 NA
ENDBRANCH  30  33
ENDBRANCH   4  27
TORSDOF 2
ENDMDL
MODEL 3
REMARK VINA RESULT:      -6.8      2.208      4.904
REMARK  Name = 
REMARK  3 active torsions:
REMARK  status: ('A' for Active; 'I' for Inactive)
REMARK    1  A    between atoms: C_1  and  N_2
REMARK    2  A    between atoms: C_4  and  C_5
REMARK    3  A    between atoms: C_8  and  C_9
REMARK                            x       y       z     vdW  Elec       q    Type
REMARK                         _______ _______ _______ _____ _____    ______ ____
ROOT
ATOM      1  C   UNL     1      -4.928  13.030  21.121  0.00  0.00    +0.000 C 
ATOM      2  N   UNL     1      -3.596  13.588  20.870  0.00  0.00    +0.000 NA
ATOM      3  C   UNL     1      -2.836  12.492  20.212  0.00  0.00    +0.000 C 
ATOM      4  C   UNL     1      -1.370  12.874  20.234  0.00  0.00    +0.000 C 
ATOM      5  C   UNL     1      -1.294  13.965  21.367  0.00  0.00    +0.000 C 
ATOM      6  C   UNL     1      -0.148  13.826  22.363  0.00  0.00    +0.000 C 
ATOM      7  O   UNL     1       1.158  13.755  21.766  0.00  0.00    +0.000 OA
ATOM      8  C   UNL     1       1.390  14.601  20.718  0.00  0.00    +0.000 A 
ATOM      9  C   UNL     1       2.666  14.585  20.154  0.00  0.00    +0.000 A 
ATOM     10  C   UNL     1       2.947  15.344  19.010  0.00  0.00    +0.000 A 
ATOM     11  C   UNL     1       1.962  16.141  18.430  0.00  0.00    +0.000 A 
ATOM     12  C   UNL     1       0.692  16.169  18.991  0.00  0.00    +0.000 A 
ATOM     13  C   UNL     1       0.414  15.387  20.121  0.00  0.00    +0.000 A 
ATOM     14  C   UNL     1      -0.985  15.201  20.522  0.00  0.00    +0.000 C 
ATOM     15  O   UNL     1      -1.823  15.882  19.938  0.00  0.00    +0.000 OA
ATOM     16  C   UNL     1      -2.742  14.075  22.019  0.00  0.00    +0.000 C 
ATOM     17  C   UNL     1      -3.023  13.127  23.291  0.00  0.00    +0.000 C 
ATOM     18  O   UNL     1      -3.236  11.922  23.316  0.00  0.00    +0.000 OA
ATOM     19  N   UNL     1      -3.158  13.913  24.433  0.00  0.00    +0.000 N 
ATOM     20  C   UNL     1      -3.463  15.212  24.035  0.00  0.00    +0.000 A 
ATOM     21  C   UNL     1      -3.986  16.168  24.905  0.00  0.00    +0.000 A 
ATOM     22  C   UNL     1      -4.017  17.486  24.482  0.00  0.00    +0.000 A 
ATOM     23  C   UNL     1      -3.406  17.804  23.271  0.00  0.00    +0.000 A 
ATOM     24  C   UNL     1      -2.946  16.791  22.395  0.00  0.00    +0.000 A 
ATOM     25  C   UNL     1      -3.078  15.440  22.715  0.00  0.00    +0.000 A 
ATOM     26  H   UNL     1      -2.284  13.931  24.959  0.00  0.00    +0.000 HD
ENDROOT
BRANCH   4  27
ATOM     27  C   UNL     1      -0.439  11.672  20.138  0.00  0.00    +0.000 A 
ATOM     28  C   UNL     1       0.442  11.545  19.027  0.00  0.00    +0.000 A 
ATOM     29  C   UNL     1       1.202  10.390  18.780  0.00  0.00    +0.000 A 
ATOM     30  C   UNL     1       1.113   9.320  19.665  0.00  0.00    +0.000 A 
ATOM     31  C   UNL     1       0.255   9.431  20.776  0.00  0.00    +0.000 A 
ATOM     32  C   UNL     1      -0.475  10.598  21.037  0.00  0.00    +0.000 A 
BRANCH  30  33
ATOM     33  C   UNL     1       1.828   8.093  19.439  0.00  0.00    +0.000 C 
ATOM     34  N   UNL     1       2.435   7.097  19.278  0.00  0.00    +0.000 NA
ENDBRANCH  30  33
ENDBRANCH   4  27
TORSDOF 2
ENDMDL
MODEL 4
REMARK VINA RESULT:      -6.7      2.523      7.029
REMARK  Name = 
REMARK  3 active torsions:
REMARK  status: ('A' for Active; 'I' for Inactive)
REMARK    1  A    between atoms: C_1  and  N_2
REMARK    2  A    between atoms: C_4  and  C_5
REMARK    3  A    between atoms: C_8  and  C_9
REMARK                            x       y       z     vdW  Elec       q    Type
REMARK                         _______ _______ _______ _____ _____    ______ ____
ROOT
ATOM      1  C   UNL     1       0.611  17.642  18.214  0.00  0.00    +0.000 C 
ATOM      2  N   UNL     1       0.828  16.220  18.500  0.00  0.00    +0.000 NA
ATOM      3  C   UNL     1      -0.490  15.713  18.964  0.00  0.00    +0.000 C 
ATOM      4  C   UNL     1      -0.262  14.355  19.596  0.00  0.00    +0.000 C 
ATOM      5  C   UNL     1       1.279  14.357  19.920  0.00  0.00    +0.000 C 
ATOM      6  C   UNL     1       1.680  13.853  21.301  0.00  0.00    +0.000 C 
ATOM      7  O   UNL     1       1.190  12.541  21.626  0.00  0.00    +0.000 OA
ATOM      8  C   UNL     1       1.241  11.613  20.624  0.00  0.00    +0.000 A 
ATOM      9  C   UNL     1       0.816  10.319  20.929  0.00  0.00    +0.000 A 
ATOM     10  C   UNL     1       0.737   9.342  19.928  0.00  0.00    +0.000 A 
ATOM     11  C   UNL     1       1.102   9.642  18.617  0.00  0.00    +0.000 A 
ATOM     12  C   UNL     1       1.534  10.924  18.307  0.00  0.00    +0.000 A 
ATOM     13  C   UNL     1       1.585  11.902  19.311  0.00  0.00    +0.000 A 
ATOM     14  C   UNL     1       1.760  13.304  18.920  0.00  0.00    +0.000 C 
ATOM     15  O   UNL     1       2.019  13.522  17.740  0.00  0.00    +0.000 OA
ATOM     16  C   UNL     1       1.843  15.796  19.539  0.00  0.00    +0.000 C 
ATOM     17  C   UNL     1       1.844  16.894  20.718  0.00  0.00    +0.000 C 
ATOM     18  O   UNL     1       0.901  17.520  21.183  0.00  0.00    +0.000 OA
ATOM     19  N   UNL     1       3.158  17.187  21.076  0.00  0.00    +0.000 N 
ATOM     20  C   UNL     1       3.991  16.809  20.026  0.00  0.00    +0.000 A 
ATOM     21  C   UNL     1       5.306  17.256  19.904  0.00  0.00    +0.000 A 
ATOM     22  C   UNL     1       6.122  16.631  18.976  0.00  0.00    +0.000 A 
ATOM     23  C   UNL     1       5.629  15.510  18.312  0.00  0.00    +0.000 A 
ATOM     24  C   UNL     1       4.267  15.134  18.423  0.00  0.00    +0.000 A 
ATOM     25  C   UNL     1       3.374  15.866  19.206  0.00  0.00    +0.000 A 
ATOM     26  H   UNL     1       3.426  16.662  21.909  0.00  0.00    +0.000 HD
ENDROOT
BRANCH   4  27
ATOM     27  C   UNL     1      -1.347  13.971  20.595  0.00  0.00    +0.000 A 
ATOM     28  C   UNL     1      -1.518  14.737  21.783  0.00  0.00    +0.000 A 
ATOM     29  C   UNL     1      -2.374  14.349  22.826  0.00  0.00    +0.000 A 
ATOM     30  C   UNL     1      -3.108  13.174  22.698  0.00  0.00    +0.000 A 
ATOM     31  C   UNL     1      -2.960  12.409  21.526  0.00  0.00    +0.000 A 
ATOM     32  C   UNL     1      -2.131  12.817  20.472  0.00  0.00    +0.000 A 
BRANCH  30  33
ATOM     33  C   UNL     1      -3.963  12.699  23.753  0.00  0.00    +0.000 C 
ATOM     34  N   UNL     1      -4.647  12.280  24.614  0.00  0.00    +0.000 NA
ENDBRANCH  30  33
ENDBRANCH   4  27
TORSDOF 2
ENDMDL
MODEL 5
REMARK VINA RESULT:      -6.6      1.043      1.364
REMARK  Name = 
REMARK  3 active torsions:
REMARK  status: ('A' for Active; 'I' for Inactive)
REMARK    1  A    between atoms: C_1  and  N_2
REMARK    2  A    between atoms: C_4  and  C_5
REMARK    3  A    between atoms: C_8  and  C_9
REMARK                            x       y       z     vdW  Elec       q    Type
REMARK                         _______ _______ _______ _____ _____    ______ ____
ROOT
ATOM      1  C   UNL     1      -2.948  16.696  24.615  0.00  0.00    +0.000 C 
ATOM      2  N   UNL     1      -2.564  15.408  24.029  0.00  0.00    +0.000 NA
ATOM      3  C   UNL     1      -1.204  15.627  23.471  0.00  0.00    +0.000 C 
ATOM      4  C   UNL     1      -0.888  14.458  22.561  0.00  0.00    +0.000 C 
ATOM      5  C   UNL     1      -2.306  13.851  22.241  0.00  0.00    +0.000 C 
ATOM      6  C   UNL     1      -2.579  13.503  20.782  0.00  0.00    +0.000 C 
ATOM      7  O   UNL     1      -1.608  12.627  20.184  0.00  0.00    +0.000 OA
ATOM      8  C   UNL     1      -1.166  11.594  20.962  0.00  0.00    +0.000 A 
ATOM      9  C   UNL     1      -0.260  10.702  20.387  0.00  0.00    +0.000 A 
ATOM     10  C   UNL     1       0.319   9.683  21.154  0.00  0.00    +0.000 A 
ATOM     11  C   UNL     1      -0.017   9.532  22.499  0.00  0.00    +0.000 A 
ATOM     12  C   UNL     1      -0.924  10.410  23.076  0.00  0.00    +0.000 A 
ATOM     13  C   UNL     1      -1.479  11.442  22.306  0.00  0.00    +0.000 A 
ATOM     14  C   UNL     1      -2.198  12.522  22.990  0.00  0.00    +0.000 C 
ATOM     15  O   UNL     1      -2.416  12.371  24.188  0.00  0.00    +0.000 OA
ATOM     16  C   UNL     1      -3.391  14.796  22.921  0.00  0.00    +0.000 C 
ATOM     17  C   UNL     1      -3.969  15.989  22.007  0.00  0.00    +0.000 C 
ATOM     18  O   UNL     1      -3.429  17.042  21.690  0.00  0.00    +0.000 OA
ATOM     19  N   UNL     1      -5.309  15.744  21.717  0.00  0.00    +0.000 N 
ATOM     20  C   UNL     1      -5.801  14.844  22.659  0.00  0.00    +0.000 A 
ATOM     21  C   UNL     1      -7.164  14.639  22.870  0.00  0.00    +0.000 A 
ATOM     22  C   UNL     1      -7.547  13.554  23.639  0.00  0.00    +0.000 A 
ATOM     23  C   UNL     1      -6.564  12.655  24.048  0.00  0.00    +0.000 A 
ATOM     24  C   UNL     1      -5.189  12.940  23.862  0.00  0.00    +0.000 A 
ATOM     25  C   UNL     1      -4.769  14.125  23.258  0.00  0.00    +0.000 A 
ATOM     26  H   UNL     1      -5.403  15.328  20.790  0.00  0.00    +0.000 HD
ENDROOT
BRANCH   4  27
ATOM     27  C   UNL     1       0.160  14.789  21.505  0.00  0.00    +0.000 A 
ATOM     28  C   UNL     1      -0.084  15.832  20.568  0.00  0.00    +0.000 A 
ATOM     29  C   UNL     1       0.751  16.081  19.467  0.00  0.00    +0.000 A 
ATOM     30  C   UNL     1       1.882  15.292  19.282  0.00  0.00    +0.000 A 
ATOM     31  C   UNL     1       2.145  14.262  20.204  0.00  0.00    +0.000 A 
ATOM     32  C   UNL     1       1.328  14.038  21.321  0.00  0.00    +0.000 A 
BRANCH  30  33
ATOM     33  C   UNL     1       2.747  15.466  18.146  0.00  0.00    +0.000 C 
ATOM     34  N   UNL     1       3.473  15.631  17.234  0.00  0.00    +0.000 NA
ENDBRANCH  30  33
ENDBRANCH   4  27
TORSDOF 2
ENDMDL
MODEL 6
REMARK VINA RESULT:      -6.5      2.400      6.133
REMARK  Name = 
REMARK  3 active torsions:
REMARK  status: ('A' for Active; 'I' for Inactive)
REMARK    1  A    between atoms: C_1  and  N_2
REMARK    2  A    between atoms: C_4  and  C_5
REMARK    3  A    between atoms: C_8  and  C_9
REMARK                            x       y       z     vdW  Elec       q    Type
REMARK                         _______ _______ _______ _____ _____    ______ ____
ROOT
ATOM      1  C   UNL     1       0.102  15.199  18.646  0.00  0.00    +0.000 C 
ATOM      2  N   UNL     1      -0.883  14.601  19.553  0.00  0.00    +0.000 NA
ATOM      3  C   UNL     1      -1.055  15.593  20.646  0.00  0.00    +0.000 C 
ATOM      4  C   UNL     1      -1.787  14.904  21.780  0.00  0.00    +0.000 C 
ATOM      5  C   UNL     1      -1.563  13.374  21.482  0.00  0.00    +0.000 C 
ATOM      6  C   UNL     1      -1.161  12.505  22.669  0.00  0.00    +0.000 C 
ATOM      7  O   UNL     1      -2.050  12.583  23.796  0.00  0.00    +0.000 OA
ATOM      8  C   UNL     1      -3.386  12.606  23.510  0.00  0.00    +0.000 A 
ATOM      9  C   UNL     1      -4.270  12.632  24.590  0.00  0.00    +0.000 A 
ATOM     10  C   UNL     1      -5.649  12.765  24.377  0.00  0.00    +0.000 A 
ATOM     11  C   UNL     1      -6.160  12.852  23.084  0.00  0.00    +0.000 A 
ATOM     12  C   UNL     1      -5.287  12.818  22.004  0.00  0.00    +0.000 A 
ATOM     13  C   UNL     1      -3.907  12.710  22.228  0.00  0.00    +0.000 A 
ATOM     14  C   UNL     1      -2.990  12.966  21.113  0.00  0.00    +0.000 C 
ATOM     15  O   UNL     1      -3.494  13.098  20.001  0.00  0.00    +0.000 OA
ATOM     16  C   UNL     1      -0.602  13.271  20.218  0.00  0.00    +0.000 C 
ATOM     17  C   UNL     1       0.976  13.189  20.528  0.00  0.00    +0.000 C 
ATOM     18  O   UNL     1       1.736  14.082  20.881  0.00  0.00    +0.000 OA
ATOM     19  N   UNL     1       1.451  11.927  20.180  0.00  0.00    +0.000 N 
ATOM     20  C   UNL     1       0.551  11.353  19.285  0.00  0.00    +0.000 A 
ATOM     21  C   UNL     1       0.872  10.256  18.487  0.00  0.00    +0.000 A 
ATOM     22  C   UNL     1      -0.158   9.610  17.825  0.00  0.00    +0.000 A 
ATOM     23  C   UNL     1      -1.466  10.006  18.094  0.00  0.00    +0.000 A 
ATOM     24  C   UNL     1      -1.737  11.165  18.862  0.00  0.00    +0.000 A 
ATOM     25  C   UNL     1      -0.706  11.947  19.384  0.00  0.00    +0.000 A 
ATOM     26  H   UNL     1       1.515  11.329  21.005  0.00  0.00    +0.000 HD
ENDROOT
BRANCH   4  27
ATOM     27  C   UNL     1      -1.541  15.558  23.135  0.00  0.00    +0.000 A 
ATOM     28  C   UNL     1      -2.644  16.004  23.916  0.00  0.00    +0.000 A 
ATOM     29  C   UNL     1      -2.494  16.765  25.086  0.00  0.00    +0.000 A 
ATOM     30  C   UNL     1      -1.213  17.088  25.524  0.00  0.00    +0.000 A 
ATOM     31  C   UNL     1      -0.110  16.646  24.770  0.00  0.00    +0.000 A 
ATOM     32  C   UNL     1      -0.262  15.859  23.621  0.00  0.00    +0.000 A 
BRANCH  30  33
ATOM     33  C   UNL     1      -0.997  17.906  26.687  0.00  0.00    +0.000 C 
ATOM     34  N   UNL     1      -0.792  18.588  27.625  0.00  0.00    +0.000 NA
ENDBRANCH  30  33
ENDBRANCH   4  27
TORSDOF 2
ENDMDL
MODEL 7
REMARK VINA RESULT:      -6.5      2.261      7.099
REMARK  Name = 
REMARK  3 active torsions:
REMARK  status: ('A' for Active; 'I' for Inactive)
REMARK    1  A    between atoms: C_1  and  N_2
REMARK    2  A    between atoms: C_4  and  C_5
REMARK    3  A    between atoms: C_8  and  C_9
REMARK                            x       y       z     vdW  Elec       q    Type
REMARK                         _______ _______ _______ _____ _____    ______ ____
ROOT
ATOM      1  C   UNL     1       0.805  17.660  17.848  0.00  0.00    +0.000 C 
ATOM      2  N   UNL     1       0.949  16.260  18.259  0.00  0.00    +0.000 NA
ATOM      3  C   UNL     1      -0.404  15.851  18.720  0.00  0.00    +0.000 C 
ATOM      4  C   UNL     1      -0.256  14.543  19.470  0.00  0.00    +0.000 C 
ATOM      5  C   UNL     1       1.274  14.507  19.842  0.00  0.00    +0.000 C 
ATOM      6  C   UNL     1       1.612  14.105  21.274  0.00  0.00    +0.000 C 
ATOM      7  O   UNL     1       1.053  12.848  21.690  0.00  0.00    +0.000 OA
ATOM      8  C   UNL     1       1.090  11.836  20.772  0.00  0.00    +0.000 A 
ATOM      9  C   UNL     1       0.598  10.593  21.170  0.00  0.00    +0.000 A 
ATOM     10  C   UNL     1       0.503   9.538  20.252  0.00  0.00    +0.000 A 
ATOM     11  C   UNL     1       0.919   9.710  18.933  0.00  0.00    +0.000 A 
ATOM     12  C   UNL     1       1.418  10.941  18.532  0.00  0.00    +0.000 A 
ATOM     13  C   UNL     1       1.485  11.998  19.451  0.00  0.00    +0.000 A 
ATOM     14  C   UNL     1       1.735  13.353  18.950  0.00  0.00    +0.000 C 
ATOM     15  O   UNL     1       2.037  13.459  17.765  0.00  0.00    +0.000 OA
ATOM     16  C   UNL     1       1.913  15.882  19.361  0.00  0.00    +0.000 C 
ATOM     17  C   UNL     1       1.931  17.075  20.444  0.00  0.00    +0.000 C 
ATOM     18  O   UNL     1       1.004  17.779  20.824  0.00  0.00    +0.000 OA
ATOM     19  N   UNL     1       3.246  17.341  20.818  0.00  0.00    +0.000 N 
ATOM     20  C   UNL     1       4.091  16.840  19.831  0.00  0.00    +0.000 A 
ATOM     21  C   UNL     1       5.427  17.218  19.715  0.00  0.00    +0.000 A 
ATOM     22  C   UNL     1       6.240  16.481  18.870  0.00  0.00    +0.000 A 
ATOM     23  C   UNL     1       5.716  15.330  18.286  0.00  0.00    +0.000 A 
ATOM     24  C   UNL     1       4.336  15.025  18.384  0.00  0.00    +0.000 A 
ATOM     25  C   UNL     1       3.455  15.858  19.073  0.00  0.00    +0.000 A 
ATOM     26  H   UNL     1       3.466  16.878  21.700  0.00  0.00    +0.000 HD
ENDROOT
BRANCH   4  27
ATOM     27  C   UNL     1      -1.386  14.293  20.462  0.00  0.00    +0.000 A 
ATOM     28  C   UNL     1      -2.179  13.117  20.350  0.00  0.00    +0.000 A 
ATOM     29  C   UNL     1      -3.338  12.900  21.113  0.00  0.00    +0.000 A 
ATOM     30  C   UNL     1      -3.729  13.863  22.038  0.00  0.00    +0.000 A 
ATOM     31  C   UNL     1      -2.951  15.028  22.171  0.00  0.00    +0.000 A 
ATOM     32  C   UNL     1      -1.777  15.225  21.432  0.00  0.00    +0.000 A 
BRANCH  30  33
ATOM     33  C   UNL     1      -4.933  13.720  22.812  0.00  0.00    +0.000 C 
ATOM     34  N   UNL     1      -5.922  13.637  23.444  0.00  0.00    +0.000 NA
ENDBRANCH  30  33
ENDBRANCH   4  27
TORSDOF 2
ENDMDL
MODEL 8
REMARK VINA RESULT:      -6.4      1.410      1.541
REMARK  Name = 
REMARK  3 active torsions:
REMARK  status: ('A' for Active; 'I' for Inactive)
REMARK    1  A    between atoms: C_1  and  N_2
REMARK    2  A    between atoms: C_4  and  C_5
REMARK    3  A    between atoms: C_8  and  C_9
REMARK                            x       y       z     vdW  Elec       q    Type
REMARK                         _______ _______ _______ _____ _____    ______ ____
ROOT
ATOM      1  C   UNL     1      -2.343  16.083  25.337  0.00  0.00    +0.000 C 
ATOM      2  N   UNL     1      -2.086  14.972  24.416  0.00  0.00    +0.000 NA
ATOM      3  C   UNL     1      -0.771  15.280  23.795  0.00  0.00    +0.000 C 
ATOM      4  C   UNL     1      -0.605  14.366  22.598  0.00  0.00    +0.000 C 
ATOM      5  C   UNL     1      -2.077  13.905  22.283  0.00  0.00    +0.000 C 
ATOM      6  C   UNL     1      -2.499  13.942  20.818  0.00  0.00    +0.000 C 
ATOM      7  O   UNL     1      -1.636  13.213  19.928  0.00  0.00    +0.000 OA
ATOM      8  C   UNL     1      -1.186  12.004  20.380  0.00  0.00    +0.000 A 
ATOM      9  C   UNL     1      -0.387  11.256  19.515  0.00  0.00    +0.000 A 
ATOM     10  C   UNL     1       0.200  10.059  19.945  0.00  0.00    +0.000 A 
ATOM     11  C   UNL     1      -0.022   9.587  21.237  0.00  0.00    +0.000 A 
ATOM     12  C   UNL     1      -0.823  10.321  22.101  0.00  0.00    +0.000 A 
ATOM     13  C   UNL     1      -1.385  11.531  21.669  0.00  0.00    +0.000 A 
ATOM     14  C   UNL     1      -1.979  12.428  22.666  0.00  0.00    +0.000 C 
ATOM     15  O   UNL     1      -2.096  11.988  23.806  0.00  0.00    +0.000 OA
ATOM     16  C   UNL     1      -3.042  14.683  23.280  0.00  0.00    +0.000 C 
ATOM     17  C   UNL     1      -3.631  16.086  22.751  0.00  0.00    +0.000 C 
ATOM     18  O   UNL     1      -3.063  17.167  22.650  0.00  0.00    +0.000 OA
ATOM     19  N   UNL     1      -5.003  15.965  22.546  0.00  0.00    +0.000 N 
ATOM     20  C   UNL     1      -5.460  14.875  23.282  0.00  0.00    +0.000 A 
ATOM     21  C   UNL     1      -6.807  14.668  23.572  0.00  0.00    +0.000 A 
ATOM     22  C   UNL     1      -7.181  13.437  24.085  0.00  0.00    +0.000 A 
ATOM     23  C   UNL     1      -6.218  12.433  24.158  0.00  0.00    +0.000 A 
ATOM     24  C   UNL     1      -4.851  12.710  23.912  0.00  0.00    +0.000 A 
ATOM     25  C   UNL     1      -4.420  13.995  23.578  0.00  0.00    +0.000 A 
ATOM     26  H   UNL     1      -5.203  15.798  21.559  0.00  0.00    +0.000 HD
ENDROOT
BRANCH   4  27
ATOM     27  C   UNL     1       0.362  14.916  21.556  0.00  0.00    +0.000 A 
ATOM     28  C   UNL     1       1.526  14.175  21.208  0.00  0.00    +0.000 A 
ATOM     29  C   UNL     1       2.545  14.689  20.391  0.00  0.00    +0.000 A 
ATOM     30  C   UNL     1       2.415  15.975  19.876  0.00  0.00    +0.000 A 
ATOM     31  C   UNL     1       1.266  16.720  20.200  0.00  0.00    +0.000 A 
ATOM     32  C   UNL     1       0.235  16.191  20.988  0.00  0.00    +0.000 A 
BRANCH  30  33
ATOM     33  C   UNL     1       3.448  16.575  19.074  0.00  0.00    +0.000 C 
ATOM     34  N   UNL     1       4.275  17.060  18.391  0.00  0.00    +0.000 NA
ENDBRANCH  30  33
ENDBRANCH   4  27
TORSDOF 2
ENDMDL
MODEL 9
REMARK VINA RESULT:      -6.4      2.232      7.416
REMARK  Name = 
REMARK  3 active torsions:
REMARK  status: ('A' for Active; 'I' for Inactive)
REMARK    1  A    between atoms: C_1  and  N_2
REMARK    2  A    between atoms: C_4  and  C_5
REMARK    3  A    between atoms: C_8  and  C_9
REMARK                            x       y       z     vdW  Elec       q    Type
REMARK                         _______ _______ _______ _____ _____    ______ ____
ROOT
ATOM      1  C   UNL     1       1.087  10.736  21.172  0.00  0.00    +0.000 C 
ATOM      2  N   UNL     1       0.739  12.101  21.577  0.00  0.00    +0.000 NA
ATOM      3  C   UNL     1      -0.533  11.967  22.335  0.00  0.00    +0.000 C 
ATOM      4  C   UNL     1      -1.125  13.354  22.487  0.00  0.00    +0.000 C 
ATOM      5  C   UNL     1      -0.404  14.183  21.359  0.00  0.00    +0.000 C 
ATOM      6  C   UNL     1      -1.293  15.087  20.512  0.00  0.00    +0.000 C 
ATOM      7  O   UNL     1      -2.094  16.015  21.263  0.00  0.00    +0.000 OA
ATOM      8  C   UNL     1      -1.479  16.622  22.322  0.00  0.00    +0.000 A 
ATOM      9  C   UNL     1      -2.220  17.563  23.038  0.00  0.00    +0.000 A 
ATOM     10  C   UNL     1      -1.697  18.147  24.199  0.00  0.00    +0.000 A 
ATOM     11  C   UNL     1      -0.420  17.812  24.645  0.00  0.00    +0.000 A 
ATOM     12  C   UNL     1       0.327  16.883  23.934  0.00  0.00    +0.000 A 
ATOM     13  C   UNL     1      -0.216  16.285  22.787  0.00  0.00    +0.000 A 
ATOM     14  C   UNL     1       0.455  15.110  22.221  0.00  0.00    +0.000 C 
ATOM     15  O   UNL     1       1.550  14.817  22.691  0.00  0.00    +0.000 OA
ATOM     16  C   UNL     1       0.508  13.173  20.535  0.00  0.00    +0.000 C 
ATOM     17  C   UNL     1      -0.175  12.484  19.249  0.00  0.00    +0.000 C 
ATOM     18  O   UNL     1      -1.000  11.580  19.211  0.00  0.00    +0.000 OA
ATOM     19  N   UNL     1       0.432  12.962  18.090  0.00  0.00    +0.000 N 
ATOM     20  C   UNL     1       1.677  13.484  18.433  0.00  0.00    +0.000 A 
ATOM     21  C   UNL     1       2.676  13.737  17.495  0.00  0.00    +0.000 A 
ATOM     22  C   UNL     1       3.771  14.484  17.897  0.00  0.00    +0.000 A 
ATOM     23  C   UNL     1       3.753  15.051  19.169  0.00  0.00    +0.000 A 
ATOM     24  C   UNL     1       2.746  14.713  20.106  0.00  0.00    +0.000 A 
ATOM     25  C   UNL     1       1.732  13.808  19.788  0.00  0.00    +0.000 A 
ATOM     26  H   UNL     1      -0.129  13.706  17.674  0.00  0.00    +0.000 HD
ENDROOT
BRANCH   4  27
ATOM     27  C   UNL     1      -2.633  13.339  22.709  0.00  0.00    +0.000 A 
ATOM     28  C   UNL     1      -3.167  13.740  23.965  0.00  0.00    +0.000 A 
ATOM     29  C   UNL     1      -4.522  13.592  24.303  0.00  0.00    +0.000 A 
ATOM     30  C   UNL     1      -5.396  13.046  23.368  0.00  0.00    +0.000 A 
ATOM     31  C   UNL     1      -4.888  12.652  22.116  0.00  0.00    +0.000 A 
ATOM     32  C   UNL     1      -3.542  12.833  21.771  0.00  0.00    +0.000 A 
BRANCH  30  33
ATOM     33  C   UNL     1      -6.784  12.823  23.674  0.00  0.00    +0.000 C 
ATOM     34  N   UNL     1      -7.915  12.607  23.922  0.00  0.00    +0.000 NA
ENDBRANCH  30  33
ENDBRANCH   4  27
TORSDOF 2
ENDMDL
