MODEL 1
REMARK VINA RESULT:      -7.1      0.000      0.000
REMARK  Name = 
REMARK  3 active torsions:
REMARK  status: ('A' for Active; 'I' for Inactive)
REMARK    1  A    between atoms: C_4  and  C_5
REMARK    2  A    between atoms: C_5  and  C_8
REMARK    3  A    between atoms: C_8  and  C_11
REMARK                            x       y       z     vdW  Elec       q    Type
REMARK                         _______ _______ _______ _____ _____    ______ ____
ROOT
ATOM      1  C   UNL     1       2.929   5.052  18.516  0.00  0.00    +0.000 C 
ATOM      2  F   UNL     1       2.673   5.255  19.850  0.00  0.00    +0.000 F 
ATOM      3  F   UNL     1       2.659   6.258  17.923  0.00  0.00    +0.000 F 
ENDROOT
BRANCH   1   7
ATOM      4  N   UNL     1       7.386   4.700  16.695  0.00  0.00    +0.000 N 
ATOM      5  C   UNL     1       6.299   4.588  17.462  0.00  0.00    +0.000 A 
ATOM      6  N   UNL     1       5.109   5.085  17.241  0.00  0.00    +0.000 NA
ATOM      7  C   UNL     1       4.376   4.676  18.330  0.00  0.00    +0.000 A 
ATOM      8  N   UNL     1       5.073   3.952  19.223  0.00  0.00    +0.000 NA
ATOM      9  N   UNL     1       6.284   3.900  18.641  0.00  0.00    +0.000 N 
ATOM     10  H   UNL     1       7.338   5.369  15.928  0.00  0.00    +0.000 HD
ATOM     11  H   UNL     1       8.326   4.565  17.052  0.00  0.00    +0.000 HD
ATOM     12  H   UNL     1       7.036   3.389  19.086  0.00  0.00    +0.000 HD
ENDBRANCH   1   7
BRANCH   1  13
ATOM     13  C   UNL     1       1.949   4.022  17.991  0.00  0.00    +0.000 C 
ATOM     14  F   UNL     1       0.985   4.586  17.206  0.00  0.00    +0.000 F 
ATOM     15  F   UNL     1       2.622   3.174  17.143  0.00  0.00    +0.000 F 
BRANCH  13  16
ATOM     16  C   UNL     1       1.338   3.219  19.129  0.00  0.00    +0.000 C 
ATOM     17  F   UNL     1       2.238   2.579  19.909  0.00  0.00    +0.000 F 
ATOM     18  F   UNL     1       0.572   3.985  19.947  0.00  0.00    +0.000 F 
ATOM     19  F   UNL     1       0.503   2.255  18.650  0.00  0.00    +0.000 F 
ENDBRANCH  13  16
ENDBRANCH   1  13
TORSDOF 3
ENDMDL
MODEL 2
REMARK VINA RESULT:      -7.0      0.853      1.817
REMARK  Name = 
REMARK  3 active torsions:
REMARK  status: ('A' for Active; 'I' for Inactive)
REMARK    1  A    between atoms: C_4  and  C_5
REMARK    2  A    between atoms: C_5  and  C_8
REMARK    3  A    between atoms: C_8  and  C_11
REMARK                            x       y       z     vdW  Elec       q    Type
REMARK                         _______ _______ _______ _____ _____    ______ ____
ROOT
ATOM      1  C   UNL     1       2.982   3.274  17.896  0.00  0.00    +0.000 C 
ATOM      2  F   UNL     1       2.670   3.100  16.569  0.00  0.00    +0.000 F 
ATOM      3  F   UNL     1       2.771   2.045  18.467  0.00  0.00    +0.000 F 
ENDROOT
BRANCH   1   7
ATOM      4  N   UNL     1       7.394   4.941  16.867  0.00  0.00    +0.000 N 
ATOM      5  C   UNL     1       6.322   4.440  17.485  0.00  0.00    +0.000 A 
ATOM      6  N   UNL     1       5.150   4.176  16.967  0.00  0.00    +0.000 NA
ATOM      7  C   UNL     1       4.425   3.685  18.027  0.00  0.00    +0.000 A 
ATOM      8  N   UNL     1       5.104   3.646  19.188  0.00  0.00    +0.000 NA
ATOM      9  N   UNL     1       6.307   4.116  18.811  0.00  0.00    +0.000 N 
ATOM     10  H   UNL     1       7.252   5.302  15.926  0.00  0.00    +0.000 HD
ATOM     11  H   UNL     1       8.149   5.400  17.365  0.00  0.00    +0.000 HD
ATOM     12  H   UNL     1       7.055   4.186  19.489  0.00  0.00    +0.000 HD
ENDBRANCH   1   7
BRANCH   1  13
ATOM     13  C   UNL     1       2.000   4.261  18.494  0.00  0.00    +0.000 C 
ATOM     14  F   UNL     1       2.574   5.480  18.719  0.00  0.00    +0.000 F 
ATOM     15  F   UNL     1       1.019   4.516  17.565  0.00  0.00    +0.000 F 
BRANCH  13  16
ATOM     16  C   UNL     1       1.365   3.705  19.760  0.00  0.00    +0.000 C 
ATOM     17  F   UNL     1       2.235   3.111  20.607  0.00  0.00    +0.000 F 
ATOM     18  F   UNL     1       0.705   4.657  20.466  0.00  0.00    +0.000 F 
ATOM     19  F   UNL     1       0.430   2.763  19.459  0.00  0.00    +0.000 F 
ENDBRANCH  13  16
ENDBRANCH   1  13
TORSDOF 3
ENDMDL
MODEL 3
REMARK VINA RESULT:      -7.0      0.798      1.697
REMARK  Name = 
REMARK  3 active torsions:
REMARK  status: ('A' for Active; 'I' for Inactive)
REMARK    1  A    between atoms: C_4  and  C_5
REMARK    2  A    between atoms: C_5  and  C_8
REMARK    3  A    between atoms: C_8  and  C_11
REMARK                            x       y       z     vdW  Elec       q    Type
REMARK                         _______ _______ _______ _____ _____    ______ ____
ROOT
ATOM      1  C   UNL     1       3.622   4.591  18.749  0.00  0.00    +0.000 C 
ATOM      2  F   UNL     1       3.606   5.014  20.057  0.00  0.00    +0.000 F 
ATOM      3  F   UNL     1       2.921   5.549  18.065  0.00  0.00    +0.000 F 
ENDROOT
BRANCH   1   7
ATOM      4  N   UNL     1       7.519   4.805  15.908  0.00  0.00    +0.000 N 
ATOM      5  C   UNL     1       6.691   4.648  16.944  0.00  0.00    +0.000 A 
ATOM      6  N   UNL     1       5.391   4.793  16.959  0.00  0.00    +0.000 NA
ATOM      7  C   UNL     1       5.044   4.515  18.260  0.00  0.00    +0.000 A 
ATOM      8  N   UNL     1       6.086   4.212  19.055  0.00  0.00    +0.000 NA
ATOM      9  N   UNL     1       7.114   4.290  18.191  0.00  0.00    +0.000 N 
ATOM     10  H   UNL     1       7.128   5.233  15.071  0.00  0.00    +0.000 HD
ATOM     11  H   UNL     1       8.512   4.978  16.022  0.00  0.00    +0.000 HD
ATOM     12  H   UNL     1       8.054   4.089  18.508  0.00  0.00    +0.000 HD
ENDBRANCH   1   7
BRANCH   1  13
ATOM     13  C   UNL     1       2.866   3.280  18.661  0.00  0.00    +0.000 C 
ATOM     14  F   UNL     1       3.319   2.495  17.640  0.00  0.00    +0.000 F 
ATOM     15  F   UNL     1       3.131   2.548  19.794  0.00  0.00    +0.000 F 
BRANCH  13  16
ATOM     16  C   UNL     1       1.367   3.519  18.554  0.00  0.00    +0.000 C 
ATOM     17  F   UNL     1       0.995   4.266  17.490  0.00  0.00    +0.000 F 
ATOM     18  F   UNL     1       0.664   2.360  18.495  0.00  0.00    +0.000 F 
ATOM     19  F   UNL     1       0.899   4.171  19.653  0.00  0.00    +0.000 F 
ENDBRANCH  13  16
ENDBRANCH   1  13
TORSDOF 3
ENDMDL
MODEL 4
REMARK VINA RESULT:      -7.0      0.897      1.360
REMARK  Name = 
REMARK  3 active torsions:
REMARK  status: ('A' for Active; 'I' for Inactive)
REMARK    1  A    between atoms: C_4  and  C_5
REMARK    2  A    between atoms: C_5  and  C_8
REMARK    3  A    between atoms: C_8  and  C_11
REMARK                            x       y       z     vdW  Elec       q    Type
REMARK                         _______ _______ _______ _____ _____    ______ ____
ROOT
ATOM      1  C   UNL     1       3.381   4.259  18.671  0.00  0.00    +0.000 C 
ATOM      2  F   UNL     1       3.282   4.391  20.036  0.00  0.00    +0.000 F 
ATOM      3  F   UNL     1       2.700   5.338  18.168  0.00  0.00    +0.000 F 
ENDROOT
BRANCH   1   7
ATOM      4  N   UNL     1       7.397   4.719  16.034  0.00  0.00    +0.000 N 
ATOM      5  C   UNL     1       6.530   4.532  17.031  0.00  0.00    +0.000 A 
ATOM      6  N   UNL     1       5.223   4.547  16.969  0.00  0.00    +0.000 NA
ATOM      7  C   UNL     1       4.829   4.301  18.263  0.00  0.00    +0.000 A 
ATOM      8  N   UNL     1       5.847   4.144  19.128  0.00  0.00    +0.000 NA
ATOM      9  N   UNL     1       6.912   4.281  18.317  0.00  0.00    +0.000 N 
ATOM     10  H   UNL     1       7.016   5.063  15.154  0.00  0.00    +0.000 HD
ATOM     11  H   UNL     1       8.360   4.996  16.190  0.00  0.00    +0.000 HD
ATOM     12  H   UNL     1       7.847   4.190  18.694  0.00  0.00    +0.000 HD
ENDBRANCH   1   7
BRANCH   1  13
ATOM     13  C   UNL     1       2.657   2.993  18.259  0.00  0.00    +0.000 C 
ATOM     14  F   UNL     1       2.347   2.992  16.929  0.00  0.00    +0.000 F 
ATOM     15  F   UNL     1       3.519   1.932  18.406  0.00  0.00    +0.000 F 
BRANCH  13  16
ATOM     16  C   UNL     1       1.422   2.764  19.117  0.00  0.00    +0.000 C 
ATOM     17  F   UNL     1       0.462   2.018  18.526  0.00  0.00    +0.000 F 
ATOM     18  F   UNL     1       1.719   2.170  20.300  0.00  0.00    +0.000 F 
ATOM     19  F   UNL     1       0.832   3.947  19.443  0.00  0.00    +0.000 F 
ENDBRANCH  13  16
ENDBRANCH   1  13
TORSDOF 3
ENDMDL
MODEL 5
REMARK VINA RESULT:      -6.9      0.963      2.128
REMARK  Name = 
REMARK  3 active torsions:
REMARK  status: ('A' for Active; 'I' for Inactive)
REMARK    1  A    between atoms: C_4  and  C_5
REMARK    2  A    between atoms: C_5  and  C_8
REMARK    3  A    between atoms: C_8  and  C_11
REMARK                            x       y       z     vdW  Elec       q    Type
REMARK                         _______ _______ _______ _____ _____    ______ ____
ROOT
ATOM      1  C   UNL     1       3.083   3.412  18.213  0.00  0.00    +0.000 C 
ATOM      2  F   UNL     1       2.655   2.933  16.998  0.00  0.00    +0.000 F 
ATOM      3  F   UNL     1       2.889   2.372  19.084  0.00  0.00    +0.000 F 
ENDROOT
BRANCH   1   7
ATOM      4  N   UNL     1       7.383   4.779  16.497  0.00  0.00    +0.000 N 
ATOM      5  C   UNL     1       6.380   4.391  17.287  0.00  0.00    +0.000 A 
ATOM      6  N   UNL     1       5.147   4.122  16.942  0.00  0.00    +0.000 NA
ATOM      7  C   UNL     1       4.542   3.775  18.127  0.00  0.00    +0.000 A 
ATOM      8  N   UNL     1       5.355   3.830  19.197  0.00  0.00    +0.000 NA
ATOM      9  N   UNL     1       6.516   4.209  18.633  0.00  0.00    +0.000 N 
ATOM     10  H   UNL     1       7.139   5.046  15.545  0.00  0.00    +0.000 HD
ATOM     11  H   UNL     1       8.206   5.256  16.850  0.00  0.00    +0.000 HD
ATOM     12  H   UNL     1       7.343   4.318  19.207  0.00  0.00    +0.000 HD
ENDBRANCH   1   7
BRANCH   1  13
ATOM     13  C   UNL     1       2.182   4.561  18.619  0.00  0.00    +0.000 C 
ATOM     14  F   UNL     1       2.797   5.772  18.469  0.00  0.00    +0.000 F 
ATOM     15  F   UNL     1       1.120   4.611  17.747  0.00  0.00    +0.000 F 
BRANCH  13  16
ATOM     16  C   UNL     1       1.663   4.375  20.037  0.00  0.00    +0.000 C 
ATOM     17  F   UNL     1       0.658   3.477  20.151  0.00  0.00    +0.000 F 
ATOM     18  F   UNL     1       2.640   3.993  20.898  0.00  0.00    +0.000 F 
ATOM     19  F   UNL     1       1.179   5.546  20.534  0.00  0.00    +0.000 F 
ENDBRANCH  13  16
ENDBRANCH   1  13
TORSDOF 3
ENDMDL
MODEL 6
REMARK VINA RESULT:      -6.9      1.201      1.948
REMARK  Name = 
REMARK  3 active torsions:
REMARK  status: ('A' for Active; 'I' for Inactive)
REMARK    1  A    between atoms: C_4  and  C_5
REMARK    2  A    between atoms: C_5  and  C_8
REMARK    3  A    between atoms: C_8  and  C_11
REMARK                            x       y       z     vdW  Elec       q    Type
REMARK                         _______ _______ _______ _____ _____    ______ ____
ROOT
ATOM      1  C   UNL     1       3.053   4.405  19.269  0.00  0.00    +0.000 C 
ATOM      2  F   UNL     1       3.136   5.378  20.236  0.00  0.00    +0.000 F 
ATOM      3  F   UNL     1       2.086   4.852  18.408  0.00  0.00    +0.000 F 
ENDROOT
BRANCH   1   7
ATOM      4  N   UNL     1       6.417   4.179  15.815  0.00  0.00    +0.000 N 
ATOM      5  C   UNL     1       5.779   4.199  16.987  0.00  0.00    +0.000 A 
ATOM      6  N   UNL     1       4.493   4.309  17.197  0.00  0.00    +0.000 NA
ATOM      7  C   UNL     1       4.379   4.275  18.567  0.00  0.00    +0.000 A 
ATOM      8  N   UNL     1       5.552   4.160  19.214  0.00  0.00    +0.000 NA
ATOM      9  N   UNL     1       6.420   4.099  18.188  0.00  0.00    +0.000 N 
ATOM     10  H   UNL     1       5.871   4.427  14.992  0.00  0.00    +0.000 HD
ATOM     11  H   UNL     1       7.403   4.397  15.723  0.00  0.00    +0.000 HD
ATOM     12  H   UNL     1       7.409   3.988  18.372  0.00  0.00    +0.000 HD
ENDBRANCH   1   7
BRANCH   1  13
ATOM     13  C   UNL     1       2.570   3.124  19.919  0.00  0.00    +0.000 C 
ATOM     14  F   UNL     1       2.755   2.038  19.112  0.00  0.00    +0.000 F 
ATOM     15  F   UNL     1       3.358   2.868  21.017  0.00  0.00    +0.000 F 
BRANCH  13  16
ATOM     16  C   UNL     1       1.118   3.247  20.358  0.00  0.00    +0.000 C 
ATOM     17  F   UNL     1       0.707   4.515  20.581  0.00  0.00    +0.000 F 
ATOM     18  F   UNL     1       0.260   2.700  19.459  0.00  0.00    +0.000 F 
ATOM     19  F   UNL     1       0.903   2.571  21.520  0.00  0.00    +0.000 F 
ENDBRANCH  13  16
ENDBRANCH   1  13
TORSDOF 3
ENDMDL
MODEL 7
REMARK VINA RESULT:      -6.9      0.935      1.531
REMARK  Name = 
REMARK  3 active torsions:
REMARK  status: ('A' for Active; 'I' for Inactive)
REMARK    1  A    between atoms: C_4  and  C_5
REMARK    2  A    between atoms: C_5  and  C_8
REMARK    3  A    between atoms: C_8  and  C_11
REMARK                            x       y       z     vdW  Elec       q    Type
REMARK                         _______ _______ _______ _____ _____    ______ ____
ROOT
ATOM      1  C   UNL     1       3.708   4.740  18.811  0.00  0.00    +0.000 C 
ATOM      2  F   UNL     1       3.723   5.411  20.010  0.00  0.00    +0.000 F 
ATOM      3  F   UNL     1       2.955   5.529  17.980  0.00  0.00    +0.000 F 
ENDROOT
BRANCH   1   7
ATOM      4  N   UNL     1       7.547   4.784  15.886  0.00  0.00    +0.000 N 
ATOM      5  C   UNL     1       6.736   4.663  16.939  0.00  0.00    +0.000 A 
ATOM      6  N   UNL     1       5.444   4.864  16.982  0.00  0.00    +0.000 NA
ATOM      7  C   UNL     1       5.114   4.602  18.291  0.00  0.00    +0.000 A 
ATOM      8  N   UNL     1       6.159   4.256  19.064  0.00  0.00    +0.000 NA
ATOM      9  N   UNL     1       7.171   4.288  18.178  0.00  0.00    +0.000 N 
ATOM     10  H   UNL     1       7.157   5.227  15.057  0.00  0.00    +0.000 HD
ATOM     11  H   UNL     1       8.549   4.914  15.978  0.00  0.00    +0.000 HD
ATOM     12  H   UNL     1       8.108   4.047  18.475  0.00  0.00    +0.000 HD
ENDBRANCH   1   7
BRANCH   1  13
ATOM     13  C   UNL     1       2.989   3.421  19.010  0.00  0.00    +0.000 C 
ATOM     14  F   UNL     1       3.354   2.493  18.076  0.00  0.00    +0.000 F 
ATOM     15  F   UNL     1       3.399   2.877  20.204  0.00  0.00    +0.000 F 
BRANCH  13  16
ATOM     16  C   UNL     1       1.481   3.617  19.036  0.00  0.00    +0.000 C 
ATOM     17  F   UNL     1       0.779   2.513  19.378  0.00  0.00    +0.000 F 
ATOM     18  F   UNL     1       1.105   4.609  19.883  0.00  0.00    +0.000 F 
ATOM     19  F   UNL     1       1.019   3.992  17.811  0.00  0.00    +0.000 F 
ENDBRANCH  13  16
ENDBRANCH   1  13
TORSDOF 3
ENDMDL
MODEL 8
REMARK VINA RESULT:      -6.9      1.279      2.033
REMARK  Name = 
REMARK  3 active torsions:
REMARK  status: ('A' for Active; 'I' for Inactive)
REMARK    1  A    between atoms: C_4  and  C_5
REMARK    2  A    between atoms: C_5  and  C_8
REMARK    3  A    between atoms: C_8  and  C_11
REMARK                            x       y       z     vdW  Elec       q    Type
REMARK                         _______ _______ _______ _____ _____    ______ ____
ROOT
ATOM      1  C   UNL     1       2.376   4.133  18.472  0.00  0.00    +0.000 C 
ATOM      2  F   UNL     1       1.834   5.334  18.865  0.00  0.00    +0.000 F 
ATOM      3  F   UNL     1       1.844   3.902  17.230  0.00  0.00    +0.000 F 
ENDROOT
BRANCH   1   7
ATOM      4  N   UNL     1       6.946   5.289  19.512  0.00  0.00    +0.000 N 
ATOM      5  C   UNL     1       5.842   4.799  18.941  0.00  0.00    +0.000 A 
ATOM      6  N   UNL     1       4.603   4.957  19.330  0.00  0.00    +0.000 NA
ATOM      7  C   UNL     1       3.875   4.254  18.400  0.00  0.00    +0.000 A 
ATOM      8  N   UNL     1       4.621   3.657  17.453  0.00  0.00    +0.000 NA
ATOM      9  N   UNL     1       5.862   4.031  17.813  0.00  0.00    +0.000 N 
ATOM     10  H   UNL     1       6.838   5.704  20.435  0.00  0.00    +0.000 HD
ATOM     11  H   UNL     1       7.866   4.892  19.354  0.00  0.00    +0.000 HD
ATOM     12  H   UNL     1       6.657   3.740  17.258  0.00  0.00    +0.000 HD
ENDBRANCH   1   7
BRANCH   1  13
ATOM     13  C   UNL     1       1.887   3.055  19.419  0.00  0.00    +0.000 C 
ATOM     14  F   UNL     1       0.935   2.262  18.843  0.00  0.00    +0.000 F 
ATOM     15  F   UNL     1       2.930   2.197  19.678  0.00  0.00    +0.000 F 
BRANCH  13  16
ATOM     16  C   UNL     1       1.391   3.657  20.725  0.00  0.00    +0.000 C 
ATOM     17  F   UNL     1       2.324   4.358  21.407  0.00  0.00    +0.000 F 
ATOM     18  F   UNL     1       0.327   4.479  20.543  0.00  0.00    +0.000 F 
ATOM     19  F   UNL     1       0.957   2.685  21.573  0.00  0.00    +0.000 F 
ENDBRANCH  13  16
ENDBRANCH   1  13
TORSDOF 3
ENDMDL
MODEL 9
REMARK VINA RESULT:      -6.8      1.501      2.386
REMARK  Name = 
REMARK  3 active torsions:
REMARK  status: ('A' for Active; 'I' for Inactive)
REMARK    1  A    between atoms: C_4  and  C_5
REMARK    2  A    between atoms: C_5  and  C_8
REMARK    3  A    between atoms: C_8  and  C_11
REMARK                            x       y       z     vdW  Elec       q    Type
REMARK                         _______ _______ _______ _____ _____    ______ ____
ROOT
ATOM      1  C   UNL     1       2.126   4.131  19.010  0.00  0.00    +0.000 C 
ATOM      2  F   UNL     1       1.698   5.316  19.558  0.00  0.00    +0.000 F 
ATOM      3  F   UNL     1       1.558   4.099  17.763  0.00  0.00    +0.000 F 
ENDROOT
BRANCH   1   7
ATOM      4  N   UNL     1       6.760   5.387  19.515  0.00  0.00    +0.000 N 
ATOM      5  C   UNL     1       5.627   4.756  19.196  0.00  0.00    +0.000 A 
ATOM      6  N   UNL     1       4.401   5.130  19.459  0.00  0.00    +0.000 NA
ATOM      7  C   UNL     1       3.629   4.131  18.915  0.00  0.00    +0.000 A 
ATOM      8  N   UNL     1       4.334   3.145  18.333  0.00  0.00    +0.000 NA
ATOM      9  N   UNL     1       5.596   3.574  18.514  0.00  0.00    +0.000 N 
ATOM     10  H   UNL     1       6.682   6.167  20.164  0.00  0.00    +0.000 HD
ATOM     11  H   UNL     1       7.657   4.915  19.558  0.00  0.00    +0.000 HD
ATOM     12  H   UNL     1       6.370   3.030  18.153  0.00  0.00    +0.000 HD
ENDBRANCH   1   7
BRANCH   1  13
ATOM     13  C   UNL     1       1.558   2.991  19.832  0.00  0.00    +0.000 C 
ATOM     14  F   UNL     1       0.193   2.963  19.793  0.00  0.00    +0.000 F 
ATOM     15  F   UNL     1       1.938   1.804  19.251  0.00  0.00    +0.000 F 
BRANCH  13  16
ATOM     16  C   UNL     1       2.071   3.040  21.263  0.00  0.00    +0.000 C 
ATOM     17  F   UNL     1       1.245   2.475  22.172  0.00  0.00    +0.000 F 
ATOM     18  F   UNL     1       3.282   2.442  21.398  0.00  0.00    +0.000 F 
ATOM     19  F   UNL     1       2.255   4.326  21.670  0.00  0.00    +0.000 F 
ENDBRANCH  13  16
ENDBRANCH   1  13
TORSDOF 3
ENDMDL
