MODEL 1
REMARK VINA RESULT:      -7.9      0.000      0.000
REMARK  Name = 
REMARK  13 active torsions:
REMARK  status: ('A' for Active; 'I' for Inactive)
REMARK    1  A    between atoms: C_1  and  O_2
REMARK    2  A    between atoms: O_2  and  C_3
REMARK    3  A    between atoms: C_5  and  N_6
REMARK    4  A    between atoms: N_6  and  C_7
REMARK    5  A    between atoms: N_6  and  C_8
REMARK    6  A    between atoms: C_8  and  C_9
REMARK    7  A    between atoms: C_9  and  C_10
REMARK    8  A    between atoms: C_10  and  N_11
REMARK    9  A    between atoms: N_11  and  C_12
REMARK   10  A    between atoms: N_11  and  C_13
REMARK   11  A    between atoms: C_16  and  C_17
REMARK   12  A    between atoms: N_19  and  C_20
REMARK   13  A    between atoms: C_23  and  N_24
REMARK                            x       y       z     vdW  Elec       q    Type
REMARK                         _______ _______ _______ _____ _____    ______ ____
ROOT
ATOM      1  C   UNL     1      -2.476  12.626  22.428  0.00  0.00    +0.000 A 
ATOM      2  C   UNL     1      -2.458  12.797  21.036  0.00  0.00    +0.000 A 
ATOM      3  C   UNL     1      -1.646  12.036  20.162  0.00  0.00    +0.000 A 
ATOM      4  C   UNL     1      -0.844  11.040  20.787  0.00  0.00    +0.000 A 
ATOM      5  N   UNL     1      -0.008  10.179  20.062  0.00  0.00    +0.000 N 
ATOM      6  C   UNL     1       0.769   9.189  20.634  0.00  0.00    +0.000 A 
ATOM      7  C   UNL     1       0.786   8.939  21.947  0.00  0.00    +0.000 A 
ATOM      8  C   UNL     1      -0.086   9.764  22.812  0.00  0.00    +0.000 A 
ATOM      9  O   UNL     1      -0.101   9.560  24.021  0.00  0.00    +0.000 OA
ATOM     10  C   UNL     1      -0.913  10.834  22.187  0.00  0.00    +0.000 A 
ATOM     11  C   UNL     1      -1.709  11.632  23.007  0.00  0.00    +0.000 A 
ATOM     12  H   UNL     1       0.316  10.492  19.148  0.00  0.00    +0.000 HD
ENDROOT
BRANCH   6  13
ATOM     13  C   UNL     1       1.667   8.490  19.649  0.00  0.00    +0.000 C 
ATOM     14  O   UNL     1       1.649   8.946  18.504  0.00  0.00    +0.000 OA
ATOM     15  N   UNL     1       2.329   7.347  20.055  0.00  0.00    +0.000 N 
ATOM     16  H   UNL     1       2.106   6.952  20.957  0.00  0.00    +0.000 HD
BRANCH  15  17
ATOM     17  C   UNL     1       3.170   6.578  19.212  0.00  0.00    +0.000 A 
ATOM     18  C   UNL     1       3.515   5.256  19.512  0.00  0.00    +0.000 A 
ATOM     19  C   UNL     1       4.364   4.523  18.682  0.00  0.00    +0.000 A 
ATOM     20  C   UNL     1       4.900   5.066  17.517  0.00  0.00    +0.000 A 
ATOM     21  C   UNL     1       4.546   6.390  17.217  0.00  0.00    +0.000 A 
ATOM     22  C   UNL     1       3.678   7.139  18.040  0.00  0.00    +0.000 A 
BRANCH  20  23
ATOM     23  N   UNL     1       5.706   4.322  16.671  0.00  0.00    +0.000 N 
ATOM     24  C   UNL     1       7.138   4.625  16.490  0.00  0.00    +0.000 C 
ATOM     25  C   UNL     1       7.437   5.123  15.069  0.00  0.00    +0.000 C 
ATOM     26  O   UNL     1       6.918   4.228  14.073  0.00  0.00    +0.000 OA
ATOM     27  C   UNL     1       5.493   4.106  14.218  0.00  0.00    +0.000 C 
ATOM     28  C   UNL     1       5.108   3.525  15.590  0.00  0.00    +0.000 C 
ENDBRANCH  20  23
ENDBRANCH  15  17
ENDBRANCH   6  13
BRANCH   1  30
ATOM     29  C   UNL     1      -3.853  12.937  24.323  0.00  0.00    +0.000 C 
ATOM     30  O   UNL     1      -3.318  13.462  23.112  0.00  0.00    +0.000 OA
ENDBRANCH   1  30
BRANCH   3  31
ATOM     31  N   UNL     1      -1.614  12.332  18.790  0.00  0.00    +0.000 N 
ATOM     32  C   UNL     1      -0.566  13.151  18.177  0.00  0.00    +0.000 C 
BRANCH  31  33
ATOM     33  C   UNL     1      -2.369  11.520  17.808  0.00  0.00    +0.000 C 
BRANCH  33  34
ATOM     34  C   UNL     1      -3.725  11.059  18.345  0.00  0.00    +0.000 C 
BRANCH  34  35
ATOM     35  C   UNL     1      -4.841  12.062  18.029  0.00  0.00    +0.000 C 
BRANCH  35  36
ATOM     36  N   UNL     1      -6.149  11.422  17.781  0.00  0.00    +0.000 NA
ATOM     37  C   UNL     1      -6.486  10.451  18.826  0.00  0.00    +0.000 C 
ATOM     38  C   UNL     1      -7.190  12.453  17.723  0.00  0.00    +0.000 C 
ENDBRANCH  35  36
ENDBRANCH  34  35
ENDBRANCH  33  34
ENDBRANCH  31  33
ENDBRANCH   3  31
TORSDOF 9
ENDMDL
MODEL 2
REMARK VINA RESULT:      -7.8      1.262      1.770
REMARK  Name = 
REMARK  13 active torsions:
REMARK  status: ('A' for Active; 'I' for Inactive)
REMARK    1  A    between atoms: C_1  and  O_2
REMARK    2  A    between atoms: O_2  and  C_3
REMARK    3  A    between atoms: C_5  and  N_6
REMARK    4  A    between atoms: N_6  and  C_7
REMARK    5  A    between atoms: N_6  and  C_8
REMARK    6  A    between atoms: C_8  and  C_9
REMARK    7  A    between atoms: C_9  and  C_10
REMARK    8  A    between atoms: C_10  and  N_11
REMARK    9  A    between atoms: N_11  and  C_12
REMARK   10  A    between atoms: N_11  and  C_13
REMARK   11  A    between atoms: C_16  and  C_17
REMARK   12  A    between atoms: N_19  and  C_20
REMARK   13  A    between atoms: C_23  and  N_24
REMARK                            x       y       z     vdW  Elec       q    Type
REMARK                         _______ _______ _______ _____ _____    ______ ____
ROOT
ATOM      1  C   UNL     1      -2.402  12.492  22.718  0.00  0.00    +0.000 A 
ATOM      2  C   UNL     1      -2.480  12.644  21.326  0.00  0.00    +0.000 A 
ATOM      3  C   UNL     1      -1.703  11.896  20.410  0.00  0.00    +0.000 A 
ATOM      4  C   UNL     1      -0.831  10.933  20.994  0.00  0.00    +0.000 A 
ATOM      5  N   UNL     1      -0.016  10.088  20.226  0.00  0.00    +0.000 N 
ATOM      6  C   UNL     1       0.828   9.132  20.758  0.00  0.00    +0.000 A 
ATOM      7  C   UNL     1       0.938   8.901  22.069  0.00  0.00    +0.000 A 
ATOM      8  C   UNL     1       0.098   9.711  22.980  0.00  0.00    +0.000 A 
ATOM      9  O   UNL     1       0.169   9.523  24.190  0.00  0.00    +0.000 OA
ATOM     10  C   UNL     1      -0.802  10.746  22.398  0.00  0.00    +0.000 A 
ATOM     11  C   UNL     1      -1.568  11.530  23.258  0.00  0.00    +0.000 A 
ATOM     12  H   UNL     1       0.237  10.399  19.289  0.00  0.00    +0.000 HD
ENDROOT
BRANCH   6  13
ATOM     13  C   UNL     1       1.681   8.446  19.724  0.00  0.00    +0.000 C 
ATOM     14  O   UNL     1       1.590   8.899  18.582  0.00  0.00    +0.000 OA
ATOM     15  N   UNL     1       2.386   7.317  20.094  0.00  0.00    +0.000 N 
ATOM     16  H   UNL     1       2.221   6.920  21.008  0.00  0.00    +0.000 HD
BRANCH  15  17
ATOM     17  C   UNL     1       3.192   6.562  19.206  0.00  0.00    +0.000 A 
ATOM     18  C   UNL     1       3.714   7.109  18.029  0.00  0.00    +0.000 A 
ATOM     19  C   UNL     1       4.487   6.344  17.155  0.00  0.00    +0.000 A 
ATOM     20  C   UNL     1       4.782   5.008  17.415  0.00  0.00    +0.000 A 
ATOM     21  C   UNL     1       4.262   4.465  18.600  0.00  0.00    +0.000 A 
ATOM     22  C   UNL     1       3.490   5.231  19.499  0.00  0.00    +0.000 A 
BRANCH  20  23
ATOM     23  N   UNL     1       5.587   4.262  16.570  0.00  0.00    +0.000 N 
ATOM     24  C   UNL     1       7.036   4.512  16.448  0.00  0.00    +0.000 C 
ATOM     25  C   UNL     1       7.403   5.046  15.056  0.00  0.00    +0.000 C 
ATOM     26  O   UNL     1       6.885   4.207  14.012  0.00  0.00    +0.000 OA
ATOM     27  C   UNL     1       5.451   4.137  14.106  0.00  0.00    +0.000 C 
ATOM     28  C   UNL     1       4.996   3.526  15.442  0.00  0.00    +0.000 C 
ENDBRANCH  20  23
ENDBRANCH  15  17
ENDBRANCH   6  13
BRANCH   1  30
ATOM     29  C   UNL     1      -4.041  12.657  24.412  0.00  0.00    +0.000 C 
ATOM     30  O   UNL     1      -3.224  13.310  23.446  0.00  0.00    +0.000 OA
ENDBRANCH   1  30
BRANCH   3  31
ATOM     31  N   UNL     1      -1.769  12.172  19.036  0.00  0.00    +0.000 N 
ATOM     32  C   UNL     1      -0.745  12.944  18.329  0.00  0.00    +0.000 C 
BRANCH  31  33
ATOM     33  C   UNL     1      -2.629  11.377  18.129  0.00  0.00    +0.000 C 
BRANCH  33  34
ATOM     34  C   UNL     1      -1.862  10.255  17.426  0.00  0.00    +0.000 C 
BRANCH  34  35
ATOM     35  C   UNL     1      -2.668   9.637  16.277  0.00  0.00    +0.000 C 
BRANCH  35  36
ATOM     36  N   UNL     1      -2.967  10.594  15.193  0.00  0.00    +0.000 NA
ATOM     37  C   UNL     1      -2.981   9.941  13.881  0.00  0.00    +0.000 C 
ATOM     38  C   UNL     1      -4.273  11.215  15.440  0.00  0.00    +0.000 C 
ENDBRANCH  35  36
ENDBRANCH  34  35
ENDBRANCH  33  34
ENDBRANCH  31  33
ENDBRANCH   3  31
TORSDOF 9
ENDMDL
MODEL 3
REMARK VINA RESULT:      -7.6      6.095      9.737
REMARK  Name = 
REMARK  13 active torsions:
REMARK  status: ('A' for Active; 'I' for Inactive)
REMARK    1  A    between atoms: C_1  and  O_2
REMARK    2  A    between atoms: O_2  and  C_3
REMARK    3  A    between atoms: C_5  and  N_6
REMARK    4  A    between atoms: N_6  and  C_7
REMARK    5  A    between atoms: N_6  and  C_8
REMARK    6  A    between atoms: C_8  and  C_9
REMARK    7  A    between atoms: C_9  and  C_10
REMARK    8  A    between atoms: C_10  and  N_11
REMARK    9  A    between atoms: N_11  and  C_12
REMARK   10  A    between atoms: N_11  and  C_13
REMARK   11  A    between atoms: C_16  and  C_17
REMARK   12  A    between atoms: N_19  and  C_20
REMARK   13  A    between atoms: C_23  and  N_24
REMARK                            x       y       z     vdW  Elec       q    Type
REMARK                         _______ _______ _______ _____ _____    ______ ____
ROOT
ATOM      1  C   UNL     1       3.739   3.761  17.539  0.00  0.00    +0.000 A 
ATOM      2  C   UNL     1       3.036   4.880  18.009  0.00  0.00    +0.000 A 
ATOM      3  C   UNL     1       3.623   6.156  18.189  0.00  0.00    +0.000 A 
ATOM      4  C   UNL     1       4.997   6.251  17.831  0.00  0.00    +0.000 A 
ATOM      5  N   UNL     1       5.719   7.450  17.919  0.00  0.00    +0.000 N 
ATOM      6  C   UNL     1       7.048   7.583  17.564  0.00  0.00    +0.000 A 
ATOM      7  C   UNL     1       7.780   6.576  17.079  0.00  0.00    +0.000 A 
ATOM      8  C   UNL     1       7.114   5.265  16.909  0.00  0.00    +0.000 A 
ATOM      9  O   UNL     1       7.752   4.319  16.460  0.00  0.00    +0.000 OA
ATOM     10  C   UNL     1       5.683   5.130  17.302  0.00  0.00    +0.000 A 
ATOM     11  C   UNL     1       5.066   3.887  17.172  0.00  0.00    +0.000 A 
ATOM     12  H   UNL     1       5.386   8.156  18.574  0.00  0.00    +0.000 HD
ENDROOT
BRANCH   6  13
ATOM     13  C   UNL     1       7.616   8.943  17.870  0.00  0.00    +0.000 C 
ATOM     14  O   UNL     1       7.026   9.890  17.348  0.00  0.00    +0.000 OA
ATOM     15  N   UNL     1       8.793   9.020  18.590  0.00  0.00    +0.000 N 
ATOM     16  H   UNL     1       9.296   8.167  18.790  0.00  0.00    +0.000 HD
BRANCH  15  17
ATOM     17  C   UNL     1       9.446  10.236  18.909  0.00  0.00    +0.000 A 
ATOM     18  C   UNL     1      10.214  10.936  17.973  0.00  0.00    +0.000 A 
ATOM     19  C   UNL     1      10.870  12.119  18.312  0.00  0.00    +0.000 A 
ATOM     20  C   UNL     1      10.785  12.665  19.591  0.00  0.00    +0.000 A 
ATOM     21  C   UNL     1      10.008  11.963  20.525  0.00  0.00    +0.000 A 
ATOM     22  C   UNL     1       9.329  10.772  20.192  0.00  0.00    +0.000 A 
BRANCH  20  23
ATOM     23  N   UNL     1      11.398  13.864  19.914  0.00  0.00    +0.000 N 
ATOM     24  C   UNL     1      10.854  14.767  20.945  0.00  0.00    +0.000 C 
ATOM     25  C   UNL     1      10.351  16.083  20.336  0.00  0.00    +0.000 C 
ATOM     26  O   UNL     1      11.352  16.703  19.513  0.00  0.00    +0.000 OA
ATOM     27  C   UNL     1      11.719  15.820  18.439  0.00  0.00    +0.000 C 
ATOM     28  C   UNL     1      12.320  14.505  18.964  0.00  0.00    +0.000 C 
ENDBRANCH  20  23
ENDBRANCH  15  17
ENDBRANCH   6  13
BRANCH   1  30
ATOM     29  C   UNL     1       1.927   2.485  18.360  0.00  0.00    +0.000 C 
ATOM     30  O   UNL     1       3.007   2.608  17.439  0.00  0.00    +0.000 OA
ENDBRANCH   1  30
BRANCH   3  31
ATOM     31  N   UNL     1       2.877   7.203  18.753  0.00  0.00    +0.000 N 
ATOM     32  C   UNL     1       2.420   8.360  17.981  0.00  0.00    +0.000 C 
BRANCH  31  33
ATOM     33  C   UNL     1       2.149   7.030  20.031  0.00  0.00    +0.000 C 
BRANCH  33  34
ATOM     34  C   UNL     1       1.201   8.193  20.328  0.00  0.00    +0.000 C 
BRANCH  34  35
ATOM     35  C   UNL     1       1.363   8.718  21.760  0.00  0.00    +0.000 C 
BRANCH  35  36
ATOM     36  N   UNL     1       0.929  10.120  21.921  0.00  0.00    +0.000 NA
ATOM     37  C   UNL     1       0.706  10.772  20.627  0.00  0.00    +0.000 C 
ATOM     38  C   UNL     1      -0.312  10.157  22.703  0.00  0.00    +0.000 C 
ENDBRANCH  35  36
ENDBRANCH  34  35
ENDBRANCH  33  34
ENDBRANCH  31  33
ENDBRANCH   3  31
TORSDOF 9
ENDMDL
MODEL 4
REMARK VINA RESULT:      -7.6      6.069      9.616
REMARK  Name = 
REMARK  13 active torsions:
REMARK  status: ('A' for Active; 'I' for Inactive)
REMARK    1  A    between atoms: C_1  and  O_2
REMARK    2  A    between atoms: O_2  and  C_3
REMARK    3  A    between atoms: C_5  and  N_6
REMARK    4  A    between atoms: N_6  and  C_7
REMARK    5  A    between atoms: N_6  and  C_8
REMARK    6  A    between atoms: C_8  and  C_9
REMARK    7  A    between atoms: C_9  and  C_10
REMARK    8  A    between atoms: C_10  and  N_11
REMARK    9  A    between atoms: N_11  and  C_12
REMARK   10  A    between atoms: N_11  and  C_13
REMARK   11  A    between atoms: C_16  and  C_17
REMARK   12  A    between atoms: N_19  and  C_20
REMARK   13  A    between atoms: C_23  and  N_24
REMARK                            x       y       z     vdW  Elec       q    Type
REMARK                         _______ _______ _______ _____ _____    ______ ____
ROOT
ATOM      1  C   UNL     1       3.643   3.676  17.481  0.00  0.00    +0.000 A 
ATOM      2  C   UNL     1       2.937   4.839  17.825  0.00  0.00    +0.000 A 
ATOM      3  C   UNL     1       3.543   6.108  17.979  0.00  0.00    +0.000 A 
ATOM      4  C   UNL     1       4.944   6.149  17.733  0.00  0.00    +0.000 A 
ATOM      5  N   UNL     1       5.691   7.333  17.811  0.00  0.00    +0.000 N 
ATOM      6  C   UNL     1       7.048   7.413  17.562  0.00  0.00    +0.000 A 
ATOM      7  C   UNL     1       7.788   6.361  17.199  0.00  0.00    +0.000 A 
ATOM      8  C   UNL     1       7.100   5.059  17.050  0.00  0.00    +0.000 A 
ATOM      9  O   UNL     1       7.746   4.072  16.712  0.00  0.00    +0.000 OA
ATOM     10  C   UNL     1       5.638   4.982  17.329  0.00  0.00    +0.000 A 
ATOM     11  C   UNL     1       4.998   3.749  17.220  0.00  0.00    +0.000 A 
ATOM     12  H   UNL     1       5.325   8.086  18.394  0.00  0.00    +0.000 HD
ENDROOT
BRANCH   6  13
ATOM     13  C   UNL     1       7.627   8.775  17.835  0.00  0.00    +0.000 C 
ATOM     14  O   UNL     1       7.183   9.687  17.135  0.00  0.00    +0.000 OA
ATOM     15  N   UNL     1       8.670   8.880  18.735  0.00  0.00    +0.000 N 
ATOM     16  H   UNL     1       9.087   8.034  19.095  0.00  0.00    +0.000 HD
BRANCH  15  17
ATOM     17  C   UNL     1       9.325  10.097  19.049  0.00  0.00    +0.000 A 
ATOM     18  C   UNL     1       9.346  10.616  20.348  0.00  0.00    +0.000 A 
ATOM     19  C   UNL     1       9.975  11.828  20.633  0.00  0.00    +0.000 A 
ATOM     20  C   UNL     1      10.616  12.573  19.647  0.00  0.00    +0.000 A 
ATOM     21  C   UNL     1      10.598  12.045  18.346  0.00  0.00    +0.000 A 
ATOM     22  C   UNL     1       9.977  10.814  18.046  0.00  0.00    +0.000 A 
BRANCH  20  23
ATOM     23  N   UNL     1      11.279  13.753  19.940  0.00  0.00    +0.000 N 
ATOM     24  C   UNL     1      10.740  14.736  20.898  0.00  0.00    +0.000 C 
ATOM     25  C   UNL     1      10.338  16.044  20.201  0.00  0.00    +0.000 C 
ATOM     26  O   UNL     1      11.407  16.566  19.398  0.00  0.00    +0.000 OA
ATOM     27  C   UNL     1      11.773  15.611  18.387  0.00  0.00    +0.000 C 
ATOM     28  C   UNL     1      12.276  14.294  19.004  0.00  0.00    +0.000 C 
ENDBRANCH  20  23
ENDBRANCH  15  17
ENDBRANCH   6  13
BRANCH   1  30
ATOM     29  C   UNL     1       3.357   1.428  18.149  0.00  0.00    +0.000 C 
ATOM     30  O   UNL     1       2.889   2.537  17.388  0.00  0.00    +0.000 OA
ENDBRANCH   1  30
BRANCH   3  31
ATOM     31  N   UNL     1       2.784   7.205  18.417  0.00  0.00    +0.000 N 
ATOM     32  C   UNL     1       2.302   7.341  19.793  0.00  0.00    +0.000 C 
BRANCH  31  33
ATOM     33  C   UNL     1       2.766   8.481  17.665  0.00  0.00    +0.000 C 
BRANCH  33  34
ATOM     34  C   UNL     1       1.454   9.248  17.841  0.00  0.00    +0.000 C 
BRANCH  34  35
ATOM     35  C   UNL     1       1.684  10.669  18.371  0.00  0.00    +0.000 C 
BRANCH  35  36
ATOM     36  N   UNL     1       0.432  11.376  18.708  0.00  0.00    +0.000 NA
ATOM     37  C   UNL     1      -0.707  10.456  18.791  0.00  0.00    +0.000 C 
ATOM     38  C   UNL     1       0.594  12.064  19.993  0.00  0.00    +0.000 C 
ENDBRANCH  35  36
ENDBRANCH  34  35
ENDBRANCH  33  34
ENDBRANCH  31  33
ENDBRANCH   3  31
TORSDOF 9
ENDMDL
MODEL 5
REMARK VINA RESULT:      -7.4      1.413      3.088
REMARK  Name = 
REMARK  13 active torsions:
REMARK  status: ('A' for Active; 'I' for Inactive)
REMARK    1  A    between atoms: C_1  and  O_2
REMARK    2  A    between atoms: O_2  and  C_3
REMARK    3  A    between atoms: C_5  and  N_6
REMARK    4  A    between atoms: N_6  and  C_7
REMARK    5  A    between atoms: N_6  and  C_8
REMARK    6  A    between atoms: C_8  and  C_9
REMARK    7  A    between atoms: C_9  and  C_10
REMARK    8  A    between atoms: C_10  and  N_11
REMARK    9  A    between atoms: N_11  and  C_12
REMARK   10  A    between atoms: N_11  and  C_13
REMARK   11  A    between atoms: C_16  and  C_17
REMARK   12  A    between atoms: N_19  and  C_20
REMARK   13  A    between atoms: C_23  and  N_24
REMARK                            x       y       z     vdW  Elec       q    Type
REMARK                         _______ _______ _______ _____ _____    ______ ____
ROOT
ATOM      1  C   UNL     1      -2.211  12.415  22.518  0.00  0.00    +0.000 A 
ATOM      2  C   UNL     1      -2.327  12.551  21.127  0.00  0.00    +0.000 A 
ATOM      3  C   UNL     1      -1.574  11.793  20.199  0.00  0.00    +0.000 A 
ATOM      4  C   UNL     1      -0.685  10.839  20.770  0.00  0.00    +0.000 A 
ATOM      5  N   UNL     1       0.110   9.986  19.991  0.00  0.00    +0.000 N 
ATOM      6  C   UNL     1       0.970   9.037  20.510  0.00  0.00    +0.000 A 
ATOM      7  C   UNL     1       1.116   8.822  21.821  0.00  0.00    +0.000 A 
ATOM      8  C   UNL     1       0.300   9.641  22.744  0.00  0.00    +0.000 A 
ATOM      9  O   UNL     1       0.403   9.468  23.954  0.00  0.00    +0.000 OA
ATOM     10  C   UNL     1      -0.618  10.668  22.175  0.00  0.00    +0.000 A 
ATOM     11  C   UNL     1      -1.361  11.461  23.046  0.00  0.00    +0.000 A 
ATOM     12  H   UNL     1       0.338  10.286  19.043  0.00  0.00    +0.000 HD
ENDROOT
BRANCH   6  13
ATOM     13  C   UNL     1       1.796   8.341  19.462  0.00  0.00    +0.000 C 
ATOM     14  O   UNL     1       1.658   8.767  18.314  0.00  0.00    +0.000 OA
ATOM     15  N   UNL     1       2.530   7.230  19.831  0.00  0.00    +0.000 N 
ATOM     16  H   UNL     1       2.405   6.852  20.759  0.00  0.00    +0.000 HD
BRANCH  15  17
ATOM     17  C   UNL     1       3.316   6.467  18.932  0.00  0.00    +0.000 A 
ATOM     18  C   UNL     1       3.294   5.069  18.928  0.00  0.00    +0.000 A 
ATOM     19  C   UNL     1       4.093   4.334  18.051  0.00  0.00    +0.000 A 
ATOM     20  C   UNL     1       4.939   4.953  17.135  0.00  0.00    +0.000 A 
ATOM     21  C   UNL     1       4.953   6.357  17.138  0.00  0.00    +0.000 A 
ATOM     22  C   UNL     1       4.142   7.113  18.011  0.00  0.00    +0.000 A 
BRANCH  20  23
ATOM     23  N   UNL     1       5.697   4.224  16.234  0.00  0.00    +0.000 N 
ATOM     24  C   UNL     1       7.119   4.526  15.985  0.00  0.00    +0.000 C 
ATOM     25  C   UNL     1       7.346   5.051  14.560  0.00  0.00    +0.000 C 
ATOM     26  O   UNL     1       6.773   4.176  13.576  0.00  0.00    +0.000 OA
ATOM     27  C   UNL     1       5.356   4.054  13.793  0.00  0.00    +0.000 C 
ATOM     28  C   UNL     1       5.041   3.449  15.171  0.00  0.00    +0.000 C 
ENDBRANCH  20  23
ENDBRANCH  15  17
ENDBRANCH   6  13
BRANCH   1  30
ATOM     29  C   UNL     1      -2.791  14.637  23.078  0.00  0.00    +0.000 C 
ATOM     30  O   UNL     1      -3.014  13.241  23.258  0.00  0.00    +0.000 OA
ENDBRANCH   1  30
BRANCH   3  31
ATOM     31  N   UNL     1      -1.678  12.054  18.824  0.00  0.00    +0.000 N 
ATOM     32  C   UNL     1      -2.883  11.758  18.047  0.00  0.00    +0.000 C 
BRANCH  31  33
ATOM     33  C   UNL     1      -0.768  13.008  18.148  0.00  0.00    +0.000 C 
BRANCH  33  34
ATOM     34  C   UNL     1      -0.429  14.217  19.022  0.00  0.00    +0.000 C 
BRANCH  34  35
ATOM     35  C   UNL     1       1.045  14.621  18.899  0.00  0.00    +0.000 C 
BRANCH  35  36
ATOM     36  N   UNL     1       1.762  14.613  20.190  0.00  0.00    +0.000 NA
ATOM     37  C   UNL     1       0.972  15.237  21.255  0.00  0.00    +0.000 C 
ATOM     38  C   UNL     1       2.071  13.228  20.564  0.00  0.00    +0.000 C 
ENDBRANCH  35  36
ENDBRANCH  34  35
ENDBRANCH  33  34
ENDBRANCH  31  33
ENDBRANCH   3  31
TORSDOF 9
ENDMDL
MODEL 6
REMARK VINA RESULT:      -7.2      6.010      9.587
REMARK  Name = 
REMARK  13 active torsions:
REMARK  status: ('A' for Active; 'I' for Inactive)
REMARK    1  A    between atoms: C_1  and  O_2
REMARK    2  A    between atoms: O_2  and  C_3
REMARK    3  A    between atoms: C_5  and  N_6
REMARK    4  A    between atoms: N_6  and  C_7
REMARK    5  A    between atoms: N_6  and  C_8
REMARK    6  A    between atoms: C_8  and  C_9
REMARK    7  A    between atoms: C_9  and  C_10
REMARK    8  A    between atoms: C_10  and  N_11
REMARK    9  A    between atoms: N_11  and  C_12
REMARK   10  A    between atoms: N_11  and  C_13
REMARK   11  A    between atoms: C_16  and  C_17
REMARK   12  A    between atoms: N_19  and  C_20
REMARK   13  A    between atoms: C_23  and  N_24
REMARK                            x       y       z     vdW  Elec       q    Type
REMARK                         _______ _______ _______ _____ _____    ______ ____
ROOT
ATOM      1  C   UNL     1       3.709   3.625  17.401  0.00  0.00    +0.000 A 
ATOM      2  C   UNL     1       2.970   4.769  17.739  0.00  0.00    +0.000 A 
ATOM      3  C   UNL     1       3.543   6.052  17.908  0.00  0.00    +0.000 A 
ATOM      4  C   UNL     1       4.947   6.127  17.684  0.00  0.00    +0.000 A 
ATOM      5  N   UNL     1       5.664   7.329  17.778  0.00  0.00    +0.000 N 
ATOM      6  C   UNL     1       7.022   7.441  17.551  0.00  0.00    +0.000 A 
ATOM      7  C   UNL     1       7.793   6.409  17.194  0.00  0.00    +0.000 A 
ATOM      8  C   UNL     1       7.139   5.092  17.029  0.00  0.00    +0.000 A 
ATOM      9  O   UNL     1       7.813   4.123  16.697  0.00  0.00    +0.000 OA
ATOM     10  C   UNL     1       5.675   4.979  17.286  0.00  0.00    +0.000 A 
ATOM     11  C   UNL     1       5.067   3.732  17.161  0.00  0.00    +0.000 A 
ATOM     12  H   UNL     1       5.272   8.069  18.359  0.00  0.00    +0.000 HD
ENDROOT
BRANCH   6  13
ATOM     13  C   UNL     1       7.565   8.816  17.839  0.00  0.00    +0.000 C 
ATOM     14  O   UNL     1       6.976   9.742  17.280  0.00  0.00    +0.000 OA
ATOM     15  N   UNL     1       8.723   8.925  18.585  0.00  0.00    +0.000 N 
ATOM     16  H   UNL     1       9.231   8.084  18.817  0.00  0.00    +0.000 HD
BRANCH  15  17
ATOM     17  C   UNL     1       9.353  10.157  18.892  0.00  0.00    +0.000 A 
ATOM     18  C   UNL     1      10.127  10.849  17.955  0.00  0.00    +0.000 A 
ATOM     19  C   UNL     1      10.760  12.049  18.283  0.00  0.00    +0.000 A 
ATOM     20  C   UNL     1      10.643  12.618  19.548  0.00  0.00    +0.000 A 
ATOM     21  C   UNL     1       9.860  11.923  20.483  0.00  0.00    +0.000 A 
ATOM     22  C   UNL     1       9.205  10.715  20.161  0.00  0.00    +0.000 A 
BRANCH  20  23
ATOM     23  N   UNL     1      11.233  13.832  19.859  0.00  0.00    +0.000 N 
ATOM     24  C   UNL     1      10.928  14.552  21.109  0.00  0.00    +0.000 C 
ATOM     25  C   UNL     1      10.183  15.867  20.838  0.00  0.00    +0.000 C 
ATOM     26  O   UNL     1      10.873  16.677  19.874  0.00  0.00    +0.000 OA
ATOM     27  C   UNL     1      10.995  15.963  18.631  0.00  0.00    +0.000 C 
ATOM     28  C   UNL     1      11.810  14.669  18.796  0.00  0.00    +0.000 C 
ENDBRANCH  20  23
ENDBRANCH  15  17
ENDBRANCH   6  13
BRANCH   1  30
ATOM     29  C   UNL     1       2.192   2.131  18.425  0.00  0.00    +0.000 C 
ATOM     30  O   UNL     1       2.984   2.469  17.290  0.00  0.00    +0.000 OA
ENDBRANCH   1  30
BRANCH   3  31
ATOM     31  N   UNL     1       2.752   7.128  18.339  0.00  0.00    +0.000 N 
ATOM     32  C   UNL     1       2.393   7.340  19.742  0.00  0.00    +0.000 C 
BRANCH  31  33
ATOM     33  C   UNL     1       2.572   8.337  17.502  0.00  0.00    +0.000 C 
BRANCH  33  34
ATOM     34  C   UNL     1       2.054   9.533  18.303  0.00  0.00    +0.000 C 
BRANCH  34  35
ATOM     35  C   UNL     1       0.565   9.798  18.045  0.00  0.00    +0.000 C 
BRANCH  35  36
ATOM     36  N   UNL     1      -0.012  10.814  18.949  0.00  0.00    +0.000 NA
ATOM     37  C   UNL     1      -1.117  11.540  18.316  0.00  0.00    +0.000 C 
ATOM     38  C   UNL     1      -0.498  10.158  20.168  0.00  0.00    +0.000 C 
ENDBRANCH  35  36
ENDBRANCH  34  35
ENDBRANCH  33  34
ENDBRANCH  31  33
ENDBRANCH   3  31
TORSDOF 9
ENDMDL
MODEL 7
REMARK VINA RESULT:      -7.1      5.744      9.295
REMARK  Name = 
REMARK  13 active torsions:
REMARK  status: ('A' for Active; 'I' for Inactive)
REMARK    1  A    between atoms: C_1  and  O_2
REMARK    2  A    between atoms: O_2  and  C_3
REMARK    3  A    between atoms: C_5  and  N_6
REMARK    4  A    between atoms: N_6  and  C_7
REMARK    5  A    between atoms: N_6  and  C_8
REMARK    6  A    between atoms: C_8  and  C_9
REMARK    7  A    between atoms: C_9  and  C_10
REMARK    8  A    between atoms: C_10  and  N_11
REMARK    9  A    between atoms: N_11  and  C_12
REMARK   10  A    between atoms: N_11  and  C_13
REMARK   11  A    between atoms: C_16  and  C_17
REMARK   12  A    between atoms: N_19  and  C_20
REMARK   13  A    between atoms: C_23  and  N_24
REMARK                            x       y       z     vdW  Elec       q    Type
REMARK                         _______ _______ _______ _____ _____    ______ ____
ROOT
ATOM      1  C   UNL     1       2.731   3.984  17.365  0.00  0.00    +0.000 A 
ATOM      2  C   UNL     1       2.310   5.218  17.884  0.00  0.00    +0.000 A 
ATOM      3  C   UNL     1       3.178   6.315  18.101  0.00  0.00    +0.000 A 
ATOM      4  C   UNL     1       4.535   6.102  17.728  0.00  0.00    +0.000 A 
ATOM      5  N   UNL     1       5.516   7.097  17.847  0.00  0.00    +0.000 N 
ATOM      6  C   UNL     1       6.838   6.931  17.479  0.00  0.00    +0.000 A 
ATOM      7  C   UNL     1       7.313   5.800  16.947  0.00  0.00    +0.000 A 
ATOM      8  C   UNL     1       6.359   4.688  16.741  0.00  0.00    +0.000 A 
ATOM      9  O   UNL     1       6.758   3.637  16.250  0.00  0.00    +0.000 OA
ATOM     10  C   UNL     1       4.938   4.873  17.150  0.00  0.00    +0.000 A 
ATOM     11  C   UNL     1       4.049   3.814  16.984  0.00  0.00    +0.000 A 
ATOM     12  H   UNL     1       5.360   7.835  18.532  0.00  0.00    +0.000 HD
ENDROOT
BRANCH   6  13
ATOM     13  C   UNL     1       7.707   8.110  17.825  0.00  0.00    +0.000 C 
ATOM     14  O   UNL     1       8.573   7.894  18.674  0.00  0.00    +0.000 OA
ATOM     15  N   UNL     1       7.401   9.340  17.275  0.00  0.00    +0.000 N 
ATOM     16  H   UNL     1       6.543   9.437  16.752  0.00  0.00    +0.000 HD
BRANCH  15  17
ATOM     17  C   UNL     1       8.118  10.530  17.552  0.00  0.00    +0.000 A 
ATOM     18  C   UNL     1       9.394  10.513  18.126  0.00  0.00    +0.000 A 
ATOM     19  C   UNL     1      10.075  11.696  18.414  0.00  0.00    +0.000 A 
ATOM     20  C   UNL     1       9.526  12.945  18.136  0.00  0.00    +0.000 A 
ATOM     21  C   UNL     1       8.249  12.958  17.553  0.00  0.00    +0.000 A 
ATOM     22  C   UNL     1       7.554  11.769  17.246  0.00  0.00    +0.000 A 
BRANCH  20  23
ATOM     23  N   UNL     1      10.222  14.118  18.379  0.00  0.00    +0.000 N 
ATOM     24  C   UNL     1      11.696  14.167  18.375  0.00  0.00    +0.000 C 
ATOM     25  C   UNL     1      12.256  14.460  19.774  0.00  0.00    +0.000 C 
ATOM     26  O   UNL     1      11.653  15.628  20.353  0.00  0.00    +0.000 OA
ATOM     27  C   UNL     1      10.232  15.441  20.466  0.00  0.00    +0.000 C 
ATOM     28  C   UNL     1       9.574  15.229  19.091  0.00  0.00    +0.000 C 
ENDBRANCH  20  23
ENDBRANCH  15  17
ENDBRANCH   6  13
BRANCH   1  30
ATOM     29  C   UNL     1       1.253   2.498  18.456  0.00  0.00    +0.000 C 
ATOM     30  O   UNL     1       1.751   3.037  17.235  0.00  0.00    +0.000 OA
ENDBRANCH   1  30
BRANCH   3  31
ATOM     31  N   UNL     1       2.699   7.484  18.712  0.00  0.00    +0.000 N 
ATOM     32  C   UNL     1       2.418   8.713  17.968  0.00  0.00    +0.000 C 
BRANCH  31  33
ATOM     33  C   UNL     1       2.056   7.450  20.046  0.00  0.00    +0.000 C 
BRANCH  33  34
ATOM     34  C   UNL     1       1.522   8.818  20.476  0.00  0.00    +0.000 C 
BRANCH  34  35
ATOM     35  C   UNL     1       0.824   8.761  21.841  0.00  0.00    +0.000 C 
BRANCH  35  36
ATOM     36  N   UNL     1      -0.459   9.491  21.871  0.00  0.00    +0.000 NA
ATOM     37  C   UNL     1      -0.730  10.060  23.194  0.00  0.00    +0.000 C 
ATOM     38  C   UNL     1      -0.427  10.570  20.877  0.00  0.00    +0.000 C 
ENDBRANCH  35  36
ENDBRANCH  34  35
ENDBRANCH  33  34
ENDBRANCH  31  33
ENDBRANCH   3  31
TORSDOF 9
ENDMDL
MODEL 8
REMARK VINA RESULT:      -7.1      3.279      5.160
REMARK  Name = 
REMARK  13 active torsions:
REMARK  status: ('A' for Active; 'I' for Inactive)
REMARK    1  A    between atoms: C_1  and  O_2
REMARK    2  A    between atoms: O_2  and  C_3
REMARK    3  A    between atoms: C_5  and  N_6
REMARK    4  A    between atoms: N_6  and  C_7
REMARK    5  A    between atoms: N_6  and  C_8
REMARK    6  A    between atoms: C_8  and  C_9
REMARK    7  A    between atoms: C_9  and  C_10
REMARK    8  A    between atoms: C_10  and  N_11
REMARK    9  A    between atoms: N_11  and  C_12
REMARK   10  A    between atoms: N_11  and  C_13
REMARK   11  A    between atoms: C_16  and  C_17
REMARK   12  A    between atoms: N_19  and  C_20
REMARK   13  A    between atoms: C_23  and  N_24
REMARK                            x       y       z     vdW  Elec       q    Type
REMARK                         _______ _______ _______ _____ _____    ______ ____
ROOT
ATOM      1  C   UNL     1      -0.648  16.399  19.572  0.00  0.00    +0.000 A 
ATOM      2  C   UNL     1      -1.587  15.661  20.308  0.00  0.00    +0.000 A 
ATOM      3  C   UNL     1      -1.531  14.256  20.466  0.00  0.00    +0.000 A 
ATOM      4  C   UNL     1      -0.424  13.616  19.842  0.00  0.00    +0.000 A 
ATOM      5  N   UNL     1      -0.203  12.233  19.930  0.00  0.00    +0.000 N 
ATOM      6  C   UNL     1       0.870  11.581  19.353  0.00  0.00    +0.000 A 
ATOM      7  C   UNL     1       1.825  12.213  18.663  0.00  0.00    +0.000 A 
ATOM      8  C   UNL     1       1.717  13.683  18.533  0.00  0.00    +0.000 A 
ATOM      9  O   UNL     1       2.578  14.297  17.912  0.00  0.00    +0.000 OA
ATOM     10  C   UNL     1       0.552  14.376  19.151  0.00  0.00    +0.000 A 
ATOM     11  C   UNL     1       0.434  15.756  19.000  0.00  0.00    +0.000 A 
ATOM     12  H   UNL     1      -1.009  11.636  20.114  0.00  0.00    +0.000 HD
ENDROOT
BRANCH   6  13
ATOM     13  C   UNL     1       0.805  10.084  19.492  0.00  0.00    +0.000 C 
ATOM     14  O   UNL     1      -0.202   9.650  20.054  0.00  0.00    +0.000 OA
ATOM     15  N   UNL     1       1.901   9.337  19.104  0.00  0.00    +0.000 N 
ATOM     16  H   UNL     1       2.750   9.819  18.847  0.00  0.00    +0.000 HD
BRANCH  15  17
ATOM     17  C   UNL     1       1.977   7.926  19.219  0.00  0.00    +0.000 A 
ATOM     18  C   UNL     1       1.724   7.265  20.425  0.00  0.00    +0.000 A 
ATOM     19  C   UNL     1       1.828   5.877  20.526  0.00  0.00    +0.000 A 
ATOM     20  C   UNL     1       2.177   5.086  19.435  0.00  0.00    +0.000 A 
ATOM     21  C   UNL     1       2.424   5.754  18.225  0.00  0.00    +0.000 A 
ATOM     22  C   UNL     1       2.311   7.155  18.106  0.00  0.00    +0.000 A 
BRANCH  20  23
ATOM     23  N   UNL     1       2.235   3.705  19.524  0.00  0.00    +0.000 N 
ATOM     24  C   UNL     1       3.186   3.019  20.417  0.00  0.00    +0.000 C 
ATOM     25  C   UNL     1       4.242   2.235  19.625  0.00  0.00    +0.000 C 
ATOM     26  O   UNL     1       3.639   1.358  18.662  0.00  0.00    +0.000 OA
ATOM     27  C   UNL     1       2.850   2.120  17.731  0.00  0.00    +0.000 C 
ATOM     28  C   UNL     1       1.707   2.870  18.435  0.00  0.00    +0.000 C 
ENDBRANCH  20  23
ENDBRANCH  15  17
ENDBRANCH   6  13
BRANCH   1  30
ATOM     29  C   UNL     1      -1.755  18.187  18.493  0.00  0.00    +0.000 C 
ATOM     30  O   UNL     1      -0.871  17.749  19.521  0.00  0.00    +0.000 OA
ENDBRANCH   1  30
BRANCH   3  31
ATOM     31  N   UNL     1      -2.561  13.579  21.138  0.00  0.00    +0.000 N 
ATOM     32  C   UNL     1      -3.588  12.801  20.443  0.00  0.00    +0.000 C 
BRANCH  31  33
ATOM     33  C   UNL     1      -2.458  13.252  22.579  0.00  0.00    +0.000 C 
BRANCH  33  34
ATOM     34  C   UNL     1      -3.782  13.444  23.322  0.00  0.00    +0.000 C 
BRANCH  34  35
ATOM     35  C   UNL     1      -3.760  14.681  24.228  0.00  0.00    +0.000 C 
BRANCH  35  36
ATOM     36  N   UNL     1      -2.448  15.358  24.262  0.00  0.00    +0.000 NA
ATOM     37  C   UNL     1      -2.530  16.729  23.751  0.00  0.00    +0.000 C 
ATOM     38  C   UNL     1      -1.951  15.383  25.641  0.00  0.00    +0.000 C 
ENDBRANCH  35  36
ENDBRANCH  34  35
ENDBRANCH  33  34
ENDBRANCH  31  33
ENDBRANCH   3  31
TORSDOF 9
ENDMDL
MODEL 9
REMARK VINA RESULT:      -7.1      2.375      3.038
REMARK  Name = 
REMARK  13 active torsions:
REMARK  status: ('A' for Active; 'I' for Inactive)
REMARK    1  A    between atoms: C_1  and  O_2
REMARK    2  A    between atoms: O_2  and  C_3
REMARK    3  A    between atoms: C_5  and  N_6
REMARK    4  A    between atoms: N_6  and  C_7
REMARK    5  A    between atoms: N_6  and  C_8
REMARK    6  A    between atoms: C_8  and  C_9
REMARK    7  A    between atoms: C_9  and  C_10
REMARK    8  A    between atoms: C_10  and  N_11
REMARK    9  A    between atoms: N_11  and  C_12
REMARK   10  A    between atoms: N_11  and  C_13
REMARK   11  A    between atoms: C_16  and  C_17
REMARK   12  A    between atoms: N_19  and  C_20
REMARK   13  A    between atoms: C_23  and  N_24
REMARK                            x       y       z     vdW  Elec       q    Type
REMARK                         _______ _______ _______ _____ _____    ______ ____
ROOT
ATOM      1  C   UNL     1      -3.754  13.362  20.413  0.00  0.00    +0.000 A 
ATOM      2  C   UNL     1      -3.802  12.498  19.308  0.00  0.00    +0.000 A 
ATOM      3  C   UNL     1      -2.878  11.449  19.092  0.00  0.00    +0.000 A 
ATOM      4  C   UNL     1      -1.883  11.296  20.098  0.00  0.00    +0.000 A 
ATOM      5  N   UNL     1      -0.911  10.285  20.051  0.00  0.00    +0.000 N 
ATOM      6  C   UNL     1       0.057  10.096  21.018  0.00  0.00    +0.000 A 
ATOM      7  C   UNL     1       0.154  10.852  22.116  0.00  0.00    +0.000 A 
ATOM      8  C   UNL     1      -0.842  11.933  22.292  0.00  0.00    +0.000 A 
ATOM      9  O   UNL     1      -0.789  12.644  23.290  0.00  0.00    +0.000 OA
ATOM     10  C   UNL     1      -1.878  12.135  21.239  0.00  0.00    +0.000 A 
ATOM     11  C   UNL     1      -2.795  13.172  21.391  0.00  0.00    +0.000 A 
ATOM     12  H   UNL     1      -0.676   9.897  19.138  0.00  0.00    +0.000 HD
ENDROOT
BRANCH   6  13
ATOM     13  C   UNL     1       1.051   9.021  20.667  0.00  0.00    +0.000 C 
ATOM     14  O   UNL     1       1.622   8.497  21.625  0.00  0.00    +0.000 OA
ATOM     15  N   UNL     1       1.334   8.794  19.333  0.00  0.00    +0.000 N 
ATOM     16  H   UNL     1       0.955   9.426  18.643  0.00  0.00    +0.000 HD
BRANCH  15  17
ATOM     17  C   UNL     1       2.276   7.839  18.876  0.00  0.00    +0.000 A 
ATOM     18  C   UNL     1       3.088   8.072  17.761  0.00  0.00    +0.000 A 
ATOM     19  C   UNL     1       3.993   7.110  17.311  0.00  0.00    +0.000 A 
ATOM     20  C   UNL     1       4.138   5.882  17.951  0.00  0.00    +0.000 A 
ATOM     21  C   UNL     1       3.325   5.655  19.073  0.00  0.00    +0.000 A 
ATOM     22  C   UNL     1       2.414   6.624  19.546  0.00  0.00    +0.000 A 
BRANCH  20  23
ATOM     23  N   UNL     1       5.068   4.946  17.532  0.00  0.00    +0.000 N 
ATOM     24  C   UNL     1       6.155   4.476  18.411  0.00  0.00    +0.000 C 
ATOM     25  C   UNL     1       7.531   4.926  17.902  0.00  0.00    +0.000 C 
ATOM     26  O   UNL     1       7.728   4.574  16.524  0.00  0.00    +0.000 OA
ATOM     27  C   UNL     1       6.719   5.197  15.710  0.00  0.00    +0.000 C 
ATOM     28  C   UNL     1       5.306   4.729  16.097  0.00  0.00    +0.000 C 
ENDBRANCH  20  23
ENDBRANCH  15  17
ENDBRANCH   6  13
BRANCH   1  30
ATOM     29  C   UNL     1      -5.609  14.264  21.566  0.00  0.00    +0.000 C 
ATOM     30  O   UNL     1      -4.727  14.324  20.449  0.00  0.00    +0.000 OA
ENDBRANCH   1  30
BRANCH   3  31
ATOM     31  N   UNL     1      -2.936  10.689  17.914  0.00  0.00    +0.000 N 
ATOM     32  C   UNL     1      -3.664   9.421  17.820  0.00  0.00    +0.000 C 
BRANCH  31  33
ATOM     33  C   UNL     1      -2.636  11.287  16.592  0.00  0.00    +0.000 C 
BRANCH  33  34
ATOM     34  C   UNL     1      -2.673  10.260  15.460  0.00  0.00    +0.000 C 
BRANCH  34  35
ATOM     35  C   UNL     1      -3.846  10.500  14.502  0.00  0.00    +0.000 C 
BRANCH  35  36
ATOM     36  N   UNL     1      -3.853   9.582  13.345  0.00  0.00    +0.000 NA
ATOM     37  C   UNL     1      -4.755  10.046  12.287  0.00  0.00    +0.000 C 
ATOM     38  C   UNL     1      -2.493   9.469  12.807  0.00  0.00    +0.000 C 
ENDBRANCH  35  36
ENDBRANCH  34  35
ENDBRANCH  33  34
ENDBRANCH  31  33
ENDBRANCH   3  31
TORSDOF 9
ENDMDL
