MODEL 1
REMARK VINA RESULT:      -8.5      0.000      0.000
REMARK  Name = 
REMARK  10 active torsions:
REMARK  status: ('A' for Active; 'I' for Inactive)
REMARK    1  A    between atoms: C_1  and  C_2
REMARK    2  A    between atoms: C_2  and  C_3
REMARK    3  A    between atoms: C_3  and  O_4
REMARK    4  A    between atoms: C_3  and  C_5
REMARK    5  A    between atoms: C_3  and  C_22
REMARK    6  A    between atoms: C_9  and  O_10
REMARK    7  A    between atoms: O_10  and  C_11
REMARK    8  A    between atoms: C_11  and  C_12
REMARK    9  A    between atoms: C_13  and  C_14
REMARK   10  A    between atoms: C_19  and  C_20
REMARK                            x       y       z     vdW  Elec       q    Type
REMARK                         _______ _______ _______ _____ _____    ______ ____
ROOT
ATOM      1  C   UNL     1       5.297   4.378  17.206  0.00  0.00    +0.000 A 
ATOM      2  C   UNL     1       5.264   3.919  15.877  0.00  0.00    +0.000 A 
ATOM      3  C   UNL     1       6.172   4.385  14.930  0.00  0.00    +0.000 A 
ATOM      4  C   UNL     1       7.098   5.362  15.276  0.00  0.00    +0.000 A 
ATOM      5  C   UNL     1       7.087   5.914  16.557  0.00  0.00    +0.000 A 
ATOM      6  C   UNL     1       6.209   5.407  17.521  0.00  0.00    +0.000 A 
ENDROOT
BRANCH   1   7
ATOM      7  C   UNL     1       4.332   3.806  18.258  0.00  0.00    +0.000 C 
BRANCH   7   8
ATOM      8  C   UNL     1       3.536   4.936  18.925  0.00  0.00    +0.000 A 
ATOM      9  N   UNL     1       3.104   4.903  20.178  0.00  0.00    +0.000 NA
ATOM     10  C   UNL     1       2.389   6.047  20.467  0.00  0.00    +0.000 A 
ATOM     11  C   UNL     1       2.268   6.950  19.436  0.00  0.00    +0.000 A 
ATOM     12  S   UNL     1       3.077   6.358  18.049  0.00  0.00    +0.000 S 
ENDBRANCH   7   8
BRANCH   7  14
ATOM     13  C   UNL     1       2.950   1.637  18.648  0.00  0.00    +0.000 C 
ATOM     14  C   UNL     1       3.338   2.754  17.679  0.00  0.00    +0.000 C 
ENDBRANCH   7  14
BRANCH   7  15
ATOM     15  O   UNL     1       5.069   3.113  19.284  0.00  0.00    +0.000 OA
ATOM     16  H   UNL     1       5.349   2.266  18.901  0.00  0.00    +0.000 HD
ENDBRANCH   7  15
ENDBRANCH   1   7
BRANCH   5  17
ATOM     17  O   UNL     1       7.888   6.953  16.961  0.00  0.00    +0.000 OA
BRANCH  17  18
ATOM     18  C   UNL     1       7.186   8.046  17.566  0.00  0.00    +0.000 C 
BRANCH  18  19
ATOM     19  C   UNL     1       8.125   9.082  17.986  0.00  0.00    +0.000 C 
ATOM     20  C   UNL     1       8.906   9.943  18.288  0.00  0.00    +0.000 C 
BRANCH  20  21
ATOM     21  C   UNL     1       9.893  10.914  18.643  0.00  0.00    +0.000 A 
ATOM     22  C   UNL     1      10.762  11.397  17.658  0.00  0.00    +0.000 A 
ATOM     23  C   UNL     1      11.759  12.314  17.992  0.00  0.00    +0.000 A 
ATOM     24  C   UNL     1      11.889  12.750  19.309  0.00  0.00    +0.000 A 
ATOM     25  C   UNL     1      11.017  12.277  20.293  0.00  0.00    +0.000 A 
ATOM     26  C   UNL     1      10.010  11.357  19.972  0.00  0.00    +0.000 A 
ATOM     27  C   UNL     1       9.071  10.865  21.040  0.00  0.00    +0.000 C 
ENDBRANCH  20  21
ENDBRANCH  18  19
ENDBRANCH  17  18
ENDBRANCH   5  17
TORSDOF 8
ENDMDL
MODEL 2
REMARK VINA RESULT:      -8.5      0.999      1.095
REMARK  Name = 
REMARK  10 active torsions:
REMARK  status: ('A' for Active; 'I' for Inactive)
REMARK    1  A    between atoms: C_1  and  C_2
REMARK    2  A    between atoms: C_2  and  C_3
REMARK    3  A    between atoms: C_3  and  O_4
REMARK    4  A    between atoms: C_3  and  C_5
REMARK    5  A    between atoms: C_3  and  C_22
REMARK    6  A    between atoms: C_9  and  O_10
REMARK    7  A    between atoms: O_10  and  C_11
REMARK    8  A    between atoms: C_11  and  C_12
REMARK    9  A    between atoms: C_13  and  C_14
REMARK   10  A    between atoms: C_19  and  C_20
REMARK                            x       y       z     vdW  Elec       q    Type
REMARK                         _______ _______ _______ _____ _____    ______ ____
ROOT
ATOM      1  C   UNL     1       5.321   4.165  17.792  0.00  0.00    +0.000 A 
ATOM      2  C   UNL     1       5.307   3.936  16.404  0.00  0.00    +0.000 A 
ATOM      3  C   UNL     1       6.172   4.617  15.552  0.00  0.00    +0.000 A 
ATOM      4  C   UNL     1       7.032   5.583  16.060  0.00  0.00    +0.000 A 
ATOM      5  C   UNL     1       6.996   5.909  17.416  0.00  0.00    +0.000 A 
ATOM      6  C   UNL     1       6.164   5.186  18.278  0.00  0.00    +0.000 A 
ENDROOT
BRANCH   1   7
ATOM      7  C   UNL     1       4.408   3.359  18.731  0.00  0.00    +0.000 C 
BRANCH   7   8
ATOM      8  C   UNL     1       3.375   4.280  19.395  0.00  0.00    +0.000 A 
ATOM      9  N   UNL     1       3.090   5.503  18.974  0.00  0.00    +0.000 NA
ATOM     10  C   UNL     1       2.152   6.086  19.802  0.00  0.00    +0.000 A 
ATOM     11  C   UNL     1       1.725   5.312  20.857  0.00  0.00    +0.000 A 
ATOM     12  S   UNL     1       2.519   3.797  20.821  0.00  0.00    +0.000 S 
ENDBRANCH   7   8
BRANCH   7  14
ATOM     13  C   UNL     1       2.225   2.498  17.608  0.00  0.00    +0.000 C 
ATOM     14  C   UNL     1       3.665   2.189  18.016  0.00  0.00    +0.000 C 
ENDBRANCH   7  14
BRANCH   7  15
ATOM     15  O   UNL     1       5.187   2.738  19.771  0.00  0.00    +0.000 OA
ATOM     16  H   UNL     1       5.800   2.126  19.333  0.00  0.00    +0.000 HD
ENDBRANCH   7  15
ENDBRANCH   1   7
BRANCH   5  17
ATOM     17  O   UNL     1       7.728   6.917  17.992  0.00  0.00    +0.000 OA
BRANCH  17  18
ATOM     18  C   UNL     1       7.324   8.237  17.612  0.00  0.00    +0.000 C 
BRANCH  18  19
ATOM     19  C   UNL     1       8.328   9.215  18.025  0.00  0.00    +0.000 C 
ATOM     20  C   UNL     1       9.122  10.037  18.392  0.00  0.00    +0.000 C 
BRANCH  20  21
ATOM     21  C   UNL     1      10.041  11.064  18.772  0.00  0.00    +0.000 A 
ATOM     22  C   UNL     1      10.915  11.589  17.812  0.00  0.00    +0.000 A 
ATOM     23  C   UNL     1      11.846  12.563  18.171  0.00  0.00    +0.000 A 
ATOM     24  C   UNL     1      11.906  13.014  19.488  0.00  0.00    +0.000 A 
ATOM     25  C   UNL     1      11.030  12.499  20.446  0.00  0.00    +0.000 A 
ATOM     26  C   UNL     1      10.087  11.523  20.099  0.00  0.00    +0.000 A 
ATOM     27  C   UNL     1       9.140  10.986  21.139  0.00  0.00    +0.000 C 
ENDBRANCH  20  21
ENDBRANCH  18  19
ENDBRANCH  17  18
ENDBRANCH   5  17
TORSDOF 8
ENDMDL
MODEL 3
REMARK VINA RESULT:      -8.3      1.186      1.503
REMARK  Name = 
REMARK  10 active torsions:
REMARK  status: ('A' for Active; 'I' for Inactive)
REMARK    1  A    between atoms: C_1  and  C_2
REMARK    2  A    between atoms: C_2  and  C_3
REMARK    3  A    between atoms: C_3  and  O_4
REMARK    4  A    between atoms: C_3  and  C_5
REMARK    5  A    between atoms: C_3  and  C_22
REMARK    6  A    between atoms: C_9  and  O_10
REMARK    7  A    between atoms: O_10  and  C_11
REMARK    8  A    between atoms: C_11  and  C_12
REMARK    9  A    between atoms: C_13  and  C_14
REMARK   10  A    between atoms: C_19  and  C_20
REMARK                            x       y       z     vdW  Elec       q    Type
REMARK                         _______ _______ _______ _____ _____    ______ ____
ROOT
ATOM      1  C   UNL     1       5.349   4.177  17.408  0.00  0.00    +0.000 A 
ATOM      2  C   UNL     1       5.233   3.719  16.084  0.00  0.00    +0.000 A 
ATOM      3  C   UNL     1       6.046   4.223  15.072  0.00  0.00    +0.000 A 
ATOM      4  C   UNL     1       6.954   5.238  15.350  0.00  0.00    +0.000 A 
ATOM      5  C   UNL     1       7.019   5.788  16.631  0.00  0.00    +0.000 A 
ATOM      6  C   UNL     1       6.239   5.243  17.657  0.00  0.00    +0.000 A 
ENDROOT
BRANCH   1   7
ATOM      7  C   UNL     1       4.493   3.565  18.529  0.00  0.00    +0.000 C 
BRANCH   7   8
ATOM      8  C   UNL     1       3.520   4.610  19.093  0.00  0.00    +0.000 A 
ATOM      9  N   UNL     1       3.296   5.793  18.540  0.00  0.00    +0.000 NA
ATOM     10  C   UNL     1       2.403   6.516  19.304  0.00  0.00    +0.000 A 
ATOM     11  C   UNL     1       1.950   5.890  20.442  0.00  0.00    +0.000 A 
ATOM     12  S   UNL     1       2.660   4.338  20.571  0.00  0.00    +0.000 S 
ENDBRANCH   7   8
BRANCH   7  14
ATOM     13  C   UNL     1       2.289   2.606  17.532  0.00  0.00    +0.000 C 
ATOM     14  C   UNL     1       3.686   2.309  18.076  0.00  0.00    +0.000 C 
ENDBRANCH   7  14
BRANCH   7  15
ATOM     15  O   UNL     1       5.334   3.110  19.607  0.00  0.00    +0.000 OA
ATOM     16  H   UNL     1       5.232   2.145  19.651  0.00  0.00    +0.000 HD
ENDBRANCH   7  15
ENDBRANCH   1   7
BRANCH   5  17
ATOM     17  O   UNL     1       7.804   6.859  16.977  0.00  0.00    +0.000 OA
BRANCH  17  18
ATOM     18  C   UNL     1       7.091   7.960  17.551  0.00  0.00    +0.000 C 
BRANCH  18  19
ATOM     19  C   UNL     1       8.008   9.054  17.858  0.00  0.00    +0.000 C 
ATOM     20  C   UNL     1       8.727   9.976  18.131  0.00  0.00    +0.000 C 
BRANCH  20  21
ATOM     21  C   UNL     1       9.560  11.109  18.388  0.00  0.00    +0.000 A 
ATOM     22  C   UNL     1      10.765  10.929  19.078  0.00  0.00    +0.000 A 
ATOM     23  C   UNL     1      11.573  12.027  19.374  0.00  0.00    +0.000 A 
ATOM     24  C   UNL     1      11.179  13.305  18.983  0.00  0.00    +0.000 A 
ATOM     25  C   UNL     1       9.982  13.487  18.287  0.00  0.00    +0.000 A 
ATOM     26  C   UNL     1       9.162  12.393  17.979  0.00  0.00    +0.000 A 
ATOM     27  C   UNL     1       7.881  12.603  17.217  0.00  0.00    +0.000 C 
ENDBRANCH  20  21
ENDBRANCH  18  19
ENDBRANCH  17  18
ENDBRANCH   5  17
TORSDOF 8
ENDMDL
MODEL 4
REMARK VINA RESULT:      -8.3      0.799      1.595
REMARK  Name = 
REMARK  10 active torsions:
REMARK  status: ('A' for Active; 'I' for Inactive)
REMARK    1  A    between atoms: C_1  and  C_2
REMARK    2  A    between atoms: C_2  and  C_3
REMARK    3  A    between atoms: C_3  and  O_4
REMARK    4  A    between atoms: C_3  and  C_5
REMARK    5  A    between atoms: C_3  and  C_22
REMARK    6  A    between atoms: C_9  and  O_10
REMARK    7  A    between atoms: O_10  and  C_11
REMARK    8  A    between atoms: C_11  and  C_12
REMARK    9  A    between atoms: C_13  and  C_14
REMARK   10  A    between atoms: C_19  and  C_20
REMARK                            x       y       z     vdW  Elec       q    Type
REMARK                         _______ _______ _______ _____ _____    ______ ____
ROOT
ATOM      1  C   UNL     1       5.347   4.102  17.744  0.00  0.00    +0.000 A 
ATOM      2  C   UNL     1       5.307   3.843  16.362  0.00  0.00    +0.000 A 
ATOM      3  C   UNL     1       6.193   4.464  15.486  0.00  0.00    +0.000 A 
ATOM      4  C   UNL     1       7.101   5.401  15.962  0.00  0.00    +0.000 A 
ATOM      5  C   UNL     1       7.095   5.759  17.310  0.00  0.00    +0.000 A 
ATOM      6  C   UNL     1       6.241   5.095  18.198  0.00  0.00    +0.000 A 
ENDROOT
BRANCH   1   7
ATOM      7  C   UNL     1       4.409   3.360  18.710  0.00  0.00    +0.000 C 
BRANCH   7   8
ATOM      8  C   UNL     1       3.449   4.346  19.389  0.00  0.00    +0.000 A 
ATOM      9  N   UNL     1       2.832   4.113  20.538  0.00  0.00    +0.000 NA
ATOM     10  C   UNL     1       2.009   5.172  20.863  0.00  0.00    +0.000 A 
ATOM     11  C   UNL     1       1.992   6.211  19.961  0.00  0.00    +0.000 A 
ATOM     12  S   UNL     1       3.041   5.861  18.655  0.00  0.00    +0.000 S 
ENDBRANCH   7   8
BRANCH   7  14
ATOM     13  C   UNL     1       2.105   2.562  17.803  0.00  0.00    +0.000 C 
ATOM     14  C   UNL     1       3.581   2.232  18.024  0.00  0.00    +0.000 C 
ENDBRANCH   7  14
BRANCH   7  15
ATOM     15  O   UNL     1       5.173   2.702  19.739  0.00  0.00    +0.000 OA
ATOM     16  H   UNL     1       6.077   3.054  19.683  0.00  0.00    +0.000 HD
ENDBRANCH   7  15
ENDBRANCH   1   7
BRANCH   5  17
ATOM     17  O   UNL     1       7.878   6.746  17.855  0.00  0.00    +0.000 OA
BRANCH  17  18
ATOM     18  C   UNL     1       7.624   8.059  17.342  0.00  0.00    +0.000 C 
BRANCH  18  19
ATOM     19  C   UNL     1       8.329   9.060  18.138  0.00  0.00    +0.000 C 
ATOM     20  C   UNL     1       8.868   9.894  18.813  0.00  0.00    +0.000 C 
BRANCH  20  21
ATOM     21  C   UNL     1       9.491  10.940  19.562  0.00  0.00    +0.000 A 
ATOM     22  C   UNL     1       9.137  11.123  20.905  0.00  0.00    +0.000 A 
ATOM     23  C   UNL     1       9.703  12.163  21.642  0.00  0.00    +0.000 A 
ATOM     24  C   UNL     1      10.621  13.021  21.041  0.00  0.00    +0.000 A 
ATOM     25  C   UNL     1      10.983  12.836  19.704  0.00  0.00    +0.000 A 
ATOM     26  C   UNL     1      10.425  11.794  18.952  0.00  0.00    +0.000 A 
ATOM     27  C   UNL     1      10.834  11.599  17.517  0.00  0.00    +0.000 C 
ENDBRANCH  20  21
ENDBRANCH  18  19
ENDBRANCH  17  18
ENDBRANCH   5  17
TORSDOF 8
ENDMDL
MODEL 5
REMARK VINA RESULT:      -8.3      1.632      2.762
REMARK  Name = 
REMARK  10 active torsions:
REMARK  status: ('A' for Active; 'I' for Inactive)
REMARK    1  A    between atoms: C_1  and  C_2
REMARK    2  A    between atoms: C_2  and  C_3
REMARK    3  A    between atoms: C_3  and  O_4
REMARK    4  A    between atoms: C_3  and  C_5
REMARK    5  A    between atoms: C_3  and  C_22
REMARK    6  A    between atoms: C_9  and  O_10
REMARK    7  A    between atoms: O_10  and  C_11
REMARK    8  A    between atoms: C_11  and  C_12
REMARK    9  A    between atoms: C_13  and  C_14
REMARK   10  A    between atoms: C_19  and  C_20
REMARK                            x       y       z     vdW  Elec       q    Type
REMARK                         _______ _______ _______ _____ _____    ______ ____
ROOT
ATOM      1  C   UNL     1       4.399   5.211  17.961  0.00  0.00    +0.000 A 
ATOM      2  C   UNL     1       4.598   4.248  16.956  0.00  0.00    +0.000 A 
ATOM      3  C   UNL     1       5.859   4.025  16.409  0.00  0.00    +0.000 A 
ATOM      4  C   UNL     1       6.939   4.801  16.814  0.00  0.00    +0.000 A 
ATOM      5  C   UNL     1       6.754   5.836  17.730  0.00  0.00    +0.000 A 
ATOM      6  C   UNL     1       5.497   6.022  18.317  0.00  0.00    +0.000 A 
ENDROOT
BRANCH   1   7
ATOM      7  C   UNL     1       3.015   5.401  18.604  0.00  0.00    +0.000 C 
BRANCH   7   8
ATOM      8  C   UNL     1       2.819   4.407  19.757  0.00  0.00    +0.000 A 
ATOM      9  N   UNL     1       2.033   4.624  20.801  0.00  0.00    +0.000 NA
ATOM     10  C   UNL     1       2.102   3.563  21.680  0.00  0.00    +0.000 A 
ATOM     11  C   UNL     1       2.942   2.537  21.311  0.00  0.00    +0.000 A 
ATOM     12  S   UNL     1       3.679   2.904  19.811  0.00  0.00    +0.000 S 
ENDBRANCH   7   8
BRANCH   7  14
ATOM     13  C   UNL     1       2.255   7.834  18.084  0.00  0.00    +0.000 C 
ATOM     14  C   UNL     1       2.771   6.848  19.131  0.00  0.00    +0.000 C 
ENDBRANCH   7  14
BRANCH   7  15
ATOM     15  O   UNL     1       1.978   5.168  17.633  0.00  0.00    +0.000 OA
ATOM     16  H   UNL     1       2.362   4.599  16.946  0.00  0.00    +0.000 HD
ENDBRANCH   7  15
ENDBRANCH   1   7
BRANCH   5  17
ATOM     17  O   UNL     1       7.732   6.720  18.111  0.00  0.00    +0.000 OA
BRANCH  17  18
ATOM     18  C   UNL     1       7.724   7.960  17.395  0.00  0.00    +0.000 C 
BRANCH  18  19
ATOM     19  C   UNL     1       8.390   9.001  18.174  0.00  0.00    +0.000 C 
ATOM     20  C   UNL     1       8.898   9.862  18.838  0.00  0.00    +0.000 C 
BRANCH  20  21
ATOM     21  C   UNL     1       9.475  10.941  19.578  0.00  0.00    +0.000 A 
ATOM     22  C   UNL     1       9.093  11.138  20.911  0.00  0.00    +0.000 A 
ATOM     23  C   UNL     1       9.613  12.209  21.637  0.00  0.00    +0.000 A 
ATOM     24  C   UNL     1      10.515  13.083  21.036  0.00  0.00    +0.000 A 
ATOM     25  C   UNL     1      10.907  12.884  19.710  0.00  0.00    +0.000 A 
ATOM     26  C   UNL     1      10.394  11.811  18.968  0.00  0.00    +0.000 A 
ATOM     27  C   UNL     1      10.834  11.602  17.544  0.00  0.00    +0.000 C 
ENDBRANCH  20  21
ENDBRANCH  18  19
ENDBRANCH  17  18
ENDBRANCH   5  17
TORSDOF 8
ENDMDL
MODEL 6
REMARK VINA RESULT:      -8.1      1.553      2.342
REMARK  Name = 
REMARK  10 active torsions:
REMARK  status: ('A' for Active; 'I' for Inactive)
REMARK    1  A    between atoms: C_1  and  C_2
REMARK    2  A    between atoms: C_2  and  C_3
REMARK    3  A    between atoms: C_3  and  O_4
REMARK    4  A    between atoms: C_3  and  C_5
REMARK    5  A    between atoms: C_3  and  C_22
REMARK    6  A    between atoms: C_9  and  O_10
REMARK    7  A    between atoms: O_10  and  C_11
REMARK    8  A    between atoms: C_11  and  C_12
REMARK    9  A    between atoms: C_13  and  C_14
REMARK   10  A    between atoms: C_19  and  C_20
REMARK                            x       y       z     vdW  Elec       q    Type
REMARK                         _______ _______ _______ _____ _____    ______ ____
ROOT
ATOM      1  C   UNL     1       4.345   5.253  17.925  0.00  0.00    +0.000 A 
ATOM      2  C   UNL     1       4.617   4.279  16.948  0.00  0.00    +0.000 A 
ATOM      3  C   UNL     1       5.894   4.133  16.412  0.00  0.00    +0.000 A 
ATOM      4  C   UNL     1       6.914   4.994  16.798  0.00  0.00    +0.000 A 
ATOM      5  C   UNL     1       6.650   6.037  17.685  0.00  0.00    +0.000 A 
ATOM      6  C   UNL     1       5.381   6.149  18.263  0.00  0.00    +0.000 A 
ENDROOT
BRANCH   1   7
ATOM      7  C   UNL     1       2.948   5.361  18.559  0.00  0.00    +0.000 C 
BRANCH   7   8
ATOM      8  C   UNL     1       2.810   4.371  19.724  0.00  0.00    +0.000 A 
ATOM      9  N   UNL     1       2.071   4.589  20.802  0.00  0.00    +0.000 NA
ATOM     10  C   UNL     1       2.185   3.531  21.681  0.00  0.00    +0.000 A 
ATOM     11  C   UNL     1       3.014   2.510  21.279  0.00  0.00    +0.000 A 
ATOM     12  S   UNL     1       3.681   2.874  19.746  0.00  0.00    +0.000 S 
ENDBRANCH   7   8
BRANCH   7  14
ATOM     13  C   UNL     1       2.262   7.799  17.966  0.00  0.00    +0.000 C 
ATOM     14  C   UNL     1       2.608   6.796  19.066  0.00  0.00    +0.000 C 
ENDBRANCH   7  14
BRANCH   7  15
ATOM     15  O   UNL     1       1.934   5.048  17.586  0.00  0.00    +0.000 OA
ATOM     16  H   UNL     1       1.701   4.115  17.715  0.00  0.00    +0.000 HD
ENDBRANCH   7  15
ENDBRANCH   1   7
BRANCH   5  17
ATOM     17  O   UNL     1       7.561   6.999  18.045  0.00  0.00    +0.000 OA
BRANCH  17  18
ATOM     18  C   UNL     1       7.261   8.313  17.561  0.00  0.00    +0.000 C 
BRANCH  18  19
ATOM     19  C   UNL     1       8.293   9.258  17.983  0.00  0.00    +0.000 C 
ATOM     20  C   UNL     1       9.119  10.037  18.369  0.00  0.00    +0.000 C 
BRANCH  20  21
ATOM     21  C   UNL     1      10.057  11.024  18.807  0.00  0.00    +0.000 A 
ATOM     22  C   UNL     1      10.973  11.551  17.889  0.00  0.00    +0.000 A 
ATOM     23  C   UNL     1      11.922  12.485  18.305  0.00  0.00    +0.000 A 
ATOM     24  C   UNL     1      11.957  12.894  19.636  0.00  0.00    +0.000 A 
ATOM     25  C   UNL     1      11.038  12.377  20.552  0.00  0.00    +0.000 A 
ATOM     26  C   UNL     1      10.077  11.440  20.149  0.00  0.00    +0.000 A 
ATOM     27  C   UNL     1       9.086  10.902  21.144  0.00  0.00    +0.000 C 
ENDBRANCH  20  21
ENDBRANCH  18  19
ENDBRANCH  17  18
ENDBRANCH   5  17
TORSDOF 8
ENDMDL
MODEL 7
REMARK VINA RESULT:      -8.1      4.179      8.294
REMARK  Name = 
REMARK  10 active torsions:
REMARK  status: ('A' for Active; 'I' for Inactive)
REMARK    1  A    between atoms: C_1  and  C_2
REMARK    2  A    between atoms: C_2  and  C_3
REMARK    3  A    between atoms: C_3  and  O_4
REMARK    4  A    between atoms: C_3  and  C_5
REMARK    5  A    between atoms: C_3  and  C_22
REMARK    6  A    between atoms: C_9  and  O_10
REMARK    7  A    between atoms: O_10  and  C_11
REMARK    8  A    between atoms: C_11  and  C_12
REMARK    9  A    between atoms: C_13  and  C_14
REMARK   10  A    between atoms: C_19  and  C_20
REMARK                            x       y       z     vdW  Elec       q    Type
REMARK                         _______ _______ _______ _____ _____    ______ ____
ROOT
ATOM      1  C   UNL     1       4.298   5.241  17.058  0.00  0.00    +0.000 A 
ATOM      2  C   UNL     1       3.544   4.053  17.049  0.00  0.00    +0.000 A 
ATOM      3  C   UNL     1       2.256   4.012  17.576  0.00  0.00    +0.000 A 
ATOM      4  C   UNL     1       1.713   5.142  18.176  0.00  0.00    +0.000 A 
ATOM      5  C   UNL     1       2.474   6.305  18.296  0.00  0.00    +0.000 A 
ATOM      6  C   UNL     1       3.748   6.360  17.719  0.00  0.00    +0.000 A 
ENDROOT
BRANCH   1   7
ATOM      7  C   UNL     1       5.692   5.292  16.413  0.00  0.00    +0.000 C 
BRANCH   7   8
ATOM      8  C   UNL     1       6.743   5.733  17.441  0.00  0.00    +0.000 A 
ATOM      9  N   UNL     1       7.185   4.968  18.429  0.00  0.00    +0.000 NA
ATOM     10  C   UNL     1       8.093   5.663  19.201  0.00  0.00    +0.000 A 
ATOM     11  C   UNL     1       8.341   6.959  18.809  0.00  0.00    +0.000 A 
ATOM     12  S   UNL     1       7.410   7.332  17.423  0.00  0.00    +0.000 S 
ENDBRANCH   7   8
BRANCH   7  14
ATOM     13  C   UNL     1       6.146   3.910  14.256  0.00  0.00    +0.000 C 
ATOM     14  C   UNL     1       6.133   3.934  15.784  0.00  0.00    +0.000 C 
ENDBRANCH   7  14
BRANCH   7  15
ATOM     15  O   UNL     1       5.705   6.238  15.328  0.00  0.00    +0.000 OA
ATOM     16  H   UNL     1       5.193   5.839  14.605  0.00  0.00    +0.000 HD
ENDBRANCH   7  15
ENDBRANCH   1   7
BRANCH   5  17
ATOM     17  O   UNL     1       2.067   7.434  18.962  0.00  0.00    +0.000 OA
BRANCH  17  18
ATOM     18  C   UNL     1       2.115   8.635  18.183  0.00  0.00    +0.000 C 
BRANCH  18  19
ATOM     19  C   UNL     1       0.775   9.197  18.034  0.00  0.00    +0.000 C 
ATOM     20  C   UNL     1      -0.327   9.645  17.868  0.00  0.00    +0.000 C 
BRANCH  20  21
ATOM     21  C   UNL     1      -1.605  10.245  17.644  0.00  0.00    +0.000 A 
ATOM     22  C   UNL     1      -2.314   9.929  16.478  0.00  0.00    +0.000 A 
ATOM     23  C   UNL     1      -3.544  10.534  16.221  0.00  0.00    +0.000 A 
ATOM     24  C   UNL     1      -4.068  11.454  17.127  0.00  0.00    +0.000 A 
ATOM     25  C   UNL     1      -3.367  11.765  18.295  0.00  0.00    +0.000 A 
ATOM     26  C   UNL     1      -2.132  11.162  18.568  0.00  0.00    +0.000 A 
ATOM     27  C   UNL     1      -1.395  11.497  19.837  0.00  0.00    +0.000 C 
ENDBRANCH  20  21
ENDBRANCH  18  19
ENDBRANCH  17  18
ENDBRANCH   5  17
TORSDOF 8
ENDMDL
MODEL 8
REMARK VINA RESULT:      -8.1      1.855      2.798
REMARK  Name = 
REMARK  10 active torsions:
REMARK  status: ('A' for Active; 'I' for Inactive)
REMARK    1  A    between atoms: C_1  and  C_2
REMARK    2  A    between atoms: C_2  and  C_3
REMARK    3  A    between atoms: C_3  and  O_4
REMARK    4  A    between atoms: C_3  and  C_5
REMARK    5  A    between atoms: C_3  and  C_22
REMARK    6  A    between atoms: C_9  and  O_10
REMARK    7  A    between atoms: O_10  and  C_11
REMARK    8  A    between atoms: C_11  and  C_12
REMARK    9  A    between atoms: C_13  and  C_14
REMARK   10  A    between atoms: C_19  and  C_20
REMARK                            x       y       z     vdW  Elec       q    Type
REMARK                         _______ _______ _______ _____ _____    ______ ____
ROOT
ATOM      1  C   UNL     1       4.197   5.443  17.432  0.00  0.00    +0.000 A 
ATOM      2  C   UNL     1       4.441   4.376  16.548  0.00  0.00    +0.000 A 
ATOM      3  C   UNL     1       5.635   4.287  15.837  0.00  0.00    +0.000 A 
ATOM      4  C   UNL     1       6.588   5.292  15.950  0.00  0.00    +0.000 A 
ATOM      5  C   UNL     1       6.332   6.415  16.736  0.00  0.00    +0.000 A 
ATOM      6  C   UNL     1       5.155   6.477  17.490  0.00  0.00    +0.000 A 
ENDROOT
BRANCH   1   7
ATOM      7  C   UNL     1       2.904   5.495  18.262  0.00  0.00    +0.000 C 
BRANCH   7   8
ATOM      8  C   UNL     1       2.398   4.077  18.556  0.00  0.00    +0.000 A 
ATOM      9  N   UNL     1       1.317   3.544  18.005  0.00  0.00    +0.000 NA
ATOM     10  C   UNL     1       1.105   2.274  18.501  0.00  0.00    +0.000 A 
ATOM     11  C   UNL     1       2.018   1.838  19.434  0.00  0.00    +0.000 A 
ATOM     12  S   UNL     1       3.190   3.054  19.708  0.00  0.00    +0.000 S 
ENDBRANCH   7   8
BRANCH   7  14
ATOM     13  C   UNL     1       2.216   7.536  19.722  0.00  0.00    +0.000 C 
ATOM     14  C   UNL     1       3.064   6.269  19.607  0.00  0.00    +0.000 C 
ENDBRANCH   7  14
BRANCH   7  15
ATOM     15  O   UNL     1       1.875   6.196  17.538  0.00  0.00    +0.000 OA
ATOM     16  H   UNL     1       1.042   5.731  17.719  0.00  0.00    +0.000 HD
ENDBRANCH   7  15
ENDBRANCH   1   7
BRANCH   5  17
ATOM     17  O   UNL     1       7.163   7.504  16.827  0.00  0.00    +0.000 OA
BRANCH  17  18
ATOM     18  C   UNL     1       7.815   7.651  18.094  0.00  0.00    +0.000 C 
BRANCH  18  19
ATOM     19  C   UNL     1       8.429   8.972  18.199  0.00  0.00    +0.000 C 
ATOM     20  C   UNL     1       8.942  10.057  18.241  0.00  0.00    +0.000 C 
BRANCH  20  21
ATOM     21  C   UNL     1       9.623  11.313  18.299  0.00  0.00    +0.000 A 
ATOM     22  C   UNL     1      10.899  11.373  18.871  0.00  0.00    +0.000 A 
ATOM     23  C   UNL     1      11.563  12.595  18.975  0.00  0.00    +0.000 A 
ATOM     24  C   UNL     1      10.955  13.758  18.508  0.00  0.00    +0.000 A 
ATOM     25  C   UNL     1       9.685  13.700  17.928  0.00  0.00    +0.000 A 
ATOM     26  C   UNL     1       9.006  12.479  17.814  0.00  0.00    +0.000 A 
ATOM     27  C   UNL     1       7.645  12.430  17.177  0.00  0.00    +0.000 C 
ENDBRANCH  20  21
ENDBRANCH  18  19
ENDBRANCH  17  18
ENDBRANCH   5  17
TORSDOF 8
ENDMDL
MODEL 9
REMARK VINA RESULT:      -8.1      1.505      2.387
REMARK  Name = 
REMARK  10 active torsions:
REMARK  status: ('A' for Active; 'I' for Inactive)
REMARK    1  A    between atoms: C_1  and  C_2
REMARK    2  A    between atoms: C_2  and  C_3
REMARK    3  A    between atoms: C_3  and  O_4
REMARK    4  A    between atoms: C_3  and  C_5
REMARK    5  A    between atoms: C_3  and  C_22
REMARK    6  A    between atoms: C_9  and  O_10
REMARK    7  A    between atoms: O_10  and  C_11
REMARK    8  A    between atoms: C_11  and  C_12
REMARK    9  A    between atoms: C_13  and  C_14
REMARK   10  A    between atoms: C_19  and  C_20
REMARK                            x       y       z     vdW  Elec       q    Type
REMARK                         _______ _______ _______ _____ _____    ______ ____
ROOT
ATOM      1  C   UNL     1       4.602   5.324  17.521  0.00  0.00    +0.000 A 
ATOM      2  C   UNL     1       4.862   4.212  16.700  0.00  0.00    +0.000 A 
ATOM      3  C   UNL     1       6.087   4.061  16.057  0.00  0.00    +0.000 A 
ATOM      4  C   UNL     1       7.061   5.046  16.174  0.00  0.00    +0.000 A 
ATOM      5  C   UNL     1       6.795   6.210  16.894  0.00  0.00    +0.000 A 
ATOM      6  C   UNL     1       5.583   6.335  17.583  0.00  0.00    +0.000 A 
ENDROOT
BRANCH   1   7
ATOM      7  C   UNL     1       3.270   5.446  18.280  0.00  0.00    +0.000 C 
BRANCH   7   8
ATOM      8  C   UNL     1       2.672   4.057  18.541  0.00  0.00    +0.000 A 
ATOM      9  N   UNL     1       1.663   3.541  17.855  0.00  0.00    +0.000 NA
ATOM     10  C   UNL     1       1.332   2.298  18.354  0.00  0.00    +0.000 A 
ATOM     11  C   UNL     1       2.083   1.866  19.423  0.00  0.00    +0.000 A 
ATOM     12  S   UNL     1       3.250   3.050  19.827  0.00  0.00    +0.000 S 
ENDBRANCH   7   8
BRANCH   7  14
ATOM     13  C   UNL     1       2.119   6.903  20.102  0.00  0.00    +0.000 C 
ATOM     14  C   UNL     1       3.398   6.209  19.634  0.00  0.00    +0.000 C 
ENDBRANCH   7  14
BRANCH   7  15
ATOM     15  O   UNL     1       2.322   6.202  17.503  0.00  0.00    +0.000 OA
ATOM     16  H   UNL     1       1.941   5.587  16.854  0.00  0.00    +0.000 HD
ENDBRANCH   7  15
ENDBRANCH   1   7
BRANCH   5  17
ATOM     17  O   UNL     1       7.648   7.282  16.980  0.00  0.00    +0.000 OA
BRANCH  17  18
ATOM     18  C   UNL     1       7.102   8.426  17.645  0.00  0.00    +0.000 C 
BRANCH  18  19
ATOM     19  C   UNL     1       8.159   9.385  17.957  0.00  0.00    +0.000 C 
ATOM     20  C   UNL     1       9.049  10.140  18.237  0.00  0.00    +0.000 C 
BRANCH  20  21
ATOM     21  C   UNL     1      10.072  11.056  18.638  0.00  0.00    +0.000 A 
ATOM     22  C   UNL     1      10.955  11.558  17.675  0.00  0.00    +0.000 A 
ATOM     23  C   UNL     1      11.985  12.421  18.052  0.00  0.00    +0.000 A 
ATOM     24  C   UNL     1      12.133  12.782  19.389  0.00  0.00    +0.000 A 
ATOM     25  C   UNL     1      11.248  12.290  20.351  0.00  0.00    +0.000 A 
ATOM     26  C   UNL     1      10.207  11.425  19.987  0.00  0.00    +0.000 A 
ATOM     27  C   UNL     1       9.253  10.913  21.032  0.00  0.00    +0.000 C 
ENDBRANCH  20  21
ENDBRANCH  18  19
ENDBRANCH  17  18
ENDBRANCH   5  17
TORSDOF 8
ENDMDL
