MODEL 1
REMARK VINA RESULT:      -5.5      0.000      0.000
REMARK  Name = 
REMARK  9 active torsions:
REMARK  status: ('A' for Active; 'I' for Inactive)
REMARK    1  A    between atoms: C_1  and  C_2
REMARK    2  A    between atoms: C_2  and  C_3
REMARK    3  A    between atoms: C_3  and  C_4
REMARK    4  A    between atoms: C_4  and  N_5
REMARK    5  A    between atoms: C_7  and  C_8
REMARK    6  A    between atoms: C_8  and  O_9
REMARK    7  A    between atoms: N_10  and  C_11
REMARK    8  A    between atoms: C_11  and  C_12
REMARK    9  A    between atoms: C_12  and  C_13
REMARK                            x       y       z     vdW  Elec       q    Type
REMARK                         _______ _______ _______ _____ _____    ______ ____
ROOT
ATOM      1  N   UNL     1       4.417   3.663  18.585  0.00  0.00    +0.000 N 
ATOM      2  C   UNL     1       4.129   3.844  17.244  0.00  0.00    +0.000 A 
ATOM      3  C   UNL     1       5.273   4.348  16.683  0.00  0.00    +0.000 A 
ATOM      4  N   UNL     1       6.172   4.396  17.768  0.00  0.00    +0.000 N 
ATOM      5  N   UNL     1       5.650   3.990  18.926  0.00  0.00    +0.000 NA
ENDROOT
BRANCH   1   6
ATOM      6  C   UNL     1       3.467   3.243  19.636  0.00  0.00    +0.000 C 
BRANCH   6   7
ATOM      7  C   UNL     1       2.017   3.376  19.181  0.00  0.00    +0.000 C 
BRANCH   7   9
ATOM      8  C   UNL     1       1.780   5.418  20.649  0.00  0.00    +0.000 C 
ATOM      9  C   UNL     1       1.145   4.107  20.198  0.00  0.00    +0.000 C 
ENDBRANCH   7   9
ENDBRANCH   6   7
ENDBRANCH   1   6
BRANCH   3  10
ATOM     10  C   UNL     1       5.540   4.816  15.307  0.00  0.00    +0.000 C 
BRANCH  10  11
ATOM     11  O   UNL     1       5.472   6.234  15.243  0.00  0.00    +0.000 OA
ATOM     12  H   UNL     1       4.563   6.509  15.461  0.00  0.00    +0.000 HD
ENDBRANCH  10  11
ENDBRANCH   3  10
BRANCH   4  13
ATOM     13  C   UNL     1       7.534   4.949  17.793  0.00  0.00    +0.000 C 
BRANCH  13  14
ATOM     14  C   UNL     1       7.648   6.274  18.550  0.00  0.00    +0.000 C 
ATOM     15  C   UNL     1       7.638   7.489  17.633  0.00  0.00    +0.000 C 
ENDBRANCH  13  14
ENDBRANCH   4  13
TORSDOF 7
ENDMDL
MODEL 2
REMARK VINA RESULT:      -5.4      1.911      2.717
REMARK  Name = 
REMARK  9 active torsions:
REMARK  status: ('A' for Active; 'I' for Inactive)
REMARK    1  A    between atoms: C_1  and  C_2
REMARK    2  A    between atoms: C_2  and  C_3
REMARK    3  A    between atoms: C_3  and  C_4
REMARK    4  A    between atoms: C_4  and  N_5
REMARK    5  A    between atoms: C_7  and  C_8
REMARK    6  A    between atoms: C_8  and  O_9
REMARK    7  A    between atoms: N_10  and  C_11
REMARK    8  A    between atoms: C_11  and  C_12
REMARK    9  A    between atoms: C_12  and  C_13
REMARK                            x       y       z     vdW  Elec       q    Type
REMARK                         _______ _______ _______ _____ _____    ______ ____
ROOT
ATOM      1  N   UNL     1       3.750   3.258  18.247  0.00  0.00    +0.000 N 
ATOM      2  C   UNL     1       4.739   3.581  19.160  0.00  0.00    +0.000 A 
ATOM      3  C   UNL     1       5.406   4.651  18.623  0.00  0.00    +0.000 A 
ATOM      4  N   UNL     1       4.715   4.893  17.418  0.00  0.00    +0.000 N 
ATOM      5  N   UNL     1       3.716   4.041  17.184  0.00  0.00    +0.000 NA
ENDROOT
BRANCH   1   6
ATOM      6  C   UNL     1       2.834   2.102  18.319  0.00  0.00    +0.000 C 
BRANCH   6   7
ATOM      7  C   UNL     1       1.401   2.528  18.623  0.00  0.00    +0.000 C 
BRANCH   7   9
ATOM      8  C   UNL     1       1.059   4.268  20.422  0.00  0.00    +0.000 C 
ATOM      9  C   UNL     1       1.164   2.779  20.111  0.00  0.00    +0.000 C 
ENDBRANCH   7   9
ENDBRANCH   6   7
ENDBRANCH   1   6
BRANCH   3  10
ATOM     10  C   UNL     1       6.605   5.371  19.101  0.00  0.00    +0.000 C 
BRANCH  10  11
ATOM     11  O   UNL     1       7.786   4.728  18.642  0.00  0.00    +0.000 OA
ATOM     12  H   UNL     1       8.252   5.334  18.037  0.00  0.00    +0.000 HD
ENDBRANCH  10  11
ENDBRANCH   3  10
BRANCH   4  13
ATOM     13  C   UNL     1       5.043   5.861  16.364  0.00  0.00    +0.000 C 
BRANCH  13  14
ATOM     14  C   UNL     1       5.537   5.218  15.066  0.00  0.00    +0.000 C 
ATOM     15  C   UNL     1       6.901   4.557  15.207  0.00  0.00    +0.000 C 
ENDBRANCH  13  14
ENDBRANCH   4  13
TORSDOF 7
ENDMDL
MODEL 3
REMARK VINA RESULT:      -5.4      2.176      3.195
REMARK  Name = 
REMARK  9 active torsions:
REMARK  status: ('A' for Active; 'I' for Inactive)
REMARK    1  A    between atoms: C_1  and  C_2
REMARK    2  A    between atoms: C_2  and  C_3
REMARK    3  A    between atoms: C_3  and  C_4
REMARK    4  A    between atoms: C_4  and  N_5
REMARK    5  A    between atoms: C_7  and  C_8
REMARK    6  A    between atoms: C_8  and  O_9
REMARK    7  A    between atoms: N_10  and  C_11
REMARK    8  A    between atoms: C_11  and  C_12
REMARK    9  A    between atoms: C_12  and  C_13
REMARK                            x       y       z     vdW  Elec       q    Type
REMARK                         _______ _______ _______ _____ _____    ______ ____
ROOT
ATOM      1  N   UNL     1       4.047   5.228  18.502  0.00  0.00    +0.000 N 
ATOM      2  C   UNL     1       5.097   5.457  19.375  0.00  0.00    +0.000 A 
ATOM      3  C   UNL     1       6.226   5.484  18.599  0.00  0.00    +0.000 A 
ATOM      4  N   UNL     1       5.728   5.292  17.294  0.00  0.00    +0.000 N 
ATOM      5  N   UNL     1       4.406   5.126  17.236  0.00  0.00    +0.000 NA
ENDROOT
BRANCH   1   6
ATOM      6  C   UNL     1       2.634   5.004  18.871  0.00  0.00    +0.000 C 
BRANCH   6   7
ATOM      7  C   UNL     1       2.480   4.640  20.344  0.00  0.00    +0.000 C 
BRANCH   7   9
ATOM      8  C   UNL     1       1.503   2.699  21.631  0.00  0.00    +0.000 C 
ATOM      9  C   UNL     1       1.232   3.803  20.617  0.00  0.00    +0.000 C 
ENDBRANCH   7   9
ENDBRANCH   6   7
ENDBRANCH   1   6
BRANCH   3  10
ATOM     10  C   UNL     1       7.649   5.605  18.981  0.00  0.00    +0.000 C 
BRANCH  10  11
ATOM     11  O   UNL     1       7.799   5.464  20.387  0.00  0.00    +0.000 OA
ATOM     12  H   UNL     1       7.421   4.606  20.653  0.00  0.00    +0.000 HD
ENDBRANCH  10  11
ENDBRANCH   3  10
BRANCH   4  13
ATOM     13  C   UNL     1       6.489   5.127  16.048  0.00  0.00    +0.000 C 
BRANCH  13  14
ATOM     14  C   UNL     1       6.184   3.824  15.306  0.00  0.00    +0.000 C 
ATOM     15  C   UNL     1       5.996   4.019  13.808  0.00  0.00    +0.000 C 
ENDBRANCH  13  14
ENDBRANCH   4  13
TORSDOF 7
ENDMDL
MODEL 4
REMARK VINA RESULT:      -5.3      1.020      1.020
REMARK  Name = 
REMARK  9 active torsions:
REMARK  status: ('A' for Active; 'I' for Inactive)
REMARK    1  A    between atoms: C_1  and  C_2
REMARK    2  A    between atoms: C_2  and  C_3
REMARK    3  A    between atoms: C_3  and  C_4
REMARK    4  A    between atoms: C_4  and  N_5
REMARK    5  A    between atoms: C_7  and  C_8
REMARK    6  A    between atoms: C_8  and  O_9
REMARK    7  A    between atoms: N_10  and  C_11
REMARK    8  A    between atoms: C_11  and  C_12
REMARK    9  A    between atoms: C_12  and  C_13
REMARK                            x       y       z     vdW  Elec       q    Type
REMARK                         _______ _______ _______ _____ _____    ______ ____
ROOT
ATOM      1  N   UNL     1       4.093   4.546  18.111  0.00  0.00    +0.000 N 
ATOM      2  C   UNL     1       4.222   4.226  16.771  0.00  0.00    +0.000 A 
ATOM      3  C   UNL     1       5.564   4.285  16.501  0.00  0.00    +0.000 A 
ATOM      4  N   UNL     1       6.131   4.617  17.749  0.00  0.00    +0.000 N 
ATOM      5  N   UNL     1       5.238   4.786  18.725  0.00  0.00    +0.000 NA
ENDROOT
BRANCH   1   6
ATOM      6  C   UNL     1       2.828   4.727  18.852  0.00  0.00    +0.000 C 
BRANCH   6   7
ATOM      7  C   UNL     1       1.808   3.644  18.510  0.00  0.00    +0.000 C 
BRANCH   7   9
ATOM      8  C   UNL     1       1.619   3.527  21.027  0.00  0.00    +0.000 C 
ATOM      9  C   UNL     1       0.918   3.279  19.696  0.00  0.00    +0.000 C 
ENDBRANCH   7   9
ENDBRANCH   6   7
ENDBRANCH   1   6
BRANCH   3  10
ATOM     10  C   UNL     1       6.293   4.126  15.226  0.00  0.00    +0.000 C 
BRANCH  10  11
ATOM     11  O   UNL     1       6.651   5.396  14.697  0.00  0.00    +0.000 OA
ATOM     12  H   UNL     1       7.013   5.266  13.802  0.00  0.00    +0.000 HD
ENDBRANCH  10  11
ENDBRANCH   3  10
BRANCH   4  13
ATOM     13  C   UNL     1       7.536   4.917  18.055  0.00  0.00    +0.000 C 
BRANCH  13  14
ATOM     14  C   UNL     1       7.761   6.326  18.607  0.00  0.00    +0.000 C 
ATOM     15  C   UNL     1       7.616   7.412  17.551  0.00  0.00    +0.000 C 
ENDBRANCH  13  14
ENDBRANCH   4  13
TORSDOF 7
ENDMDL
MODEL 5
REMARK VINA RESULT:      -5.3      1.989      5.172
REMARK  Name = 
REMARK  9 active torsions:
REMARK  status: ('A' for Active; 'I' for Inactive)
REMARK    1  A    between atoms: C_1  and  C_2
REMARK    2  A    between atoms: C_2  and  C_3
REMARK    3  A    between atoms: C_3  and  C_4
REMARK    4  A    between atoms: C_4  and  N_5
REMARK    5  A    between atoms: C_7  and  C_8
REMARK    6  A    between atoms: C_8  and  O_9
REMARK    7  A    between atoms: N_10  and  C_11
REMARK    8  A    between atoms: C_11  and  C_12
REMARK    9  A    between atoms: C_12  and  C_13
REMARK                            x       y       z     vdW  Elec       q    Type
REMARK                         _______ _______ _______ _____ _____    ______ ____
ROOT
ATOM      1  N   UNL     1       5.713   4.297  18.160  0.00  0.00    +0.000 N 
ATOM      2  C   UNL     1       4.639   4.266  17.287  0.00  0.00    +0.000 A 
ATOM      3  C   UNL     1       3.618   3.664  17.975  0.00  0.00    +0.000 A 
ATOM      4  N   UNL     1       4.184   3.410  19.241  0.00  0.00    +0.000 N 
ATOM      5  N   UNL     1       5.460   3.784  19.351  0.00  0.00    +0.000 NA
ENDROOT
BRANCH   1   6
ATOM      6  C   UNL     1       7.083   4.749  17.848  0.00  0.00    +0.000 C 
BRANCH   6   7
ATOM      7  C   UNL     1       7.097   5.814  16.755  0.00  0.00    +0.000 C 
BRANCH   7   9
ATOM      8  C   UNL     1       8.166   7.176  18.594  0.00  0.00    +0.000 C 
ATOM      9  C   UNL     1       7.361   7.216  17.301  0.00  0.00    +0.000 C 
ENDBRANCH   7   9
ENDBRANCH   6   7
ENDBRANCH   1   6
BRANCH   3  10
ATOM     10  C   UNL     1       2.261   3.280  17.534  0.00  0.00    +0.000 C 
BRANCH  10  11
ATOM     11  O   UNL     1       2.152   1.867  17.436  0.00  0.00    +0.000 OA
ATOM     12  H   UNL     1       1.382   1.654  16.878  0.00  0.00    +0.000 HD
ENDBRANCH  10  11
ENDBRANCH   3  10
BRANCH   4  13
ATOM     13  C   UNL     1       3.590   2.684  20.371  0.00  0.00    +0.000 C 
BRANCH  13  14
ATOM     14  C   UNL     1       2.557   3.499  21.154  0.00  0.00    +0.000 C 
ATOM     15  C   UNL     1       1.306   2.704  21.500  0.00  0.00    +0.000 C 
ENDBRANCH  13  14
ENDBRANCH   4  13
TORSDOF 7
ENDMDL
MODEL 6
REMARK VINA RESULT:      -5.3      2.034      3.070
REMARK  Name = 
REMARK  9 active torsions:
REMARK  status: ('A' for Active; 'I' for Inactive)
REMARK    1  A    between atoms: C_1  and  C_2
REMARK    2  A    between atoms: C_2  and  C_3
REMARK    3  A    between atoms: C_3  and  C_4
REMARK    4  A    between atoms: C_4  and  N_5
REMARK    5  A    between atoms: C_7  and  C_8
REMARK    6  A    between atoms: C_8  and  O_9
REMARK    7  A    between atoms: N_10  and  C_11
REMARK    8  A    between atoms: C_11  and  C_12
REMARK    9  A    between atoms: C_12  and  C_13
REMARK                            x       y       z     vdW  Elec       q    Type
REMARK                         _______ _______ _______ _____ _____    ______ ____
ROOT
ATOM      1  N   UNL     1       3.632   4.579  17.977  0.00  0.00    +0.000 N 
ATOM      2  C   UNL     1       4.560   5.159  18.824  0.00  0.00    +0.000 A 
ATOM      3  C   UNL     1       5.761   5.085  18.168  0.00  0.00    +0.000 A 
ATOM      4  N   UNL     1       5.424   4.474  16.943  0.00  0.00    +0.000 N 
ATOM      5  N   UNL     1       4.133   4.157  16.830  0.00  0.00    +0.000 NA
ENDROOT
BRANCH   1   6
ATOM      6  C   UNL     1       2.211   4.319  18.280  0.00  0.00    +0.000 C 
BRANCH   6   7
ATOM      7  C   UNL     1       2.019   3.007  19.034  0.00  0.00    +0.000 C 
BRANCH   7   9
ATOM      8  C   UNL     1       1.773   2.975  21.548  0.00  0.00    +0.000 C 
ATOM      9  C   UNL     1       1.057   3.139  20.213  0.00  0.00    +0.000 C 
ENDBRANCH   7   9
ENDBRANCH   6   7
ENDBRANCH   1   6
BRANCH   3  10
ATOM     10  C   UNL     1       7.120   5.463  18.610  0.00  0.00    +0.000 C 
BRANCH  10  11
ATOM     11  O   UNL     1       7.206   5.433  20.028  0.00  0.00    +0.000 OA
ATOM     12  H   UNL     1       6.412   4.987  20.377  0.00  0.00    +0.000 HD
ENDBRANCH  10  11
ENDBRANCH   3  10
BRANCH   4  13
ATOM     13  C   UNL     1       6.326   4.043  15.867  0.00  0.00    +0.000 C 
BRANCH  13  14
ATOM     14  C   UNL     1       6.050   4.718  14.521  0.00  0.00    +0.000 C 
ATOM     15  C   UNL     1       6.101   3.753  13.346  0.00  0.00    +0.000 C 
ENDBRANCH  13  14
ENDBRANCH   4  13
TORSDOF 7
ENDMDL
MODEL 7
REMARK VINA RESULT:      -5.3      2.937      5.140
REMARK  Name = 
REMARK  9 active torsions:
REMARK  status: ('A' for Active; 'I' for Inactive)
REMARK    1  A    between atoms: C_1  and  C_2
REMARK    2  A    between atoms: C_2  and  C_3
REMARK    3  A    between atoms: C_3  and  C_4
REMARK    4  A    between atoms: C_4  and  N_5
REMARK    5  A    between atoms: C_7  and  C_8
REMARK    6  A    between atoms: C_8  and  O_9
REMARK    7  A    between atoms: N_10  and  C_11
REMARK    8  A    between atoms: C_11  and  C_12
REMARK    9  A    between atoms: C_12  and  C_13
REMARK                            x       y       z     vdW  Elec       q    Type
REMARK                         _______ _______ _______ _____ _____    ______ ____
ROOT
ATOM      1  N   UNL     1       6.694   5.087  15.686  0.00  0.00    +0.000 N 
ATOM      2  C   UNL     1       5.926   4.457  16.649  0.00  0.00    +0.000 A 
ATOM      3  C   UNL     1       6.191   5.110  17.823  0.00  0.00    +0.000 A 
ATOM      4  N   UNL     1       7.099   6.117  17.436  0.00  0.00    +0.000 N 
ATOM      5  N   UNL     1       7.413   6.097  16.140  0.00  0.00    +0.000 NA
ENDROOT
BRANCH   1   6
ATOM      6  C   UNL     1       6.841   4.676  14.275  0.00  0.00    +0.000 C 
BRANCH   6   7
ATOM      7  C   UNL     1       5.539   4.124  13.703  0.00  0.00    +0.000 C 
BRANCH   7   9
ATOM      8  C   UNL     1       7.020   3.664  11.709  0.00  0.00    +0.000 C 
ATOM      9  C   UNL     1       5.759   3.260  12.463  0.00  0.00    +0.000 C 
ENDBRANCH   7   9
ENDBRANCH   6   7
ENDBRANCH   1   6
BRANCH   3  10
ATOM     10  C   UNL     1       5.732   4.832  19.200  0.00  0.00    +0.000 C 
BRANCH  10  11
ATOM     11  O   UNL     1       4.604   5.635  19.519  0.00  0.00    +0.000 OA
ATOM     12  H   UNL     1       4.523   6.335  18.845  0.00  0.00    +0.000 HD
ENDBRANCH  10  11
ENDBRANCH   3  10
BRANCH   4  13
ATOM     13  C   UNL     1       7.815   7.071  18.294  0.00  0.00    +0.000 C 
BRANCH  13  14
ATOM     14  C   UNL     1       7.890   8.486  17.715  0.00  0.00    +0.000 C 
ATOM     15  C   UNL     1       8.722   9.436  18.564  0.00  0.00    +0.000 C 
ENDBRANCH  13  14
ENDBRANCH   4  13
TORSDOF 7
ENDMDL
MODEL 8
REMARK VINA RESULT:      -5.3      0.967      1.062
REMARK  Name = 
REMARK  9 active torsions:
REMARK  status: ('A' for Active; 'I' for Inactive)
REMARK    1  A    between atoms: C_1  and  C_2
REMARK    2  A    between atoms: C_2  and  C_3
REMARK    3  A    between atoms: C_3  and  C_4
REMARK    4  A    between atoms: C_4  and  N_5
REMARK    5  A    between atoms: C_7  and  C_8
REMARK    6  A    between atoms: C_8  and  O_9
REMARK    7  A    between atoms: N_10  and  C_11
REMARK    8  A    between atoms: C_11  and  C_12
REMARK    9  A    between atoms: C_12  and  C_13
REMARK                            x       y       z     vdW  Elec       q    Type
REMARK                         _______ _______ _______ _____ _____    ______ ____
ROOT
ATOM      1  N   UNL     1       4.343   3.755  18.633  0.00  0.00    +0.000 N 
ATOM      2  C   UNL     1       4.114   3.836  17.270  0.00  0.00    +0.000 A 
ATOM      3  C   UNL     1       5.294   4.264  16.720  0.00  0.00    +0.000 A 
ATOM      4  N   UNL     1       6.150   4.376  17.834  0.00  0.00    +0.000 N 
ATOM      5  N   UNL     1       5.570   4.077  18.998  0.00  0.00    +0.000 NA
ENDROOT
BRANCH   1   6
ATOM      6  C   UNL     1       3.341   3.445  19.673  0.00  0.00    +0.000 C 
BRANCH   6   7
ATOM      7  C   UNL     1       2.064   4.261  19.495  0.00  0.00    +0.000 C 
BRANCH   7   9
ATOM      8  C   UNL     1       2.464   6.756  19.520  0.00  0.00    +0.000 C 
ATOM      9  C   UNL     1       2.057   5.536  20.337  0.00  0.00    +0.000 C 
ENDBRANCH   7   9
ENDBRANCH   6   7
ENDBRANCH   1   6
BRANCH   3  10
ATOM     10  C   UNL     1       5.629   4.614  15.324  0.00  0.00    +0.000 C 
BRANCH  10  11
ATOM     11  O   UNL     1       6.288   3.529  14.685  0.00  0.00    +0.000 OA
ATOM     12  H   UNL     1       5.762   2.721  14.828  0.00  0.00    +0.000 HD
ENDBRANCH  10  11
ENDBRANCH   3  10
BRANCH   4  13
ATOM     13  C   UNL     1       7.524   4.894  17.874  0.00  0.00    +0.000 C 
BRANCH  13  14
ATOM     14  C   UNL     1       7.648   6.268  18.536  0.00  0.00    +0.000 C 
ATOM     15  C   UNL     1       7.566   7.420  17.545  0.00  0.00    +0.000 C 
ENDBRANCH  13  14
ENDBRANCH   4  13
TORSDOF 7
ENDMDL
MODEL 9
REMARK VINA RESULT:      -5.2      2.200      5.367
REMARK  Name = 
REMARK  9 active torsions:
REMARK  status: ('A' for Active; 'I' for Inactive)
REMARK    1  A    between atoms: C_1  and  C_2
REMARK    2  A    between atoms: C_2  and  C_3
REMARK    3  A    between atoms: C_3  and  C_4
REMARK    4  A    between atoms: C_4  and  N_5
REMARK    5  A    between atoms: C_7  and  C_8
REMARK    6  A    between atoms: C_8  and  O_9
REMARK    7  A    between atoms: N_10  and  C_11
REMARK    8  A    between atoms: C_11  and  C_12
REMARK    9  A    between atoms: C_12  and  C_13
REMARK                            x       y       z     vdW  Elec       q    Type
REMARK                         _______ _______ _______ _____ _____    ______ ____
ROOT
ATOM      1  N   UNL     1       4.193   5.076  17.405  0.00  0.00    +0.000 N 
ATOM      2  C   UNL     1       4.757   3.850  17.712  0.00  0.00    +0.000 A 
ATOM      3  C   UNL     1       3.790   3.154  18.387  0.00  0.00    +0.000 A 
ATOM      4  N   UNL     1       2.696   4.043  18.396  0.00  0.00    +0.000 N 
ATOM      5  N   UNL     1       2.943   5.216  17.809  0.00  0.00    +0.000 NA
ENDROOT
BRANCH   1   6
ATOM      6  C   UNL     1       4.878   6.223  16.775  0.00  0.00    +0.000 C 
BRANCH   6   7
ATOM      7  C   UNL     1       6.367   5.960  16.577  0.00  0.00    +0.000 C 
BRANCH   7   9
ATOM      8  C   UNL     1       7.669   6.110  18.737  0.00  0.00    +0.000 C 
ATOM      9  C   UNL     1       7.244   6.838  17.467  0.00  0.00    +0.000 C 
ENDBRANCH   7   9
ENDBRANCH   6   7
ENDBRANCH   1   6
BRANCH   3  10
ATOM     10  C   UNL     1       3.840   1.827  19.036  0.00  0.00    +0.000 C 
BRANCH  10  11
ATOM     11  O   UNL     1       4.045   0.808  18.066  0.00  0.00    +0.000 OA
ATOM     12  H   UNL     1       5.000   0.622  18.012  0.00  0.00    +0.000 HD
ENDBRANCH  10  11
ENDBRANCH   3  10
BRANCH   4  13
ATOM     13  C   UNL     1       1.401   3.882  19.072  0.00  0.00    +0.000 C 
BRANCH  13  14
ATOM     14  C   UNL     1       1.444   4.190  20.570  0.00  0.00    +0.000 C 
ATOM     15  C   UNL     1       1.307   2.949  21.440  0.00  0.00    +0.000 C 
ENDBRANCH  13  14
ENDBRANCH   4  13
TORSDOF 7
ENDMDL
