MODEL 1
REMARK VINA RESULT:      -8.8      0.000      0.000
REMARK  Name = 
REMARK  9 active torsions:
REMARK  status: ('A' for Active; 'I' for Inactive)
REMARK    1  A    between atoms: C_1  and  C_2
REMARK    2  A    between atoms: C_2  and  O_3
REMARK    3  A    between atoms: O_3  and  C_4
REMARK    4  A    between atoms: C_4  and  C_6
REMARK    5  A    between atoms: C_8  and  C_9
REMARK    6  A    between atoms: C_11  and  N_12
REMARK    7  A    between atoms: C_13  and  C_15
REMARK    8  A    between atoms: C_15  and  C_16
REMARK    9  A    between atoms: C_15  and  C_22
REMARK                            x       y       z     vdW  Elec       q    Type
REMARK                         _______ _______ _______ _____ _____    ______ ____
ROOT
ATOM      1  N   UNL     1       4.483   4.763  17.787  0.00  0.00    +0.000 N 
ATOM      2  C   UNL     1       4.097   6.065  18.084  0.00  0.00    +0.000 C 
ATOM      3  O   UNL     1       4.444   7.053  17.429  0.00  0.00    +0.000 OA
ATOM      4  H   UNL     1       3.852   4.016  18.045  0.00  0.00    +0.000 HD
ENDROOT
BRANCH   1  10
ATOM      5  C   UNL     1       6.768   4.569  16.688  0.00  0.00    +0.000 A 
ATOM      6  C   UNL     1       7.178   4.386  15.317  0.00  0.00    +0.000 A 
ATOM      7  C   UNL     1       6.124   4.117  14.468  0.00  0.00    +0.000 A 
ATOM      8  C   UNL     1       6.145   3.913  12.991  0.00  0.00    +0.000 C 
ATOM      9  S   UNL     1       4.649   4.007  15.329  0.00  0.00    +0.000 S 
ATOM     10  C   UNL     1       5.390   4.502  16.778  0.00  0.00    +0.000 A 
BRANCH   5  11
ATOM     11  C   UNL     1       7.667   4.772  17.820  0.00  0.00    +0.000 C 
ATOM     12  O   UNL     1       8.659   4.084  18.027  0.00  0.00    +0.000 OA
BRANCH  11  13
ATOM     13  O   UNL     1       7.285   5.827  18.605  0.00  0.00    +0.000 OA
BRANCH  13  15
ATOM     14  C   UNL     1       7.762   8.011  17.644  0.00  0.00    +0.000 C 
ATOM     15  C   UNL     1       8.191   6.937  18.624  0.00  0.00    +0.000 C 
ENDBRANCH  13  15
ENDBRANCH  11  13
ENDBRANCH   5  11
ENDBRANCH   1  10
BRANCH   2  16
ATOM     16  C   UNL     1       3.106   6.211  19.268  0.00  0.00    +0.000 C 
BRANCH  16  17
ATOM     17  C   UNL     1       2.315   7.524  19.149  0.00  0.00    +0.000 A 
ATOM     18  C   UNL     1       2.107   8.172  17.917  0.00  0.00    +0.000 A 
ATOM     19  C   UNL     1       1.263   9.288  17.829  0.00  0.00    +0.000 A 
ATOM     20  C   UNL     1       0.675   9.811  18.977  0.00  0.00    +0.000 A 
ATOM     21  C   UNL     1       0.939   9.233  20.215  0.00  0.00    +0.000 A 
ATOM     22  C   UNL     1       1.753   8.097  20.302  0.00  0.00    +0.000 A 
ENDBRANCH  16  17
BRANCH  16  23
ATOM     23  C   UNL     1       2.276   4.949  19.568  0.00  0.00    +0.000 A 
ATOM     24  C   UNL     1       2.144   4.472  20.882  0.00  0.00    +0.000 A 
ATOM     25  C   UNL     1       1.470   3.277  21.150  0.00  0.00    +0.000 A 
ATOM     26  C   UNL     1       0.887   2.553  20.115  0.00  0.00    +0.000 A 
ATOM     27  C   UNL     1       0.912   3.063  18.824  0.00  0.00    +0.000 A 
ATOM     28  C   UNL     1       1.565   4.268  18.561  0.00  0.00    +0.000 A 
ENDBRANCH  16  23
ENDBRANCH   2  16
TORSDOF 7
ENDMDL
MODEL 2
REMARK VINA RESULT:      -8.7      0.495      1.061
REMARK  Name = 
REMARK  9 active torsions:
REMARK  status: ('A' for Active; 'I' for Inactive)
REMARK    1  A    between atoms: C_1  and  C_2
REMARK    2  A    between atoms: C_2  and  O_3
REMARK    3  A    between atoms: O_3  and  C_4
REMARK    4  A    between atoms: C_4  and  C_6
REMARK    5  A    between atoms: C_8  and  C_9
REMARK    6  A    between atoms: C_11  and  N_12
REMARK    7  A    between atoms: C_13  and  C_15
REMARK    8  A    between atoms: C_15  and  C_16
REMARK    9  A    between atoms: C_15  and  C_22
REMARK                            x       y       z     vdW  Elec       q    Type
REMARK                         _______ _______ _______ _____ _____    ______ ____
ROOT
ATOM      1  N   UNL     1       4.564   4.865  18.184  0.00  0.00    +0.000 N 
ATOM      2  C   UNL     1       3.989   6.121  18.339  0.00  0.00    +0.000 C 
ATOM      3  O   UNL     1       4.159   7.059  17.553  0.00  0.00    +0.000 OA
ATOM      4  H   UNL     1       4.065   4.071  18.562  0.00  0.00    +0.000 HD
ENDROOT
BRANCH   1  10
ATOM      5  C   UNL     1       6.833   4.808  17.037  0.00  0.00    +0.000 A 
ATOM      6  C   UNL     1       7.229   4.563  15.672  0.00  0.00    +0.000 A 
ATOM      7  C   UNL     1       6.189   4.131  14.876  0.00  0.00    +0.000 A 
ATOM      8  C   UNL     1       6.199   3.820  13.417  0.00  0.00    +0.000 C 
ATOM      9  S   UNL     1       4.751   3.946  15.783  0.00  0.00    +0.000 S 
ATOM     10  C   UNL     1       5.470   4.617  17.171  0.00  0.00    +0.000 A 
BRANCH   5  11
ATOM     11  C   UNL     1       7.732   5.180  18.126  0.00  0.00    +0.000 C 
ATOM     12  O   UNL     1       8.569   4.422  18.600  0.00  0.00    +0.000 OA
BRANCH  11  13
ATOM     13  O   UNL     1       7.544   6.473  18.536  0.00  0.00    +0.000 OA
BRANCH  13  15
ATOM     14  C   UNL     1       8.217   8.760  18.046  0.00  0.00    +0.000 C 
ATOM     15  C   UNL     1       7.644   7.464  17.505  0.00  0.00    +0.000 C 
ENDBRANCH  13  15
ENDBRANCH  11  13
ENDBRANCH   5  11
ENDBRANCH   1  10
BRANCH   2  16
ATOM     16  C   UNL     1       3.024   6.267  19.543  0.00  0.00    +0.000 C 
BRANCH  16  17
ATOM     17  C   UNL     1       2.145   7.518  19.381  0.00  0.00    +0.000 A 
ATOM     18  C   UNL     1       1.539   8.163  20.475  0.00  0.00    +0.000 A 
ATOM     19  C   UNL     1       0.863   9.379  20.304  0.00  0.00    +0.000 A 
ATOM     20  C   UNL     1       0.725   9.929  19.033  0.00  0.00    +0.000 A 
ATOM     21  C   UNL     1       1.246   9.261  17.929  0.00  0.00    +0.000 A 
ATOM     22  C   UNL     1       1.952   8.063  18.100  0.00  0.00    +0.000 A 
ENDBRANCH  16  17
BRANCH  16  23
ATOM     23  C   UNL     1       2.286   4.972  19.932  0.00  0.00    +0.000 A 
ATOM     24  C   UNL     1       2.377   4.458  21.236  0.00  0.00    +0.000 A 
ATOM     25  C   UNL     1       1.786   3.236  21.571  0.00  0.00    +0.000 A 
ATOM     26  C   UNL     1       1.066   2.521  20.620  0.00  0.00    +0.000 A 
ATOM     27  C   UNL     1       0.871   3.064  19.357  0.00  0.00    +0.000 A 
ATOM     28  C   UNL     1       1.442   4.296  19.030  0.00  0.00    +0.000 A 
ENDBRANCH  16  23
ENDBRANCH   2  16
TORSDOF 7
ENDMDL
MODEL 3
REMARK VINA RESULT:      -8.6      0.862      1.415
REMARK  Name = 
REMARK  9 active torsions:
REMARK  status: ('A' for Active; 'I' for Inactive)
REMARK    1  A    between atoms: C_1  and  C_2
REMARK    2  A    between atoms: C_2  and  O_3
REMARK    3  A    between atoms: O_3  and  C_4
REMARK    4  A    between atoms: C_4  and  C_6
REMARK    5  A    between atoms: C_8  and  C_9
REMARK    6  A    between atoms: C_11  and  N_12
REMARK    7  A    between atoms: C_13  and  C_15
REMARK    8  A    between atoms: C_15  and  C_16
REMARK    9  A    between atoms: C_15  and  C_22
REMARK                            x       y       z     vdW  Elec       q    Type
REMARK                         _______ _______ _______ _____ _____    ______ ____
ROOT
ATOM      1  N   UNL     1       4.761   5.242  18.106  0.00  0.00    +0.000 N 
ATOM      2  C   UNL     1       3.914   6.341  18.190  0.00  0.00    +0.000 C 
ATOM      3  O   UNL     1       3.809   7.199  17.308  0.00  0.00    +0.000 OA
ATOM      4  H   UNL     1       4.489   4.401  18.597  0.00  0.00    +0.000 HD
ENDROOT
BRANCH   1  10
ATOM      5  C   UNL     1       6.846   5.687  16.718  0.00  0.00    +0.000 A 
ATOM      6  C   UNL     1       7.223   5.310  15.378  0.00  0.00    +0.000 A 
ATOM      7  C   UNL     1       6.347   4.414  14.801  0.00  0.00    +0.000 A 
ATOM      8  C   UNL     1       6.379   3.833  13.427  0.00  0.00    +0.000 C 
ATOM      9  S   UNL     1       5.111   3.965  15.895  0.00  0.00    +0.000 S 
ATOM     10  C   UNL     1       5.638   5.099  17.048  0.00  0.00    +0.000 A 
BRANCH   5  11
ATOM     11  C   UNL     1       7.625   6.542  17.609  0.00  0.00    +0.000 C 
ATOM     12  O   UNL     1       7.943   6.219  18.747  0.00  0.00    +0.000 OA
BRANCH  11  13
ATOM     13  O   UNL     1       7.974   7.727  17.019  0.00  0.00    +0.000 OA
BRANCH  13  15
ATOM     14  C   UNL     1       8.727   9.624  18.344  0.00  0.00    +0.000 C 
ATOM     15  C   UNL     1       7.550   8.907  17.714  0.00  0.00    +0.000 C 
ENDBRANCH  13  15
ENDBRANCH  11  13
ENDBRANCH   5  11
ENDBRANCH   1  10
BRANCH   2  16
ATOM     16  C   UNL     1       3.015   6.392  19.452  0.00  0.00    +0.000 C 
BRANCH  16  17
ATOM     17  C   UNL     1       2.139   7.656  19.438  0.00  0.00    +0.000 A 
ATOM     18  C   UNL     1       1.895   8.393  18.264  0.00  0.00    +0.000 A 
ATOM     19  C   UNL     1       0.981   9.456  18.264  0.00  0.00    +0.000 A 
ATOM     20  C   UNL     1       0.354   9.839  19.446  0.00  0.00    +0.000 A 
ATOM     21  C   UNL     1       0.649   9.174  20.633  0.00  0.00    +0.000 A 
ATOM     22  C   UNL     1       1.536   8.090  20.630  0.00  0.00    +0.000 A 
ENDBRANCH  16  17
BRANCH  16  23
ATOM     23  C   UNL     1       2.289   5.073  19.775  0.00  0.00    +0.000 A 
ATOM     24  C   UNL     1       1.629   4.352  18.767  0.00  0.00    +0.000 A 
ATOM     25  C   UNL     1       0.891   3.204  19.068  0.00  0.00    +0.000 A 
ATOM     26  C   UNL     1       0.825   2.736  20.376  0.00  0.00    +0.000 A 
ATOM     27  C   UNL     1       1.560   3.371  21.369  0.00  0.00    +0.000 A 
ATOM     28  C   UNL     1       2.316   4.504  21.062  0.00  0.00    +0.000 A 
ENDBRANCH  16  23
ENDBRANCH   2  16
TORSDOF 7
ENDMDL
MODEL 4
REMARK VINA RESULT:      -8.2      0.891      3.823
REMARK  Name = 
REMARK  9 active torsions:
REMARK  status: ('A' for Active; 'I' for Inactive)
REMARK    1  A    between atoms: C_1  and  C_2
REMARK    2  A    between atoms: C_2  and  O_3
REMARK    3  A    between atoms: O_3  and  C_4
REMARK    4  A    between atoms: C_4  and  C_6
REMARK    5  A    between atoms: C_8  and  C_9
REMARK    6  A    between atoms: C_11  and  N_12
REMARK    7  A    between atoms: C_13  and  C_15
REMARK    8  A    between atoms: C_15  and  C_16
REMARK    9  A    between atoms: C_15  and  C_22
REMARK                            x       y       z     vdW  Elec       q    Type
REMARK                         _______ _______ _______ _____ _____    ______ ____
ROOT
ATOM      1  N   UNL     1       3.983   4.915  16.833  0.00  0.00    +0.000 N 
ATOM      2  C   UNL     1       3.687   6.075  17.539  0.00  0.00    +0.000 C 
ATOM      3  O   UNL     1       4.451   7.042  17.625  0.00  0.00    +0.000 OA
ATOM      4  H   UNL     1       3.210   4.395  16.439  0.00  0.00    +0.000 HD
ENDROOT
BRANCH   1  10
ATOM      5  C   UNL     1       6.512   4.649  16.764  0.00  0.00    +0.000 A 
ATOM      6  C   UNL     1       7.463   4.657  15.679  0.00  0.00    +0.000 A 
ATOM      7  C   UNL     1       6.866   4.659  14.436  0.00  0.00    +0.000 A 
ATOM      8  C   UNL     1       7.512   4.709  13.092  0.00  0.00    +0.000 C 
ATOM      9  S   UNL     1       5.162   4.575  14.567  0.00  0.00    +0.000 S 
ATOM     10  C   UNL     1       5.226   4.727  16.260  0.00  0.00    +0.000 A 
BRANCH   5  11
ATOM     11  C   UNL     1       6.844   4.551  18.182  0.00  0.00    +0.000 C 
ATOM     12  O   UNL     1       6.135   3.985  19.005  0.00  0.00    +0.000 OA
BRANCH  11  13
ATOM     13  O   UNL     1       8.043   5.142  18.477  0.00  0.00    +0.000 OA
BRANCH  13  15
ATOM     14  C   UNL     1       7.900   7.518  17.973  0.00  0.00    +0.000 C 
ATOM     15  C   UNL     1       7.957   6.453  19.050  0.00  0.00    +0.000 C 
ENDBRANCH  13  15
ENDBRANCH  11  13
ENDBRANCH   5  11
ENDBRANCH   1  10
BRANCH   2  16
ATOM     16  C   UNL     1       2.270   6.131  18.163  0.00  0.00    +0.000 C 
BRANCH  16  17
ATOM     17  C   UNL     1       2.067   4.964  19.144  0.00  0.00    +0.000 A 
ATOM     18  C   UNL     1       2.722   4.900  20.388  0.00  0.00    +0.000 A 
ATOM     19  C   UNL     1       2.406   3.895  21.312  0.00  0.00    +0.000 A 
ATOM     20  C   UNL     1       1.486   2.904  20.980  0.00  0.00    +0.000 A 
ATOM     21  C   UNL     1       0.892   2.905  19.721  0.00  0.00    +0.000 A 
ATOM     22  C   UNL     1       1.180   3.928  18.808  0.00  0.00    +0.000 A 
ENDBRANCH  16  17
BRANCH  16  23
ATOM     23  C   UNL     1       1.850   7.521  18.674  0.00  0.00    +0.000 A 
ATOM     24  C   UNL     1       1.709   8.600  17.786  0.00  0.00    +0.000 A 
ATOM     25  C   UNL     1       1.418   9.885  18.254  0.00  0.00    +0.000 A 
ATOM     26  C   UNL     1       1.230  10.110  19.614  0.00  0.00    +0.000 A 
ATOM     27  C   UNL     1       1.256   9.038  20.496  0.00  0.00    +0.000 A 
ATOM     28  C   UNL     1       1.523   7.751  20.025  0.00  0.00    +0.000 A 
ENDBRANCH  16  23
ENDBRANCH   2  16
TORSDOF 7
ENDMDL
MODEL 5
REMARK VINA RESULT:      -8.1      0.944      3.721
REMARK  Name = 
REMARK  9 active torsions:
REMARK  status: ('A' for Active; 'I' for Inactive)
REMARK    1  A    between atoms: C_1  and  C_2
REMARK    2  A    between atoms: C_2  and  O_3
REMARK    3  A    between atoms: O_3  and  C_4
REMARK    4  A    between atoms: C_4  and  C_6
REMARK    5  A    between atoms: C_8  and  C_9
REMARK    6  A    between atoms: C_11  and  N_12
REMARK    7  A    between atoms: C_13  and  C_15
REMARK    8  A    between atoms: C_15  and  C_16
REMARK    9  A    between atoms: C_15  and  C_22
REMARK                            x       y       z     vdW  Elec       q    Type
REMARK                         _______ _______ _______ _____ _____    ______ ____
ROOT
ATOM      1  N   UNL     1       4.123   5.060  17.021  0.00  0.00    +0.000 N 
ATOM      2  C   UNL     1       3.676   6.268  17.543  0.00  0.00    +0.000 C 
ATOM      3  O   UNL     1       4.287   7.336  17.428  0.00  0.00    +0.000 OA
ATOM      4  H   UNL     1       3.426   4.375  16.760  0.00  0.00    +0.000 HD
ENDROOT
BRANCH   1  10
ATOM      5  C   UNL     1       6.659   5.168  16.856  0.00  0.00    +0.000 A 
ATOM      6  C   UNL     1       7.565   5.118  15.734  0.00  0.00    +0.000 A 
ATOM      7  C   UNL     1       6.939   4.801  14.546  0.00  0.00    +0.000 A 
ATOM      8  C   UNL     1       7.530   4.699  13.180  0.00  0.00    +0.000 C 
ATOM      9  S   UNL     1       5.275   4.489  14.787  0.00  0.00    +0.000 S 
ATOM     10  C   UNL     1       5.363   4.958  16.420  0.00  0.00    +0.000 A 
BRANCH   5  11
ATOM     11  C   UNL     1       7.043   5.384  18.247  0.00  0.00    +0.000 C 
ATOM     12  O   UNL     1       6.652   4.684  19.173  0.00  0.00    +0.000 OA
BRANCH  11  13
ATOM     13  O   UNL     1       7.904   6.438  18.391  0.00  0.00    +0.000 OA
BRANCH  13  15
ATOM     14  C   UNL     1       8.328   8.821  18.132  0.00  0.00    +0.000 C 
ATOM     15  C   UNL     1       7.580   7.604  17.623  0.00  0.00    +0.000 C 
ENDBRANCH  13  15
ENDBRANCH  11  13
ENDBRANCH   5  11
ENDBRANCH   1  10
BRANCH   2  16
ATOM     16  C   UNL     1       2.285   6.225  18.225  0.00  0.00    +0.000 C 
BRANCH  16  17
ATOM     17  C   UNL     1       2.150   4.962  19.092  0.00  0.00    +0.000 A 
ATOM     18  C   UNL     1       2.831   4.807  20.313  0.00  0.00    +0.000 A 
ATOM     19  C   UNL     1       2.574   3.706  21.141  0.00  0.00    +0.000 A 
ATOM     20  C   UNL     1       1.689   2.713  20.730  0.00  0.00    +0.000 A 
ATOM     21  C   UNL     1       1.072   2.809  19.486  0.00  0.00    +0.000 A 
ATOM     22  C   UNL     1       1.300   3.926  18.671  0.00  0.00    +0.000 A 
ENDBRANCH  16  17
BRANCH  16  23
ATOM     23  C   UNL     1       1.856   7.547  18.888  0.00  0.00    +0.000 A 
ATOM     24  C   UNL     1       1.736   7.643  20.284  0.00  0.00    +0.000 A 
ATOM     25  C   UNL     1       1.260   8.811  20.887  0.00  0.00    +0.000 A 
ATOM     26  C   UNL     1       0.925   9.915  20.110  0.00  0.00    +0.000 A 
ATOM     27  C   UNL     1       1.140   9.878  18.738  0.00  0.00    +0.000 A 
ATOM     28  C   UNL     1       1.638   8.719  18.140  0.00  0.00    +0.000 A 
ENDBRANCH  16  23
ENDBRANCH   2  16
TORSDOF 7
ENDMDL
MODEL 6
REMARK VINA RESULT:      -8.0      0.907      3.690
REMARK  Name = 
REMARK  9 active torsions:
REMARK  status: ('A' for Active; 'I' for Inactive)
REMARK    1  A    between atoms: C_1  and  C_2
REMARK    2  A    between atoms: C_2  and  O_3
REMARK    3  A    between atoms: O_3  and  C_4
REMARK    4  A    between atoms: C_4  and  C_6
REMARK    5  A    between atoms: C_8  and  C_9
REMARK    6  A    between atoms: C_11  and  N_12
REMARK    7  A    between atoms: C_13  and  C_15
REMARK    8  A    between atoms: C_15  and  C_16
REMARK    9  A    between atoms: C_15  and  C_22
REMARK                            x       y       z     vdW  Elec       q    Type
REMARK                         _______ _______ _______ _____ _____    ______ ____
ROOT
ATOM      1  N   UNL     1       4.051   4.807  16.807  0.00  0.00    +0.000 N 
ATOM      2  C   UNL     1       3.739   5.990  17.466  0.00  0.00    +0.000 C 
ATOM      3  O   UNL     1       4.443   7.005  17.429  0.00  0.00    +0.000 OA
ATOM      4  H   UNL     1       3.283   4.218  16.512  0.00  0.00    +0.000 HD
ENDROOT
BRANCH   1  10
ATOM      5  C   UNL     1       6.578   4.715  16.531  0.00  0.00    +0.000 A 
ATOM      6  C   UNL     1       7.431   4.695  15.368  0.00  0.00    +0.000 A 
ATOM      7  C   UNL     1       6.733   4.546  14.188  0.00  0.00    +0.000 A 
ATOM      8  C   UNL     1       7.258   4.524  12.791  0.00  0.00    +0.000 C 
ATOM      9  S   UNL     1       5.058   4.354  14.478  0.00  0.00    +0.000 S 
ATOM     10  C   UNL     1       5.252   4.658  16.141  0.00  0.00    +0.000 A 
BRANCH   5  11
ATOM     11  C   UNL     1       7.035   4.765  17.917  0.00  0.00    +0.000 C 
ATOM     12  O   UNL     1       6.501   4.142  18.827  0.00  0.00    +0.000 OA
BRANCH  11  13
ATOM     13  O   UNL     1       8.134   5.565  18.073  0.00  0.00    +0.000 OA
BRANCH  13  15
ATOM     14  C   UNL     1       7.875   7.942  17.618  0.00  0.00    +0.000 C 
ATOM     15  C   UNL     1       7.881   6.846  18.665  0.00  0.00    +0.000 C 
ENDBRANCH  13  15
ENDBRANCH  11  13
ENDBRANCH   5  11
ENDBRANCH   1  10
BRANCH   2  16
ATOM     16  C   UNL     1       2.377   6.000  18.206  0.00  0.00    +0.000 C 
BRANCH  16  17
ATOM     17  C   UNL     1       2.293   4.827  19.196  0.00  0.00    +0.000 A 
ATOM     18  C   UNL     1       1.107   4.098  19.405  0.00  0.00    +0.000 A 
ATOM     19  C   UNL     1       1.105   2.949  20.208  0.00  0.00    +0.000 A 
ATOM     20  C   UNL     1       2.267   2.555  20.865  0.00  0.00    +0.000 A 
ATOM     21  C   UNL     1       3.427   3.313  20.737  0.00  0.00    +0.000 A 
ATOM     22  C   UNL     1       3.441   4.442  19.908  0.00  0.00    +0.000 A 
ENDBRANCH  16  17
BRANCH  16  23
ATOM     23  C   UNL     1       1.957   7.377  18.755  0.00  0.00    +0.000 A 
ATOM     24  C   UNL     1       1.828   7.588  20.138  0.00  0.00    +0.000 A 
ATOM     25  C   UNL     1       1.359   8.806  20.639  0.00  0.00    +0.000 A 
ATOM     26  C   UNL     1       1.043   9.846  19.771  0.00  0.00    +0.000 A 
ATOM     27  C   UNL     1       1.268   9.695  18.409  0.00  0.00    +0.000 A 
ATOM     28  C   UNL     1       1.759   8.486  17.912  0.00  0.00    +0.000 A 
ENDBRANCH  16  23
ENDBRANCH   2  16
TORSDOF 7
ENDMDL
MODEL 7
REMARK VINA RESULT:      -7.9      0.901      1.187
REMARK  Name = 
REMARK  9 active torsions:
REMARK  status: ('A' for Active; 'I' for Inactive)
REMARK    1  A    between atoms: C_1  and  C_2
REMARK    2  A    between atoms: C_2  and  O_3
REMARK    3  A    between atoms: O_3  and  C_4
REMARK    4  A    between atoms: C_4  and  C_6
REMARK    5  A    between atoms: C_8  and  C_9
REMARK    6  A    between atoms: C_11  and  N_12
REMARK    7  A    between atoms: C_13  and  C_15
REMARK    8  A    between atoms: C_15  and  C_16
REMARK    9  A    between atoms: C_15  and  C_22
REMARK                            x       y       z     vdW  Elec       q    Type
REMARK                         _______ _______ _______ _____ _____    ______ ____
ROOT
ATOM      1  N   UNL     1       4.511   4.979  17.403  0.00  0.00    +0.000 N 
ATOM      2  C   UNL     1       3.961   6.221  17.696  0.00  0.00    +0.000 C 
ATOM      3  O   UNL     1       4.099   7.221  16.984  0.00  0.00    +0.000 OA
ATOM      4  H   UNL     1       4.024   4.159  17.739  0.00  0.00    +0.000 HD
ENDROOT
BRANCH   1  10
ATOM      5  C   UNL     1       6.568   5.372  15.959  0.00  0.00    +0.000 A 
ATOM      6  C   UNL     1       6.902   4.980  14.611  0.00  0.00    +0.000 A 
ATOM      7  C   UNL     1       5.992   4.101  14.062  0.00  0.00    +0.000 A 
ATOM      8  C   UNL     1       5.975   3.513  12.691  0.00  0.00    +0.000 C 
ATOM      9  S   UNL     1       4.776   3.683  15.191  0.00  0.00    +0.000 S 
ATOM     10  C   UNL     1       5.357   4.811  16.324  0.00  0.00    +0.000 A 
BRANCH   5  11
ATOM     11  C   UNL     1       7.389   6.214  16.825  0.00  0.00    +0.000 C 
ATOM     12  O   UNL     1       7.439   7.434  16.729  0.00  0.00    +0.000 OA
BRANCH  11  13
ATOM     13  O   UNL     1       8.072   5.486  17.761  0.00  0.00    +0.000 OA
BRANCH  13  15
ATOM     14  C   UNL     1       6.758   5.325  19.803  0.00  0.00    +0.000 C 
ATOM     15  C   UNL     1       7.951   5.954  19.111  0.00  0.00    +0.000 C 
ENDBRANCH  13  15
ENDBRANCH  11  13
ENDBRANCH   5  11
ENDBRANCH   1  10
BRANCH   2  16
ATOM     16  C   UNL     1       3.065   6.270  18.960  0.00  0.00    +0.000 C 
BRANCH  16  17
ATOM     17  C   UNL     1       2.267   7.584  19.004  0.00  0.00    +0.000 A 
ATOM     18  C   UNL     1       1.970   8.327  17.846  0.00  0.00    +0.000 A 
ATOM     19  C   UNL     1       1.123   9.441  17.909  0.00  0.00    +0.000 A 
ATOM     20  C   UNL     1       0.620   9.869  19.134  0.00  0.00    +0.000 A 
ATOM     21  C   UNL     1       0.973   9.195  20.300  0.00  0.00    +0.000 A 
ATOM     22  C   UNL     1       1.791   8.060  20.237  0.00  0.00    +0.000 A 
ENDBRANCH  16  17
BRANCH  16  23
ATOM     23  C   UNL     1       2.260   4.984  19.225  0.00  0.00    +0.000 A 
ATOM     24  C   UNL     1       2.074   4.511  20.534  0.00  0.00    +0.000 A 
ATOM     25  C   UNL     1       1.424   3.297  20.775  0.00  0.00    +0.000 A 
ATOM     26  C   UNL     1       0.920   2.549  19.716  0.00  0.00    +0.000 A 
ATOM     27  C   UNL     1       0.997   3.052  18.423  0.00  0.00    +0.000 A 
ATOM     28  C   UNL     1       1.625   4.276  18.187  0.00  0.00    +0.000 A 
ENDBRANCH  16  23
ENDBRANCH   2  16
TORSDOF 7
ENDMDL
MODEL 8
REMARK VINA RESULT:      -7.8      0.893      1.543
REMARK  Name = 
REMARK  9 active torsions:
REMARK  status: ('A' for Active; 'I' for Inactive)
REMARK    1  A    between atoms: C_1  and  C_2
REMARK    2  A    between atoms: C_2  and  O_3
REMARK    3  A    between atoms: O_3  and  C_4
REMARK    4  A    between atoms: C_4  and  C_6
REMARK    5  A    between atoms: C_8  and  C_9
REMARK    6  A    between atoms: C_11  and  N_12
REMARK    7  A    between atoms: C_13  and  C_15
REMARK    8  A    between atoms: C_15  and  C_16
REMARK    9  A    between atoms: C_15  and  C_22
REMARK                            x       y       z     vdW  Elec       q    Type
REMARK                         _______ _______ _______ _____ _____    ______ ____
ROOT
ATOM      1  N   UNL     1       4.570   5.159  17.776  0.00  0.00    +0.000 N 
ATOM      2  C   UNL     1       3.876   6.347  17.972  0.00  0.00    +0.000 C 
ATOM      3  O   UNL     1       3.912   7.303  17.192  0.00  0.00    +0.000 OA
ATOM      4  H   UNL     1       4.174   4.314  18.164  0.00  0.00    +0.000 HD
ENDROOT
BRANCH   1  10
ATOM      5  C   UNL     1       6.614   5.665  16.349  0.00  0.00    +0.000 A 
ATOM      6  C   UNL     1       7.011   5.238  15.029  0.00  0.00    +0.000 A 
ATOM      7  C   UNL     1       6.196   4.253  14.511  0.00  0.00    +0.000 A 
ATOM      8  C   UNL     1       6.262   3.598  13.172  0.00  0.00    +0.000 C 
ATOM      9  S   UNL     1       4.999   3.784  15.639  0.00  0.00    +0.000 S 
ATOM     10  C   UNL     1       5.451   5.016  16.721  0.00  0.00    +0.000 A 
BRANCH   5  11
ATOM     11  C   UNL     1       7.336   6.621  17.183  0.00  0.00    +0.000 C 
ATOM     12  O   UNL     1       7.940   7.588  16.735  0.00  0.00    +0.000 OA
BRANCH  11  13
ATOM     13  O   UNL     1       7.241   6.323  18.516  0.00  0.00    +0.000 OA
BRANCH  13  15
ATOM     14  C   UNL     1       8.357   5.379  20.462  0.00  0.00    +0.000 C 
ATOM     15  C   UNL     1       8.098   5.268  18.972  0.00  0.00    +0.000 C 
ENDBRANCH  13  15
ENDBRANCH  11  13
ENDBRANCH   5  11
ENDBRANCH   1  10
BRANCH   2  16
ATOM     16  C   UNL     1       2.955   6.380  19.219  0.00  0.00    +0.000 C 
BRANCH  16  17
ATOM     17  C   UNL     1       2.097   7.656  19.220  0.00  0.00    +0.000 A 
ATOM     18  C   UNL     1       1.592   8.227  20.404  0.00  0.00    +0.000 A 
ATOM     19  C   UNL     1       0.934   9.464  20.378  0.00  0.00    +0.000 A 
ATOM     20  C   UNL     1       0.711  10.111  19.166  0.00  0.00    +0.000 A 
ATOM     21  C   UNL     1       1.128   9.519  17.978  0.00  0.00    +0.000 A 
ATOM     22  C   UNL     1       1.817   8.300  18.003  0.00  0.00    +0.000 A 
ENDBRANCH  16  17
BRANCH  16  23
ATOM     23  C   UNL     1       2.205   5.064  19.497  0.00  0.00    +0.000 A 
ATOM     24  C   UNL     1       2.018   4.609  20.812  0.00  0.00    +0.000 A 
ATOM     25  C   UNL     1       1.420   3.371  21.068  0.00  0.00    +0.000 A 
ATOM     26  C   UNL     1       0.969   2.580  20.016  0.00  0.00    +0.000 A 
ATOM     27  C   UNL     1       1.046   3.060  18.715  0.00  0.00    +0.000 A 
ATOM     28  C   UNL     1       1.621   4.307  18.463  0.00  0.00    +0.000 A 
ENDBRANCH  16  23
ENDBRANCH   2  16
TORSDOF 7
ENDMDL
MODEL 9
REMARK VINA RESULT:      -7.7      2.718      6.789
REMARK  Name = 
REMARK  9 active torsions:
REMARK  status: ('A' for Active; 'I' for Inactive)
REMARK    1  A    between atoms: C_1  and  C_2
REMARK    2  A    between atoms: C_2  and  O_3
REMARK    3  A    between atoms: O_3  and  C_4
REMARK    4  A    between atoms: C_4  and  C_6
REMARK    5  A    between atoms: C_8  and  C_9
REMARK    6  A    between atoms: C_11  and  N_12
REMARK    7  A    between atoms: C_13  and  C_15
REMARK    8  A    between atoms: C_15  and  C_16
REMARK    9  A    between atoms: C_15  and  C_22
REMARK                            x       y       z     vdW  Elec       q    Type
REMARK                         _______ _______ _______ _____ _____    ______ ____
ROOT
ATOM      1  N   UNL     1       1.829   7.622  18.671  0.00  0.00    +0.000 N 
ATOM      2  C   UNL     1       3.047   7.257  18.111  0.00  0.00    +0.000 C 
ATOM      3  O   UNL     1       4.020   8.014  18.026  0.00  0.00    +0.000 OA
ATOM      4  H   UNL     1       1.274   6.894  19.102  0.00  0.00    +0.000 HD
ENDROOT
BRANCH   1  10
ATOM      5  C   UNL     1       1.191   9.490  20.275  0.00  0.00    +0.000 A 
ATOM      6  C   UNL     1       0.898  10.888  20.075  0.00  0.00    +0.000 A 
ATOM      7  C   UNL     1       1.162  11.318  18.792  0.00  0.00    +0.000 A 
ATOM      8  C   UNL     1       0.949  12.671  18.200  0.00  0.00    +0.000 C 
ATOM      9  S   UNL     1       1.835  10.063  17.844  0.00  0.00    +0.000 S 
ATOM     10  C   UNL     1       1.593   8.920  19.081  0.00  0.00    +0.000 A 
BRANCH   5  11
ATOM     11  C   UNL     1       1.101   8.779  21.547  0.00  0.00    +0.000 C 
ATOM     12  O   UNL     1       1.125   7.557  21.641  0.00  0.00    +0.000 OA
BRANCH  11  13
ATOM     13  O   UNL     1       1.010   9.631  22.614  0.00  0.00    +0.000 OA
BRANCH  13  15
ATOM     14  C   UNL     1      -1.102  10.733  23.116  0.00  0.00    +0.000 C 
ATOM     15  C   UNL     1      -0.203   9.538  23.372  0.00  0.00    +0.000 C 
ENDBRANCH  13  15
ENDBRANCH  11  13
ENDBRANCH   5  11
ENDBRANCH   1  10
BRANCH   2  16
ATOM     16  C   UNL     1       3.156   5.779  17.659  0.00  0.00    +0.000 C 
BRANCH  16  17
ATOM     17  C   UNL     1       4.611   5.430  17.304  0.00  0.00    +0.000 A 
ATOM     18  C   UNL     1       5.572   5.113  18.282  0.00  0.00    +0.000 A 
ATOM     19  C   UNL     1       6.848   4.664  17.913  0.00  0.00    +0.000 A 
ATOM     20  C   UNL     1       7.201   4.593  16.569  0.00  0.00    +0.000 A 
ATOM     21  C   UNL     1       6.291   4.983  15.592  0.00  0.00    +0.000 A 
ATOM     22  C   UNL     1       5.003   5.399  15.956  0.00  0.00    +0.000 A 
ENDBRANCH  16  17
BRANCH  16  23
ATOM     23  C   UNL     1       2.425   4.775  18.570  0.00  0.00    +0.000 A 
ATOM     24  C   UNL     1       1.668   3.728  18.021  0.00  0.00    +0.000 A 
ATOM     25  C   UNL     1       0.928   2.869  18.839  0.00  0.00    +0.000 A 
ATOM     26  C   UNL     1       0.956   3.020  20.222  0.00  0.00    +0.000 A 
ATOM     27  C   UNL     1       1.785   3.980  20.790  0.00  0.00    +0.000 A 
ATOM     28  C   UNL     1       2.542   4.821  19.972  0.00  0.00    +0.000 A 
ENDBRANCH  16  23
ENDBRANCH   2  16
TORSDOF 7
ENDMDL
