MODEL 1
REMARK VINA RESULT:      -8.1      0.000      0.000
REMARK  Name = 
REMARK  7 active torsions:
REMARK  status: ('A' for Active; 'I' for Inactive)
REMARK    1  A    between atoms: C_1  and  C_2
REMARK    2  A    between atoms: N_4  and  C_5
REMARK    3  A    between atoms: C_5  and  C_6
REMARK    4  A    between atoms: C_6  and  C_7
REMARK    5  A    between atoms: C_7  and  C_8
REMARK    6  A    between atoms: N_10  and  C_11
REMARK    7  A    between atoms: C_11  and  C_12
REMARK                            x       y       z     vdW  Elec       q    Type
REMARK                         _______ _______ _______ _____ _____    ______ ____
ROOT
ATOM      1  C   UNL     1       1.757   2.981  17.960  0.00  0.00    +0.000 C 
ENDROOT
BRANCH   1   2
ATOM      2  C   UNL     1       3.151   2.358  17.991  0.00  0.00    +0.000 C 
BRANCH   2   6
ATOM      3  C   UNL     1       5.465   5.614  15.196  0.00  0.00    +0.000 C 
ATOM      4  C   UNL     1       5.270   4.889  16.487  0.00  0.00    +0.000 A 
ATOM      5  N   UNL     1       4.337   3.998  16.642  0.00  0.00    +0.000 NA
ATOM      6  N   UNL     1       4.213   3.357  17.876  0.00  0.00    +0.000 N 
ATOM      7  C   UNL     1       5.041   3.616  18.991  0.00  0.00    +0.000 A 
ATOM      8  O   UNL     1       4.901   3.026  20.061  0.00  0.00    +0.000 OA
ATOM      9  C   UNL     1       6.050   4.617  18.735  0.00  0.00    +0.000 A 
ATOM     10  N   UNL     1       6.966   5.071  19.570  0.00  0.00    +0.000 NA
ATOM     11  C   UNL     1       7.671   6.005  18.857  0.00  0.00    +0.000 A 
ATOM     12  C   UNL     1       7.182   6.117  17.577  0.00  0.00    +0.000 A 
ATOM     13  N   UNL     1       6.132   5.220  17.508  0.00  0.00    +0.000 N 
ENDBRANCH   2   6
ENDBRANCH   1   2
BRANCH   1  14
ATOM     14  C   UNL     1       1.135   3.147  19.345  0.00  0.00    +0.000 C 
BRANCH  14  15
ATOM     15  C   UNL     1       1.802   4.291  20.099  0.00  0.00    +0.000 C 
ATOM     16  O   UNL     1       2.105   4.240  21.287  0.00  0.00    +0.000 OA
ATOM     17  N   UNL     1       2.034   5.385  19.300  0.00  0.00    +0.000 N 
ATOM     18  H   UNL     1       1.761   5.345  18.331  0.00  0.00    +0.000 HD
BRANCH  17  19
ATOM     19  C   UNL     1       2.680   6.583  19.790  0.00  0.00    +0.000 C 
BRANCH  19  20
ATOM     20  C   UNL     1       1.750   7.755  20.024  0.00  0.00    +0.000 A 
ATOM     21  C   UNL     1       1.123   7.815  21.284  0.00  0.00    +0.000 A 
ATOM     22  C   UNL     1       0.261   8.857  21.628  0.00  0.00    +0.000 A 
ATOM     23  C   UNL     1       0.011   9.880  20.720  0.00  0.00    +0.000 A 
ATOM     24  C   UNL     1       0.615   9.843  19.466  0.00  0.00    +0.000 A 
ATOM     25  C   UNL     1       1.482   8.795  19.114  0.00  0.00    +0.000 A 
ATOM     26 CL   UNL     1       2.162   8.891  17.529  0.00  0.00    +0.000 Cl
ENDBRANCH  19  20
ENDBRANCH  17  19
ENDBRANCH  14  15
ENDBRANCH   1  14
TORSDOF 6
ENDMDL
MODEL 2
REMARK VINA RESULT:      -7.8      1.295      1.763
REMARK  Name = 
REMARK  7 active torsions:
REMARK  status: ('A' for Active; 'I' for Inactive)
REMARK    1  A    between atoms: C_1  and  C_2
REMARK    2  A    between atoms: N_4  and  C_5
REMARK    3  A    between atoms: C_5  and  C_6
REMARK    4  A    between atoms: C_6  and  C_7
REMARK    5  A    between atoms: C_7  and  C_8
REMARK    6  A    between atoms: N_10  and  C_11
REMARK    7  A    between atoms: C_11  and  C_12
REMARK                            x       y       z     vdW  Elec       q    Type
REMARK                         _______ _______ _______ _____ _____    ______ ____
ROOT
ATOM      1  C   UNL     1       2.162   2.641  18.494  0.00  0.00    +0.000 C 
ENDROOT
BRANCH   1   2
ATOM      2  C   UNL     1       3.434   2.389  17.687  0.00  0.00    +0.000 C 
BRANCH   2   6
ATOM      3  C   UNL     1       5.141   6.436  15.569  0.00  0.00    +0.000 C 
ATOM      4  C   UNL     1       5.130   5.433  16.676  0.00  0.00    +0.000 A 
ATOM      5  N   UNL     1       4.319   4.418  16.677  0.00  0.00    +0.000 NA
ATOM      6  N   UNL     1       4.364   3.518  17.743  0.00  0.00    +0.000 N 
ATOM      7  C   UNL     1       5.241   3.635  18.845  0.00  0.00    +0.000 A 
ATOM      8  O   UNL     1       5.252   2.818  19.763  0.00  0.00    +0.000 OA
ATOM      9  C   UNL     1       6.106   4.789  18.766  0.00  0.00    +0.000 A 
ATOM     10  N   UNL     1       7.027   5.167  19.634  0.00  0.00    +0.000 NA
ATOM     11  C   UNL     1       7.564   6.313  19.110  0.00  0.00    +0.000 A 
ATOM     12  C   UNL     1       6.968   6.634  17.913  0.00  0.00    +0.000 A 
ATOM     13  N   UNL     1       6.025   5.646  17.700  0.00  0.00    +0.000 N 
ENDBRANCH   2   6
ENDBRANCH   1   2
BRANCH   1  14
ATOM     14  C   UNL     1       2.268   2.193  19.951  0.00  0.00    +0.000 C 
BRANCH  14  15
ATOM     15  C   UNL     1       2.066   3.374  20.891  0.00  0.00    +0.000 C 
ATOM     16  O   UNL     1       1.892   3.261  22.101  0.00  0.00    +0.000 OA
ATOM     17  N   UNL     1       2.108   4.582  20.237  0.00  0.00    +0.000 N 
ATOM     18  H   UNL     1       2.262   4.591  19.241  0.00  0.00    +0.000 HD
BRANCH  17  19
ATOM     19  C   UNL     1       1.965   5.846  20.928  0.00  0.00    +0.000 C 
BRANCH  19  20
ATOM     20  C   UNL     1       1.935   7.061  20.026  0.00  0.00    +0.000 A 
ATOM     21  C   UNL     1       2.584   6.935  18.782  0.00  0.00    +0.000 A 
ATOM     22  C   UNL     1       2.607   7.978  17.856  0.00  0.00    +0.000 A 
ATOM     23  C   UNL     1       1.967   9.178  18.144  0.00  0.00    +0.000 A 
ATOM     24  C   UNL     1       1.321   9.331  19.367  0.00  0.00    +0.000 A 
ATOM     25  C   UNL     1       1.296   8.286  20.305  0.00  0.00    +0.000 A 
ATOM     26 CL   UNL     1       0.449   8.620  21.772  0.00  0.00    +0.000 Cl
ENDBRANCH  19  20
ENDBRANCH  17  19
ENDBRANCH  14  15
ENDBRANCH   1  14
TORSDOF 6
ENDMDL
MODEL 3
REMARK VINA RESULT:      -7.8      2.164      6.031
REMARK  Name = 
REMARK  7 active torsions:
REMARK  status: ('A' for Active; 'I' for Inactive)
REMARK    1  A    between atoms: C_1  and  C_2
REMARK    2  A    between atoms: N_4  and  C_5
REMARK    3  A    between atoms: C_5  and  C_6
REMARK    4  A    between atoms: C_6  and  C_7
REMARK    5  A    between atoms: C_7  and  C_8
REMARK    6  A    between atoms: N_10  and  C_11
REMARK    7  A    between atoms: C_11  and  C_12
REMARK                            x       y       z     vdW  Elec       q    Type
REMARK                         _______ _______ _______ _____ _____    ______ ____
ROOT
ATOM      1  C   UNL     1       1.097   4.244  20.482  0.00  0.00    +0.000 C 
ENDROOT
BRANCH   1   2
ATOM      2  C   UNL     1       2.249   5.223  20.703  0.00  0.00    +0.000 C 
BRANCH   2   6
ATOM      3  C   UNL     1      -0.091   9.256  22.128  0.00  0.00    +0.000 C 
ATOM      4  C   UNL     1       0.735   8.490  21.148  0.00  0.00    +0.000 A 
ATOM      5  N   UNL     1       1.101   7.263  21.367  0.00  0.00    +0.000 NA
ATOM      6  N   UNL     1       1.872   6.606  20.406  0.00  0.00    +0.000 N 
ATOM      7  C   UNL     1       2.295   7.190  19.192  0.00  0.00    +0.000 A 
ATOM      8  O   UNL     1       2.971   6.575  18.370  0.00  0.00    +0.000 OA
ATOM      9  C   UNL     1       1.846   8.553  19.028  0.00  0.00    +0.000 A 
ATOM     10  N   UNL     1       2.076   9.360  18.008  0.00  0.00    +0.000 NA
ATOM     11  C   UNL     1       1.446  10.533  18.329  0.00  0.00    +0.000 A 
ATOM     12  C   UNL     1       0.826  10.439  19.553  0.00  0.00    +0.000 A 
ATOM     13  N   UNL     1       1.093   9.158  19.998  0.00  0.00    +0.000 N 
ENDBRANCH   2   6
ENDBRANCH   1   2
BRANCH   1  14
ATOM     14  C   UNL     1       1.106   3.600  19.097  0.00  0.00    +0.000 C 
BRANCH  14  15
ATOM     15  C   UNL     1       2.497   3.081  18.755  0.00  0.00    +0.000 C 
ATOM     16  O   UNL     1       3.055   2.173  19.363  0.00  0.00    +0.000 OA
ATOM     17  N   UNL     1       3.057   3.739  17.687  0.00  0.00    +0.000 N 
ATOM     18  H   UNL     1       2.530   4.471  17.236  0.00  0.00    +0.000 HD
BRANCH  17  19
ATOM     19  C   UNL     1       4.364   3.403  17.164  0.00  0.00    +0.000 C 
BRANCH  19  20
ATOM     20  C   UNL     1       5.439   4.433  17.434  0.00  0.00    +0.000 A 
ATOM     21  C   UNL     1       5.793   4.632  18.783  0.00  0.00    +0.000 A 
ATOM     22  C   UNL     1       6.785   5.539  19.158  0.00  0.00    +0.000 A 
ATOM     23  C   UNL     1       7.463   6.267  18.187  0.00  0.00    +0.000 A 
ATOM     24  C   UNL     1       7.132   6.094  16.846  0.00  0.00    +0.000 A 
ATOM     25  C   UNL     1       6.132   5.184  16.464  0.00  0.00    +0.000 A 
ATOM     26 CL   UNL     1       5.838   5.071  14.765  0.00  0.00    +0.000 Cl
ENDBRANCH  19  20
ENDBRANCH  17  19
ENDBRANCH  14  15
ENDBRANCH   1  14
TORSDOF 6
ENDMDL
MODEL 4
REMARK VINA RESULT:      -7.2      3.077      5.502
REMARK  Name = 
REMARK  7 active torsions:
REMARK  status: ('A' for Active; 'I' for Inactive)
REMARK    1  A    between atoms: C_1  and  C_2
REMARK    2  A    between atoms: N_4  and  C_5
REMARK    3  A    between atoms: C_5  and  C_6
REMARK    4  A    between atoms: C_6  and  C_7
REMARK    5  A    between atoms: C_7  and  C_8
REMARK    6  A    between atoms: N_10  and  C_11
REMARK    7  A    between atoms: C_11  and  C_12
REMARK                            x       y       z     vdW  Elec       q    Type
REMARK                         _______ _______ _______ _____ _____    ______ ____
ROOT
ATOM      1  C   UNL     1       0.821   7.923  21.167  0.00  0.00    +0.000 C 
ENDROOT
BRANCH   1   2
ATOM      2  C   UNL     1       2.035   7.603  20.297  0.00  0.00    +0.000 C 
BRANCH   2   6
ATOM      3  C   UNL     1       1.507   2.958  21.683  0.00  0.00    +0.000 C 
ATOM      4  C   UNL     1       1.836   3.999  20.663  0.00  0.00    +0.000 A 
ATOM      5  N   UNL     1       1.782   5.268  20.934  0.00  0.00    +0.000 NA
ATOM      6  N   UNL     1       2.105   6.187  19.933  0.00  0.00    +0.000 N 
ATOM      7  C   UNL     1       2.487   5.830  18.621  0.00  0.00    +0.000 A 
ATOM      8  O   UNL     1       2.767   6.671  17.769  0.00  0.00    +0.000 OA
ATOM      9  C   UNL     1       2.521   4.402  18.404  0.00  0.00    +0.000 A 
ATOM     10  N   UNL     1       2.839   3.763  17.294  0.00  0.00    +0.000 NA
ATOM     11  C   UNL     1       2.715   2.433  17.597  0.00  0.00    +0.000 A 
ATOM     12  C   UNL     1       2.321   2.261  18.904  0.00  0.00    +0.000 A 
ATOM     13  N   UNL     1       2.195   3.539  19.416  0.00  0.00    +0.000 N 
ENDBRANCH   2   6
ENDBRANCH   1   2
BRANCH   1  14
ATOM     14  C   UNL     1       1.038   9.117  22.095  0.00  0.00    +0.000 C 
BRANCH  14  15
ATOM     15  C   UNL     1       0.658  10.416  21.396  0.00  0.00    +0.000 C 
ATOM     16  O   UNL     1       1.401  11.390  21.316  0.00  0.00    +0.000 OA
ATOM     17  N   UNL     1      -0.606  10.376  20.860  0.00  0.00    +0.000 N 
ATOM     18  H   UNL     1      -1.152   9.535  20.964  0.00  0.00    +0.000 HD
BRANCH  17  19
ATOM     19  C   UNL     1      -1.176  11.486  20.127  0.00  0.00    +0.000 C 
BRANCH  19  20
ATOM     20  C   UNL     1      -1.885  11.103  18.847  0.00  0.00    +0.000 A 
ATOM     21  C   UNL     1      -3.183  11.623  18.668  0.00  0.00    +0.000 A 
ATOM     22  C   UNL     1      -3.930  11.359  17.521  0.00  0.00    +0.000 A 
ATOM     23  C   UNL     1      -3.393  10.574  16.507  0.00  0.00    +0.000 A 
ATOM     24  C   UNL     1      -2.114  10.044  16.658  0.00  0.00    +0.000 A 
ATOM     25  C   UNL     1      -1.358  10.305  17.813  0.00  0.00    +0.000 A 
ATOM     26 CL   UNL     1       0.213   9.588  17.853  0.00  0.00    +0.000 Cl
ENDBRANCH  19  20
ENDBRANCH  17  19
ENDBRANCH  14  15
ENDBRANCH   1  14
TORSDOF 6
ENDMDL
MODEL 5
REMARK VINA RESULT:      -7.2      1.983      2.970
REMARK  Name = 
REMARK  7 active torsions:
REMARK  status: ('A' for Active; 'I' for Inactive)
REMARK    1  A    between atoms: C_1  and  C_2
REMARK    2  A    between atoms: N_4  and  C_5
REMARK    3  A    between atoms: C_5  and  C_6
REMARK    4  A    between atoms: C_6  and  C_7
REMARK    5  A    between atoms: C_7  and  C_8
REMARK    6  A    between atoms: N_10  and  C_11
REMARK    7  A    between atoms: C_11  and  C_12
REMARK                            x       y       z     vdW  Elec       q    Type
REMARK                         _______ _______ _______ _____ _____    ______ ____
ROOT
ATOM      1  C   UNL     1       2.693   3.945  20.670  0.00  0.00    +0.000 C 
ENDROOT
BRANCH   1   2
ATOM      2  C   UNL     1       3.533   2.957  19.863  0.00  0.00    +0.000 C 
BRANCH   2   6
ATOM      3  C   UNL     1       7.518   5.678  19.166  0.00  0.00    +0.000 C 
ATOM      4  C   UNL     1       6.333   4.925  18.658  0.00  0.00    +0.000 A 
ATOM      5  N   UNL     1       5.515   4.309  19.458  0.00  0.00    +0.000 NA
ATOM      6  N   UNL     1       4.425   3.626  18.915  0.00  0.00    +0.000 N 
ATOM      7  C   UNL     1       4.145   3.549  17.533  0.00  0.00    +0.000 A 
ATOM      8  O   UNL     1       3.172   2.938  17.094  0.00  0.00    +0.000 OA
ATOM      9  C   UNL     1       5.102   4.259  16.716  0.00  0.00    +0.000 A 
ATOM     10  N   UNL     1       5.111   4.372  15.400  0.00  0.00    +0.000 NA
ATOM     11  C   UNL     1       6.214   5.132  15.113  0.00  0.00    +0.000 A 
ATOM     12  C   UNL     1       6.879   5.486  16.263  0.00  0.00    +0.000 A 
ATOM     13  N   UNL     1       6.156   4.914  17.293  0.00  0.00    +0.000 N 
ENDBRANCH   2   6
ENDBRANCH   1   2
BRANCH   1  14
ATOM     14  C   UNL     1       1.826   4.855  19.802  0.00  0.00    +0.000 C 
BRANCH  14  15
ATOM     15  C   UNL     1       2.274   6.305  19.931  0.00  0.00    +0.000 C 
ATOM     16  O   UNL     1       3.158   6.810  19.246  0.00  0.00    +0.000 OA
ATOM     17  N   UNL     1       1.574   6.989  20.896  0.00  0.00    +0.000 N 
ATOM     18  H   UNL     1       0.857   6.504  21.412  0.00  0.00    +0.000 HD
BRANCH  17  19
ATOM     19  C   UNL     1       1.808   8.389  21.182  0.00  0.00    +0.000 C 
BRANCH  19  20
ATOM     20  C   UNL     1       0.806   9.338  20.561  0.00  0.00    +0.000 A 
ATOM     21  C   UNL     1       0.855   9.474  19.160  0.00  0.00    +0.000 A 
ATOM     22  C   UNL     1      -0.030  10.303  18.469  0.00  0.00    +0.000 A 
ATOM     23  C   UNL     1      -1.003  11.013  19.164  0.00  0.00    +0.000 A 
ATOM     24  C   UNL     1      -1.072  10.900  20.550  0.00  0.00    +0.000 A 
ATOM     25  C   UNL     1      -0.182  10.069  21.251  0.00  0.00    +0.000 A 
ATOM     26 CL   UNL     1      -0.396  10.025  22.964  0.00  0.00    +0.000 Cl
ENDBRANCH  19  20
ENDBRANCH  17  19
ENDBRANCH  14  15
ENDBRANCH   1  14
TORSDOF 6
ENDMDL
MODEL 6
REMARK VINA RESULT:      -7.2      4.265      7.168
REMARK  Name = 
REMARK  7 active torsions:
REMARK  status: ('A' for Active; 'I' for Inactive)
REMARK    1  A    between atoms: C_1  and  C_2
REMARK    2  A    between atoms: N_4  and  C_5
REMARK    3  A    between atoms: C_5  and  C_6
REMARK    4  A    between atoms: C_6  and  C_7
REMARK    5  A    between atoms: C_7  and  C_8
REMARK    6  A    between atoms: N_10  and  C_11
REMARK    7  A    between atoms: C_11  and  C_12
REMARK                            x       y       z     vdW  Elec       q    Type
REMARK                         _______ _______ _______ _____ _____    ______ ____
ROOT
ATOM      1  C   UNL     1       6.572   6.130  16.979  0.00  0.00    +0.000 C 
ENDROOT
BRANCH   1   2
ATOM      2  C   UNL     1       5.135   6.037  16.470  0.00  0.00    +0.000 C 
BRANCH   2   6
ATOM      3  C   UNL     1       3.567   1.690  18.023  0.00  0.00    +0.000 C 
ATOM      4  C   UNL     1       3.565   3.183  18.066  0.00  0.00    +0.000 A 
ATOM      5  N   UNL     1       4.321   3.894  17.286  0.00  0.00    +0.000 NA
ATOM      6  N   UNL     1       4.267   5.286  17.378  0.00  0.00    +0.000 N 
ATOM      7  C   UNL     1       3.438   5.991  18.279  0.00  0.00    +0.000 A 
ATOM      8  O   UNL     1       3.418   7.219  18.327  0.00  0.00    +0.000 OA
ATOM      9  C   UNL     1       2.631   5.126  19.108  0.00  0.00    +0.000 A 
ATOM     10  N   UNL     1       1.764   5.481  20.038  0.00  0.00    +0.000 NA
ATOM     11  C   UNL     1       1.268   4.304  20.534  0.00  0.00    +0.000 A 
ATOM     12  C   UNL     1       1.837   3.225  19.900  0.00  0.00    +0.000 A 
ATOM     13  N   UNL     1       2.719   3.765  18.983  0.00  0.00    +0.000 N 
ENDBRANCH   2   6
ENDBRANCH   1   2
BRANCH   1  14
ATOM     14  C   UNL     1       7.222   7.487  16.715  0.00  0.00    +0.000 C 
BRANCH  14  15
ATOM     15  C   UNL     1       7.979   7.969  17.947  0.00  0.00    +0.000 C 
ATOM     16  O   UNL     1       8.343   7.229  18.856  0.00  0.00    +0.000 OA
ATOM     17  N   UNL     1       8.214   9.322  17.925  0.00  0.00    +0.000 N 
ATOM     18  H   UNL     1       7.887   9.860  17.137  0.00  0.00    +0.000 HD
BRANCH  17  19
ATOM     19  C   UNL     1       8.937  10.003  18.977  0.00  0.00    +0.000 C 
BRANCH  19  20
ATOM     20  C   UNL     1       9.773  11.177  18.515  0.00  0.00    +0.000 A 
ATOM     21  C   UNL     1      11.130  11.170  18.895  0.00  0.00    +0.000 A 
ATOM     22  C   UNL     1      12.007  12.185  18.513  0.00  0.00    +0.000 A 
ATOM     23  C   UNL     1      11.552  13.235  17.724  0.00  0.00    +0.000 A 
ATOM     24  C   UNL     1      10.215  13.270  17.336  0.00  0.00    +0.000 A 
ATOM     25  C   UNL     1       9.327  12.252  17.721  0.00  0.00    +0.000 A 
ATOM     26 CL   UNL     1       7.704  12.427  17.157  0.00  0.00    +0.000 Cl
ENDBRANCH  19  20
ENDBRANCH  17  19
ENDBRANCH  14  15
ENDBRANCH   1  14
TORSDOF 6
ENDMDL
MODEL 7
REMARK VINA RESULT:      -7.2      2.741      6.793
REMARK  Name = 
REMARK  7 active torsions:
REMARK  status: ('A' for Active; 'I' for Inactive)
REMARK    1  A    between atoms: C_1  and  C_2
REMARK    2  A    between atoms: N_4  and  C_5
REMARK    3  A    between atoms: C_5  and  C_6
REMARK    4  A    between atoms: C_6  and  C_7
REMARK    5  A    between atoms: C_7  and  C_8
REMARK    6  A    between atoms: N_10  and  C_11
REMARK    7  A    between atoms: C_11  and  C_12
REMARK                            x       y       z     vdW  Elec       q    Type
REMARK                         _______ _______ _______ _____ _____    ______ ____
ROOT
ATOM      1  C   UNL     1       1.628   5.380  20.718  0.00  0.00    +0.000 C 
ENDROOT
BRANCH   1   2
ATOM      2  C   UNL     1       2.284   6.484  19.891  0.00  0.00    +0.000 C 
BRANCH   2   6
ATOM      3  C   UNL     1       0.118   9.504  23.046  0.00  0.00    +0.000 C 
ATOM      4  C   UNL     1       0.659   9.181  21.692  0.00  0.00    +0.000 A 
ATOM      5  N   UNL     1       1.204   8.033  21.425  0.00  0.00    +0.000 NA
ATOM      6  N   UNL     1       1.687   7.797  20.136  0.00  0.00    +0.000 N 
ATOM      7  C   UNL     1       1.630   8.736  19.083  0.00  0.00    +0.000 A 
ATOM      8  O   UNL     1       2.064   8.488  17.960  0.00  0.00    +0.000 OA
ATOM      9  C   UNL     1       1.010   9.985  19.464  0.00  0.00    +0.000 A 
ATOM     10  N   UNL     1       0.810  11.049  18.708  0.00  0.00    +0.000 NA
ATOM     11  C   UNL     1       0.197  11.960  19.527  0.00  0.00    +0.000 A 
ATOM     12  C   UNL     1       0.020  11.446  20.789  0.00  0.00    +0.000 A 
ATOM     13  N   UNL     1       0.552  10.171  20.741  0.00  0.00    +0.000 N 
ENDBRANCH   2   6
ENDBRANCH   1   2
BRANCH   1  14
ATOM     14  C   UNL     1       1.149   4.197  19.879  0.00  0.00    +0.000 C 
BRANCH  14  15
ATOM     15  C   UNL     1       2.332   3.460  19.265  0.00  0.00    +0.000 C 
ATOM     16  O   UNL     1       2.833   2.451  19.751  0.00  0.00    +0.000 OA
ATOM     17  N   UNL     1       2.773   4.047  18.103  0.00  0.00    +0.000 N 
ATOM     18  H   UNL     1       2.302   4.872  17.766  0.00  0.00    +0.000 HD
BRANCH  17  19
ATOM     19  C   UNL     1       3.871   3.509  17.328  0.00  0.00    +0.000 C 
BRANCH  19  20
ATOM     20  C   UNL     1       5.192   4.222  17.521  0.00  0.00    +0.000 A 
ATOM     21  C   UNL     1       5.427   4.772  18.797  0.00  0.00    +0.000 A 
ATOM     22  C   UNL     1       6.615   5.435  19.105  0.00  0.00    +0.000 A 
ATOM     23  C   UNL     1       7.613   5.555  18.144  0.00  0.00    +0.000 A 
ATOM     24  C   UNL     1       7.406   5.024  16.873  0.00  0.00    +0.000 A 
ATOM     25  C   UNL     1       6.210   4.358  16.558  0.00  0.00    +0.000 A 
ATOM     26 CL   UNL     1       6.102   3.745  14.946  0.00  0.00    +0.000 Cl
ENDBRANCH  19  20
ENDBRANCH  17  19
ENDBRANCH  14  15
ENDBRANCH   1  14
TORSDOF 6
ENDMDL
MODEL 8
REMARK VINA RESULT:      -7.2      5.741      7.918
REMARK  Name = 
REMARK  7 active torsions:
REMARK  status: ('A' for Active; 'I' for Inactive)
REMARK    1  A    between atoms: C_1  and  C_2
REMARK    2  A    between atoms: N_4  and  C_5
REMARK    3  A    between atoms: C_5  and  C_6
REMARK    4  A    between atoms: C_6  and  C_7
REMARK    5  A    between atoms: C_7  and  C_8
REMARK    6  A    between atoms: N_10  and  C_11
REMARK    7  A    between atoms: C_11  and  C_12
REMARK                            x       y       z     vdW  Elec       q    Type
REMARK                         _______ _______ _______ _____ _____    ______ ____
ROOT
ATOM      1  C   UNL     1       8.171   7.911  18.245  0.00  0.00    +0.000 C 
ENDROOT
BRANCH   1   2
ATOM      2  C   UNL     1       7.437   7.098  17.180  0.00  0.00    +0.000 C 
BRANCH   2   6
ATOM      3  C   UNL     1       2.637   6.925  18.018  0.00  0.00    +0.000 C 
ATOM      4  C   UNL     1       4.009   6.340  18.096  0.00  0.00    +0.000 A 
ATOM      5  N   UNL     1       5.048   6.958  17.619  0.00  0.00    +0.000 NA
ATOM      6  N   UNL     1       6.302   6.353  17.728  0.00  0.00    +0.000 N 
ATOM      7  C   UNL     1       6.527   5.093  18.324  0.00  0.00    +0.000 A 
ATOM      8  O   UNL     1       7.649   4.597  18.403  0.00  0.00    +0.000 OA
ATOM      9  C   UNL     1       5.322   4.476  18.828  0.00  0.00    +0.000 A 
ATOM     10  N   UNL     1       5.207   3.308  19.434  0.00  0.00    +0.000 NA
ATOM     11  C   UNL     1       3.871   3.177  19.708  0.00  0.00    +0.000 A 
ATOM     12  C   UNL     1       3.169   4.274  19.268  0.00  0.00    +0.000 A 
ATOM     13  N   UNL     1       4.113   5.106  18.697  0.00  0.00    +0.000 N 
ENDBRANCH   2   6
ENDBRANCH   1   2
BRANCH   1  14
ATOM     14  C   UNL     1       8.180   9.412  17.963  0.00  0.00    +0.000 C 
BRANCH  14  15
ATOM     15  C   UNL     1       9.157  10.126  18.887  0.00  0.00    +0.000 C 
ATOM     16  O   UNL     1       9.060  10.130  20.111  0.00  0.00    +0.000 OA
ATOM     17  N   UNL     1      10.164  10.761  18.201  0.00  0.00    +0.000 N 
ATOM     18  H   UNL     1      10.177  10.704  17.194  0.00  0.00    +0.000 HD
BRANCH  17  19
ATOM     19  C   UNL     1      11.225  11.485  18.868  0.00  0.00    +0.000 C 
BRANCH  19  20
ATOM     20  C   UNL     1      10.957  12.962  19.065  0.00  0.00    +0.000 A 
ATOM     21  C   UNL     1      10.665  13.377  20.379  0.00  0.00    +0.000 A 
ATOM     22  C   UNL     1      10.422  14.714  20.692  0.00  0.00    +0.000 A 
ATOM     23  C   UNL     1      10.476  15.682  19.695  0.00  0.00    +0.000 A 
ATOM     24  C   UNL     1      10.759  15.300  18.386  0.00  0.00    +0.000 A 
ATOM     25  C   UNL     1      11.003  13.954  18.066  0.00  0.00    +0.000 A 
ATOM     26 CL   UNL     1      11.349  13.635  16.404  0.00  0.00    +0.000 Cl
ENDBRANCH  19  20
ENDBRANCH  17  19
ENDBRANCH  14  15
ENDBRANCH   1  14
TORSDOF 6
ENDMDL
MODEL 9
REMARK VINA RESULT:      -7.0      2.796      7.203
REMARK  Name = 
REMARK  7 active torsions:
REMARK  status: ('A' for Active; 'I' for Inactive)
REMARK    1  A    between atoms: C_1  and  C_2
REMARK    2  A    between atoms: N_4  and  C_5
REMARK    3  A    between atoms: C_5  and  C_6
REMARK    4  A    between atoms: C_6  and  C_7
REMARK    5  A    between atoms: C_7  and  C_8
REMARK    6  A    between atoms: N_10  and  C_11
REMARK    7  A    between atoms: C_11  and  C_12
REMARK                            x       y       z     vdW  Elec       q    Type
REMARK                         _______ _______ _______ _____ _____    ______ ____
ROOT
ATOM      1  C   UNL     1       2.056   5.852  20.646  0.00  0.00    +0.000 C 
ENDROOT
BRANCH   1   2
ATOM      2  C   UNL     1       2.281   7.009  19.675  0.00  0.00    +0.000 C 
BRANCH   2   6
ATOM      3  C   UNL     1       0.020   9.484  23.216  0.00  0.00    +0.000 C 
ATOM      4  C   UNL     1       0.503   9.343  21.810  0.00  0.00    +0.000 A 
ATOM      5  N   UNL     1       1.147   8.289  21.406  0.00  0.00    +0.000 NA
ATOM      6  N   UNL     1       1.568   8.223  20.076  0.00  0.00    +0.000 N 
ATOM      7  C   UNL     1       1.347   9.240  19.122  0.00  0.00    +0.000 A 
ATOM      8  O   UNL     1       1.732   9.141  17.958  0.00  0.00    +0.000 OA
ATOM      9  C   UNL     1       0.626  10.374  19.652  0.00  0.00    +0.000 A 
ATOM     10  N   UNL     1       0.270  11.473  19.013  0.00  0.00    +0.000 NA
ATOM     11  C   UNL     1      -0.381  12.236  19.947  0.00  0.00    +0.000 A 
ATOM     12  C   UNL     1      -0.422  11.595  21.163  0.00  0.00    +0.000 A 
ATOM     13  N   UNL     1       0.234  10.395  20.964  0.00  0.00    +0.000 N 
ENDBRANCH   2   6
ENDBRANCH   1   2
BRANCH   1  14
ATOM     14  C   UNL     1       1.374   4.645  20.004  0.00  0.00    +0.000 C 
BRANCH  14  15
ATOM     15  C   UNL     1       2.409   3.629  19.538  0.00  0.00    +0.000 C 
ATOM     16  O   UNL     1       2.680   2.601  20.151  0.00  0.00    +0.000 OA
ATOM     17  N   UNL     1       3.001   3.987  18.351  0.00  0.00    +0.000 N 
ATOM     18  H   UNL     1       2.718   4.846  17.905  0.00  0.00    +0.000 HD
BRANCH  17  19
ATOM     19  C   UNL     1       3.998   3.164  17.700  0.00  0.00    +0.000 C 
BRANCH  19  20
ATOM     20  C   UNL     1       5.114   3.934  17.025  0.00  0.00    +0.000 A 
ATOM     21  C   UNL     1       5.261   3.738  15.638  0.00  0.00    +0.000 A 
ATOM     22  C   UNL     1       6.238   4.407  14.900  0.00  0.00    +0.000 A 
ATOM     23  C   UNL     1       7.092   5.305  15.531  0.00  0.00    +0.000 A 
ATOM     24  C   UNL     1       6.971   5.515  16.902  0.00  0.00    +0.000 A 
ATOM     25  C   UNL     1       5.990   4.843  17.650  0.00  0.00    +0.000 A 
ATOM     26 CL   UNL     1       5.956   5.213  19.336  0.00  0.00    +0.000 Cl
ENDBRANCH  19  20
ENDBRANCH  17  19
ENDBRANCH  14  15
ENDBRANCH   1  14
TORSDOF 6
ENDMDL
