MODEL 1
REMARK VINA RESULT:      -8.9      0.000      0.000
REMARK  Name = 
REMARK  4 active torsions:
REMARK  status: ('A' for Active; 'I' for Inactive)
REMARK    1  A    between atoms: S_2  and  N_4
REMARK    2  A    between atoms: S_2  and  C_19
REMARK    3  A    between atoms: N_4  and  C_5
REMARK    4  A    between atoms: C_9  and  C_10
REMARK                            x       y       z     vdW  Elec       q    Type
REMARK                         _______ _______ _______ _____ _____    ______ ____
ROOT
ATOM      1  N   UNL     1       3.303   6.003  20.021  0.00  0.00    +0.000 N 
ATOM      2  H   UNL     1       2.893   6.519  20.810  0.00  0.00    +0.000 HD
ENDROOT
BRANCH   1   3
ATOM      3  C   UNL     1       2.974   4.603  20.077  0.00  0.00    +0.000 A 
ATOM      4  S   UNL     1       1.887   4.001  21.248  0.00  0.00    +0.000 S 
ATOM      5  C   UNL     1       1.926   2.431  20.573  0.00  0.00    +0.000 A 
ATOM      6  C   UNL     1       2.758   2.364  19.481  0.00  0.00    +0.000 A 
ATOM      7  C   UNL     1       3.399   3.617  19.203  0.00  0.00    +0.000 A 
BRANCH   7   8
ATOM      8  C   UNL     1       4.456   3.793  18.149  0.00  0.00    +0.000 A 
ATOM      9  N   UNL     1       4.261   3.431  16.901  0.00  0.00    +0.000 NA
ATOM     10  C   UNL     1       5.273   3.945  16.105  0.00  0.00    +0.000 A 
ATOM     11  C   UNL     1       5.321   3.901  14.699  0.00  0.00    +0.000 A 
ATOM     12  C   UNL     1       6.408   4.471  14.024  0.00  0.00    +0.000 A 
ATOM     13  C   UNL     1       7.447   5.068  14.730  0.00  0.00    +0.000 A 
ATOM     14  C   UNL     1       7.421   5.131  16.125  0.00  0.00    +0.000 A 
ATOM     15  C   UNL     1       6.313   4.576  16.788  0.00  0.00    +0.000 A 
ATOM     16  S   UNL     1       5.965   4.558  18.467  0.00  0.00    +0.000 S 
ENDBRANCH   7   8
ENDBRANCH   1   3
BRANCH   1  18
ATOM     17  O   UNL     1       3.735   7.417  17.875  0.00  0.00    +0.000 OA
ATOM     18  S   UNL     1       2.671   6.806  18.652  0.00  0.00    +0.000 S 
ATOM     19  O   UNL     1       1.742   5.878  18.041  0.00  0.00    +0.000 OA
BRANCH  18  20
ATOM     20  C   UNL     1       1.691   8.122  19.355  0.00  0.00    +0.000 A 
ATOM     21  C   UNL     1       1.467   9.272  18.597  0.00  0.00    +0.000 A 
ATOM     22  C   UNL     1       0.795  10.356  19.165  0.00  0.00    +0.000 A 
ATOM     23  C   UNL     1       0.346  10.308  20.492  0.00  0.00    +0.000 A 
ATOM     24  C   UNL     1      -0.334  11.397  21.062  0.00  0.00    +0.000 A 
ATOM     25  C   UNL     1      -0.779  11.349  22.383  0.00  0.00    +0.000 A 
ATOM     26  C   UNL     1      -0.543  10.215  23.154  0.00  0.00    +0.000 A 
ATOM     27  C   UNL     1       0.139   9.126  22.604  0.00  0.00    +0.000 A 
ATOM     28  C   UNL     1       0.589   9.151  21.271  0.00  0.00    +0.000 A 
ATOM     29  C   UNL     1       1.277   8.065  20.692  0.00  0.00    +0.000 A 
ENDBRANCH  18  20
ENDBRANCH   1  18
TORSDOF 4
ENDMDL
MODEL 2
REMARK VINA RESULT:      -8.9      1.766      7.854
REMARK  Name = 
REMARK  4 active torsions:
REMARK  status: ('A' for Active; 'I' for Inactive)
REMARK    1  A    between atoms: S_2  and  N_4
REMARK    2  A    between atoms: S_2  and  C_19
REMARK    3  A    between atoms: N_4  and  C_5
REMARK    4  A    between atoms: C_9  and  C_10
REMARK                            x       y       z     vdW  Elec       q    Type
REMARK                         _______ _______ _______ _____ _____    ______ ____
ROOT
ATOM      1  N   UNL     1       3.407   4.361  17.982  0.00  0.00    +0.000 N 
ATOM      2  H   UNL     1       3.419   3.647  17.243  0.00  0.00    +0.000 HD
ENDROOT
BRANCH   1   3
ATOM      3  C   UNL     1       2.563   3.971  19.080  0.00  0.00    +0.000 A 
ATOM      4  S   UNL     1       2.269   2.323  19.422  0.00  0.00    +0.000 S 
ATOM      5  C   UNL     1       1.391   2.706  20.838  0.00  0.00    +0.000 A 
ATOM      6  C   UNL     1       1.316   4.063  21.043  0.00  0.00    +0.000 A 
ATOM      7  C   UNL     1       1.968   4.810  20.007  0.00  0.00    +0.000 A 
BRANCH   7   8
ATOM      8  C   UNL     1       1.925   6.310  19.912  0.00  0.00    +0.000 A 
ATOM      9  N   UNL     1       2.354   6.951  18.848  0.00  0.00    +0.000 NA
ATOM     10  C   UNL     1       1.955   8.278  18.914  0.00  0.00    +0.000 A 
ATOM     11  C   UNL     1       2.093   9.234  17.890  0.00  0.00    +0.000 A 
ATOM     12  C   UNL     1       1.635  10.541  18.095  0.00  0.00    +0.000 A 
ATOM     13  C   UNL     1       1.059  10.909  19.306  0.00  0.00    +0.000 A 
ATOM     14  C   UNL     1       0.904   9.978  20.337  0.00  0.00    +0.000 A 
ATOM     15  C   UNL     1       1.346   8.664  20.108  0.00  0.00    +0.000 A 
ATOM     16  S   UNL     1       1.235   7.299  21.139  0.00  0.00    +0.000 S 
ENDBRANCH   7   8
ENDBRANCH   1   3
BRANCH   1  18
ATOM     17  O   UNL     1       5.296   5.796  19.061  0.00  0.00    +0.000 OA
ATOM     18  S   UNL     1       5.055   4.525  18.402  0.00  0.00    +0.000 S 
ATOM     19  O   UNL     1       5.429   3.275  19.034  0.00  0.00    +0.000 OA
BRANCH  18  20
ATOM     20  C   UNL     1       5.886   4.568  16.824  0.00  0.00    +0.000 A 
ATOM     21  C   UNL     1       7.024   5.364  16.684  0.00  0.00    +0.000 A 
ATOM     22  C   UNL     1       7.628   5.497  15.432  0.00  0.00    +0.000 A 
ATOM     23  C   UNL     1       7.103   4.844  14.308  0.00  0.00    +0.000 A 
ATOM     24  C   UNL     1       7.712   4.975  13.050  0.00  0.00    +0.000 A 
ATOM     25  C   UNL     1       7.188   4.326  11.932  0.00  0.00    +0.000 A 
ATOM     26  C   UNL     1       6.043   3.546  12.055  0.00  0.00    +0.000 A 
ATOM     27  C   UNL     1       5.419   3.413  13.299  0.00  0.00    +0.000 A 
ATOM     28  C   UNL     1       5.936   4.052  14.441  0.00  0.00    +0.000 A 
ATOM     29  C   UNL     1       5.329   3.931  15.707  0.00  0.00    +0.000 A 
ENDBRANCH  18  20
ENDBRANCH   1  18
TORSDOF 4
ENDMDL
MODEL 3
REMARK VINA RESULT:      -8.4      0.546      1.556
REMARK  Name = 
REMARK  4 active torsions:
REMARK  status: ('A' for Active; 'I' for Inactive)
REMARK    1  A    between atoms: S_2  and  N_4
REMARK    2  A    between atoms: S_2  and  C_19
REMARK    3  A    between atoms: N_4  and  C_5
REMARK    4  A    between atoms: C_9  and  C_10
REMARK                            x       y       z     vdW  Elec       q    Type
REMARK                         _______ _______ _______ _____ _____    ______ ____
ROOT
ATOM      1  N   UNL     1       3.353   5.959  20.005  0.00  0.00    +0.000 N 
ATOM      2  H   UNL     1       2.996   6.456  20.831  0.00  0.00    +0.000 HD
ENDROOT
BRANCH   1   3
ATOM      3  C   UNL     1       2.988   4.568  20.026  0.00  0.00    +0.000 A 
ATOM      4  S   UNL     1       1.887   3.964  21.185  0.00  0.00    +0.000 S 
ATOM      5  C   UNL     1       1.884   2.412  20.470  0.00  0.00    +0.000 A 
ATOM      6  C   UNL     1       2.711   2.351  19.375  0.00  0.00    +0.000 A 
ATOM      7  C   UNL     1       3.384   3.593  19.127  0.00  0.00    +0.000 A 
BRANCH   7   8
ATOM      8  C   UNL     1       4.444   3.768  18.075  0.00  0.00    +0.000 A 
ATOM      9  N   UNL     1       4.253   3.398  16.829  0.00  0.00    +0.000 NA
ATOM     10  C   UNL     1       5.265   3.912  16.032  0.00  0.00    +0.000 A 
ATOM     11  C   UNL     1       5.318   3.860  14.626  0.00  0.00    +0.000 A 
ATOM     12  C   UNL     1       6.403   4.431  13.951  0.00  0.00    +0.000 A 
ATOM     13  C   UNL     1       7.438   5.037  14.656  0.00  0.00    +0.000 A 
ATOM     14  C   UNL     1       7.407   5.108  16.051  0.00  0.00    +0.000 A 
ATOM     15  C   UNL     1       6.301   4.552  16.714  0.00  0.00    +0.000 A 
ATOM     16  S   UNL     1       5.947   4.542  18.392  0.00  0.00    +0.000 S 
ENDBRANCH   7   8
ENDBRANCH   1   3
BRANCH   1  18
ATOM     17  O   UNL     1       3.724   7.444  17.896  0.00  0.00    +0.000 OA
ATOM     18  S   UNL     1       2.681   6.830  18.698  0.00  0.00    +0.000 S 
ATOM     19  O   UNL     1       1.701   5.948  18.097  0.00  0.00    +0.000 OA
BRANCH  18  20
ATOM     20  C   UNL     1       1.768   8.140  19.493  0.00  0.00    +0.000 A 
ATOM     21  C   UNL     1       1.433   8.005  20.842  0.00  0.00    +0.000 A 
ATOM     22  C   UNL     1       0.628   8.967  21.455  0.00  0.00    +0.000 A 
ATOM     23  C   UNL     1       0.146  10.067  20.734  0.00  0.00    +0.000 A 
ATOM     24  C   UNL     1      -0.660  11.037  21.353  0.00  0.00    +0.000 A 
ATOM     25  C   UNL     1      -1.141  12.131  20.633  0.00  0.00    +0.000 A 
ATOM     26  C   UNL     1      -0.829  12.265  19.284  0.00  0.00    +0.000 A 
ATOM     27  C   UNL     1      -0.036  11.304  18.651  0.00  0.00    +0.000 A 
ATOM     28  C   UNL     1       0.467  10.198  19.361  0.00  0.00    +0.000 A 
ATOM     29  C   UNL     1       1.272   9.217  18.747  0.00  0.00    +0.000 A 
ENDBRANCH  18  20
ENDBRANCH   1  18
TORSDOF 4
ENDMDL
MODEL 4
REMARK VINA RESULT:      -8.2      2.415      6.567
REMARK  Name = 
REMARK  4 active torsions:
REMARK  status: ('A' for Active; 'I' for Inactive)
REMARK    1  A    between atoms: S_2  and  N_4
REMARK    2  A    between atoms: S_2  and  C_19
REMARK    3  A    between atoms: N_4  and  C_5
REMARK    4  A    between atoms: C_9  and  C_10
REMARK                            x       y       z     vdW  Elec       q    Type
REMARK                         _______ _______ _______ _____ _____    ______ ____
ROOT
ATOM      1  N   UNL     1       1.449   3.969  18.251  0.00  0.00    +0.000 N 
ATOM      2  H   UNL     1       0.563   3.545  17.950  0.00  0.00    +0.000 HD
ENDROOT
BRANCH   1   3
ATOM      3  C   UNL     1       1.643   3.837  19.671  0.00  0.00    +0.000 A 
ATOM      4  S   UNL     1       1.598   2.305  20.426  0.00  0.00    +0.000 S 
ATOM      5  C   UNL     1       2.040   2.965  21.939  0.00  0.00    +0.000 A 
ATOM      6  C   UNL     1       2.211   4.327  21.874  0.00  0.00    +0.000 A 
ATOM      7  C   UNL     1       1.950   4.849  20.564  0.00  0.00    +0.000 A 
BRANCH   7   8
ATOM      8  C   UNL     1       1.933   6.318  20.243  0.00  0.00    +0.000 A 
ATOM      9  N   UNL     1       2.470   6.795  19.143  0.00  0.00    +0.000 NA
ATOM     10  C   UNL     1       2.081   8.115  18.972  0.00  0.00    +0.000 A 
ATOM     11  C   UNL     1       2.327   8.908  17.835  0.00  0.00    +0.000 A 
ATOM     12  C   UNL     1       1.866  10.230  17.799  0.00  0.00    +0.000 A 
ATOM     13  C   UNL     1       1.181  10.772  18.881  0.00  0.00    +0.000 A 
ATOM     14  C   UNL     1       0.918  10.005  20.018  0.00  0.00    +0.000 A 
ATOM     15  C   UNL     1       1.365   8.673  20.031  0.00  0.00    +0.000 A 
ATOM     16  S   UNL     1       1.140   7.476  21.238  0.00  0.00    +0.000 S 
ENDBRANCH   7   8
ENDBRANCH   1   3
BRANCH   1  18
ATOM     17  O   UNL     1       2.724   1.759  17.723  0.00  0.00    +0.000 OA
ATOM     18  S   UNL     1       2.619   3.149  17.316  0.00  0.00    +0.000 S 
ATOM     19  O   UNL     1       2.344   3.502  15.938  0.00  0.00    +0.000 OA
BRANCH  18  20
ATOM     20  C   UNL     1       4.148   3.957  17.755  0.00  0.00    +0.000 A 
ATOM     21  C   UNL     1       4.863   3.490  18.859  0.00  0.00    +0.000 A 
ATOM     22  C   UNL     1       6.004   4.173  19.285  0.00  0.00    +0.000 A 
ATOM     23  C   UNL     1       6.441   5.328  18.621  0.00  0.00    +0.000 A 
ATOM     24  C   UNL     1       7.591   6.012  19.047  0.00  0.00    +0.000 A 
ATOM     25  C   UNL     1       8.023   7.162  18.386  0.00  0.00    +0.000 A 
ATOM     26  C   UNL     1       7.307   7.648  17.297  0.00  0.00    +0.000 A 
ATOM     27  C   UNL     1       6.155   6.983  16.866  0.00  0.00    +0.000 A 
ATOM     28  C   UNL     1       5.707   5.817  17.513  0.00  0.00    +0.000 A 
ATOM     29  C   UNL     1       4.551   5.126  17.096  0.00  0.00    +0.000 A 
ENDBRANCH  18  20
ENDBRANCH   1  18
TORSDOF 4
ENDMDL
MODEL 5
REMARK VINA RESULT:      -8.2      2.398      6.387
REMARK  Name = 
REMARK  4 active torsions:
REMARK  status: ('A' for Active; 'I' for Inactive)
REMARK    1  A    between atoms: S_2  and  N_4
REMARK    2  A    between atoms: S_2  and  C_19
REMARK    3  A    between atoms: N_4  and  C_5
REMARK    4  A    between atoms: C_9  and  C_10
REMARK                            x       y       z     vdW  Elec       q    Type
REMARK                         _______ _______ _______ _____ _____    ______ ____
ROOT
ATOM      1  N   UNL     1       1.653   3.847  18.185  0.00  0.00    +0.000 N 
ATOM      2  H   UNL     1       0.852   3.313  17.826  0.00  0.00    +0.000 HD
ENDROOT
BRANCH   1   3
ATOM      3  C   UNL     1       1.788   3.706  19.611  0.00  0.00    +0.000 A 
ATOM      4  S   UNL     1       1.749   2.166  20.350  0.00  0.00    +0.000 S 
ATOM      5  C   UNL     1       2.107   2.822  21.887  0.00  0.00    +0.000 A 
ATOM      6  C   UNL     1       2.246   4.188  21.841  0.00  0.00    +0.000 A 
ATOM      7  C   UNL     1       2.030   4.717  20.525  0.00  0.00    +0.000 A 
BRANCH   7   8
ATOM      8  C   UNL     1       1.990   6.187  20.217  0.00  0.00    +0.000 A 
ATOM      9  N   UNL     1       2.531   6.684  19.127  0.00  0.00    +0.000 NA
ATOM     10  C   UNL     1       2.120   7.998  18.963  0.00  0.00    +0.000 A 
ATOM     11  C   UNL     1       2.366   8.806  17.836  0.00  0.00    +0.000 A 
ATOM     12  C   UNL     1       1.881  10.119  17.805  0.00  0.00    +0.000 A 
ATOM     13  C   UNL     1       1.172  10.639  18.882  0.00  0.00    +0.000 A 
ATOM     14  C   UNL     1       0.908   9.857  20.010  0.00  0.00    +0.000 A 
ATOM     15  C   UNL     1       1.380   8.534  20.017  0.00  0.00    +0.000 A 
ATOM     16  S   UNL     1       1.162   7.322  21.211  0.00  0.00    +0.000 S 
ENDBRANCH   7   8
ENDBRANCH   1   3
BRANCH   1  18
ATOM     17  O   UNL     1       3.520   2.044  17.954  0.00  0.00    +0.000 OA
ATOM     18  S   UNL     1       2.974   3.221  17.302  0.00  0.00    +0.000 S 
ATOM     19  O   UNL     1       2.541   3.172  15.920  0.00  0.00    +0.000 OA
BRANCH  18  20
ATOM     20  C   UNL     1       4.199   4.514  17.408  0.00  0.00    +0.000 A 
ATOM     21  C   UNL     1       4.239   5.487  16.407  0.00  0.00    +0.000 A 
ATOM     22  C   UNL     1       5.255   6.444  16.412  0.00  0.00    +0.000 A 
ATOM     23  C   UNL     1       6.242   6.440  17.407  0.00  0.00    +0.000 A 
ATOM     24  C   UNL     1       7.261   7.407  17.414  0.00  0.00    +0.000 A 
ATOM     25  C   UNL     1       8.244   7.401  18.404  0.00  0.00    +0.000 A 
ATOM     26  C   UNL     1       8.226   6.424  19.394  0.00  0.00    +0.000 A 
ATOM     27  C   UNL     1       7.223   5.450  19.396  0.00  0.00    +0.000 A 
ATOM     28  C   UNL     1       6.217   5.443  18.413  0.00  0.00    +0.000 A 
ATOM     29  C   UNL     1       5.193   4.475  18.394  0.00  0.00    +0.000 A 
ENDBRANCH  18  20
ENDBRANCH   1  18
TORSDOF 4
ENDMDL
MODEL 6
REMARK VINA RESULT:      -8.1      4.139     10.270
REMARK  Name = 
REMARK  4 active torsions:
REMARK  status: ('A' for Active; 'I' for Inactive)
REMARK    1  A    between atoms: S_2  and  N_4
REMARK    2  A    between atoms: S_2  and  C_19
REMARK    3  A    between atoms: N_4  and  C_5
REMARK    4  A    between atoms: C_9  and  C_10
REMARK                            x       y       z     vdW  Elec       q    Type
REMARK                         _______ _______ _______ _____ _____    ______ ____
ROOT
ATOM      1  N   UNL     1      -0.574  10.401  19.694  0.00  0.00    +0.000 N 
ATOM      2  H   UNL     1      -1.537  10.200  19.991  0.00  0.00    +0.000 HD
ENDROOT
BRANCH   1   3
ATOM      3  C   UNL     1      -0.345  11.815  19.562  0.00  0.00    +0.000 A 
ATOM      4  S   UNL     1       1.010  12.412  18.710  0.00  0.00    +0.000 S 
ATOM      5  C   UNL     1       0.485  14.030  18.877  0.00  0.00    +0.000 A 
ATOM      6  C   UNL     1      -0.696  14.116  19.575  0.00  0.00    +0.000 A 
ATOM      7  C   UNL     1      -1.171  12.834  20.007  0.00  0.00    +0.000 A 
BRANCH   7   8
ATOM      8  C   UNL     1      -2.366  12.649  20.900  0.00  0.00    +0.000 A 
ATOM      9  N   UNL     1      -2.244  12.305  22.162  0.00  0.00    +0.000 NA
ATOM     10  C   UNL     1      -3.461  12.467  22.807  0.00  0.00    +0.000 A 
ATOM     11  C   UNL     1      -3.684  12.350  24.192  0.00  0.00    +0.000 A 
ATOM     12  C   UNL     1      -4.971  12.549  24.706  0.00  0.00    +0.000 A 
ATOM     13  C   UNL     1      -6.035  12.847  23.861  0.00  0.00    +0.000 A 
ATOM     14  C   UNL     1      -5.839  12.976  22.483  0.00  0.00    +0.000 A 
ATOM     15  C   UNL     1      -4.538  12.797  21.984  0.00  0.00    +0.000 A 
ATOM     16  S   UNL     1      -3.975  12.954  20.372  0.00  0.00    +0.000 S 
ENDBRANCH   7   8
ENDBRANCH   1   3
BRANCH   1  18
ATOM     17  O   UNL     1       1.238  10.630  21.553  0.00  0.00    +0.000 OA
ATOM     18  S   UNL     1       0.376   9.658  20.904  0.00  0.00    +0.000 S 
ATOM     19  O   UNL     1      -0.535   8.837  21.675  0.00  0.00    +0.000 OA
BRANCH  18  20
ATOM     20  C   UNL     1       1.420   8.539  19.986  0.00  0.00    +0.000 A 
ATOM     21  C   UNL     1       1.808   8.888  18.692  0.00  0.00    +0.000 A 
ATOM     22  C   UNL     1       2.534   7.982  17.918  0.00  0.00    +0.000 A 
ATOM     23  C   UNL     1       2.877   6.719  18.421  0.00  0.00    +0.000 A 
ATOM     24  C   UNL     1       3.611   5.808  17.643  0.00  0.00    +0.000 A 
ATOM     25  C   UNL     1       3.949   4.551  18.144  0.00  0.00    +0.000 A 
ATOM     26  C   UNL     1       3.551   4.185  19.426  0.00  0.00    +0.000 A 
ATOM     27  C   UNL     1       2.812   5.076  20.209  0.00  0.00    +0.000 A 
ATOM     28  C   UNL     1       2.467   6.352  19.726  0.00  0.00    +0.000 A 
ATOM     29  C   UNL     1       1.726   7.270  20.497  0.00  0.00    +0.000 A 
ENDBRANCH  18  20
ENDBRANCH   1  18
TORSDOF 4
ENDMDL
MODEL 7
REMARK VINA RESULT:      -7.9      1.929      7.728
REMARK  Name = 
REMARK  4 active torsions:
REMARK  status: ('A' for Active; 'I' for Inactive)
REMARK    1  A    between atoms: S_2  and  N_4
REMARK    2  A    between atoms: S_2  and  C_19
REMARK    3  A    between atoms: N_4  and  C_5
REMARK    4  A    between atoms: C_9  and  C_10
REMARK                            x       y       z     vdW  Elec       q    Type
REMARK                         _______ _______ _______ _____ _____    ______ ____
ROOT
ATOM      1  N   UNL     1       4.153   3.964  18.940  0.00  0.00    +0.000 N 
ATOM      2  H   UNL     1       4.197   4.969  18.724  0.00  0.00    +0.000 HD
ENDROOT
BRANCH   1   3
ATOM      3  C   UNL     1       3.198   3.688  19.980  0.00  0.00    +0.000 A 
ATOM      4  S   UNL     1       2.993   2.105  20.589  0.00  0.00    +0.000 S 
ATOM      5  C   UNL     1       1.897   2.638  21.788  0.00  0.00    +0.000 A 
ATOM      6  C   UNL     1       1.684   3.994  21.721  0.00  0.00    +0.000 A 
ATOM      7  C   UNL     1       2.412   4.611  20.650  0.00  0.00    +0.000 A 
BRANCH   7   8
ATOM      8  C   UNL     1       2.261   6.056  20.268  0.00  0.00    +0.000 A 
ATOM      9  N   UNL     1       2.778   6.539  19.160  0.00  0.00    +0.000 NA
ATOM     10  C   UNL     1       2.268   7.807  18.925  0.00  0.00    +0.000 A 
ATOM     11  C   UNL     1       2.465   8.575  17.762  0.00  0.00    +0.000 A 
ATOM     12  C   UNL     1       1.880   9.843  17.659  0.00  0.00    +0.000 A 
ATOM     13  C   UNL     1       1.117  10.358  18.702  0.00  0.00    +0.000 A 
ATOM     14  C   UNL     1       0.899   9.614  19.865  0.00  0.00    +0.000 A 
ATOM     15  C   UNL     1       1.473   8.335  19.944  0.00  0.00    +0.000 A 
ATOM     16  S   UNL     1       1.334   7.170  21.195  0.00  0.00    +0.000 S 
ENDBRANCH   7   8
ENDBRANCH   1   3
BRANCH   1  18
ATOM     17  O   UNL     1       3.898   1.808  17.499  0.00  0.00    +0.000 OA
ATOM     18  S   UNL     1       3.763   3.253  17.437  0.00  0.00    +0.000 S 
ATOM     19  O   UNL     1       2.519   3.868  17.019  0.00  0.00    +0.000 OA
BRANCH  18  20
ATOM     20  C   UNL     1       5.030   3.868  16.342  0.00  0.00    +0.000 A 
ATOM     21  C   UNL     1       5.874   4.885  16.792  0.00  0.00    +0.000 A 
ATOM     22  C   UNL     1       6.800   5.454  15.917  0.00  0.00    +0.000 A 
ATOM     23  C   UNL     1       6.893   5.022  14.587  0.00  0.00    +0.000 A 
ATOM     24  C   UNL     1       7.829   5.593  13.708  0.00  0.00    +0.000 A 
ATOM     25  C   UNL     1       7.919   5.163  12.384  0.00  0.00    +0.000 A 
ATOM     26  C   UNL     1       7.070   4.164  11.919  0.00  0.00    +0.000 A 
ATOM     27  C   UNL     1       6.127   3.593  12.779  0.00  0.00    +0.000 A 
ATOM     28  C   UNL     1       6.025   4.005  14.120  0.00  0.00    +0.000 A 
ATOM     29  C   UNL     1       5.086   3.443  15.008  0.00  0.00    +0.000 A 
ENDBRANCH  18  20
ENDBRANCH   1  18
TORSDOF 4
ENDMDL
MODEL 8
REMARK VINA RESULT:      -7.8      4.282     10.268
REMARK  Name = 
REMARK  4 active torsions:
REMARK  status: ('A' for Active; 'I' for Inactive)
REMARK    1  A    between atoms: S_2  and  N_4
REMARK    2  A    between atoms: S_2  and  C_19
REMARK    3  A    between atoms: N_4  and  C_5
REMARK    4  A    between atoms: C_9  and  C_10
REMARK                            x       y       z     vdW  Elec       q    Type
REMARK                         _______ _______ _______ _____ _____    ______ ____
ROOT
ATOM      1  N   UNL     1      -0.674  10.667  20.082  0.00  0.00    +0.000 N 
ATOM      2  H   UNL     1      -1.612  10.590  20.494  0.00  0.00    +0.000 HD
ENDROOT
BRANCH   1   3
ATOM      3  C   UNL     1      -0.334  12.035  19.792  0.00  0.00    +0.000 A 
ATOM      4  S   UNL     1       0.934  12.417  18.713  0.00  0.00    +0.000 S 
ATOM      5  C   UNL     1       0.594  14.090  18.802  0.00  0.00    +0.000 A 
ATOM      6  C   UNL     1      -0.460  14.354  19.644  0.00  0.00    +0.000 A 
ATOM      7  C   UNL     1      -0.987  13.166  20.251  0.00  0.00    +0.000 A 
BRANCH   7   8
ATOM      8  C   UNL     1      -2.052  13.178  21.312  0.00  0.00    +0.000 A 
ATOM      9  N   UNL     1      -3.311  13.426  21.028  0.00  0.00    +0.000 NA
ATOM     10  C   UNL     1      -4.103  13.111  22.123  0.00  0.00    +0.000 A 
ATOM     11  C   UNL     1      -5.510  13.096  22.147  0.00  0.00    +0.000 A 
ATOM     12  C   UNL     1      -6.180  12.749  23.327  0.00  0.00    +0.000 A 
ATOM     13  C   UNL     1      -5.468  12.435  24.480  0.00  0.00    +0.000 A 
ATOM     14  C   UNL     1      -4.071  12.436  24.481  0.00  0.00    +0.000 A 
ATOM     15  C   UNL     1      -3.413  12.762  23.284  0.00  0.00    +0.000 A 
ATOM     16  S   UNL     1      -1.730  12.785  22.955  0.00  0.00    +0.000 S 
ENDBRANCH   7   8
ENDBRANCH   1   3
BRANCH   1  18
ATOM     17  O   UNL     1       1.297  10.893  21.772  0.00  0.00    +0.000 OA
ATOM     18  S   UNL     1       0.334   9.938  21.252  0.00  0.00    +0.000 S 
ATOM     19  O   UNL     1      -0.550   9.213  22.142  0.00  0.00    +0.000 OA
BRANCH  18  20
ATOM     20  C   UNL     1       1.238   8.713  20.321  0.00  0.00    +0.000 A 
ATOM     21  C   UNL     1       1.613   9.006  19.009  0.00  0.00    +0.000 A 
ATOM     22  C   UNL     1       2.225   8.025  18.228  0.00  0.00    +0.000 A 
ATOM     23  C   UNL     1       2.466   6.743  18.741  0.00  0.00    +0.000 A 
ATOM     24  C   UNL     1       3.085   5.757  17.956  0.00  0.00    +0.000 A 
ATOM     25  C   UNL     1       3.323   4.481  18.468  0.00  0.00    +0.000 A 
ATOM     26  C   UNL     1       2.936   4.172  19.768  0.00  0.00    +0.000 A 
ATOM     27  C   UNL     1       2.309   5.139  20.559  0.00  0.00    +0.000 A 
ATOM     28  C   UNL     1       2.069   6.435  20.066  0.00  0.00    +0.000 A 
ATOM     29  C   UNL     1       1.443   7.429  20.844  0.00  0.00    +0.000 A 
ENDBRANCH  18  20
ENDBRANCH   1  18
TORSDOF 4
ENDMDL
MODEL 9
REMARK VINA RESULT:      -7.7      3.928     10.133
REMARK  Name = 
REMARK  4 active torsions:
REMARK  status: ('A' for Active; 'I' for Inactive)
REMARK    1  A    between atoms: S_2  and  N_4
REMARK    2  A    between atoms: S_2  and  C_19
REMARK    3  A    between atoms: N_4  and  C_5
REMARK    4  A    between atoms: C_9  and  C_10
REMARK                            x       y       z     vdW  Elec       q    Type
REMARK                         _______ _______ _______ _____ _____    ______ ____
ROOT
ATOM      1  N   UNL     1      -0.273  10.037  19.721  0.00  0.00    +0.000 N 
ATOM      2  H   UNL     1      -1.280   9.918  19.891  0.00  0.00    +0.000 HD
ENDROOT
BRANCH   1   3
ATOM      3  C   UNL     1       0.084  11.426  19.612  0.00  0.00    +0.000 A 
ATOM      4  S   UNL     1       1.525  11.906  18.828  0.00  0.00    +0.000 S 
ATOM      5  C   UNL     1       1.136  13.563  18.984  0.00  0.00    +0.000 A 
ATOM      6  C   UNL     1      -0.064  13.749  19.628  0.00  0.00    +0.000 A 
ATOM      7  C   UNL     1      -0.669  12.511  20.027  0.00  0.00    +0.000 A 
BRANCH   7   8
ATOM      8  C   UNL     1      -1.916  12.428  20.863  0.00  0.00    +0.000 A 
ATOM      9  N   UNL     1      -1.878  12.106  22.136  0.00  0.00    +0.000 NA
ATOM     10  C   UNL     1      -3.111  12.364  22.716  0.00  0.00    +0.000 A 
ATOM     11  C   UNL     1      -3.409  12.294  24.090  0.00  0.00    +0.000 A 
ATOM     12  C   UNL     1      -4.703  12.591  24.536  0.00  0.00    +0.000 A 
ATOM     13  C   UNL     1      -5.701  12.941  23.633  0.00  0.00    +0.000 A 
ATOM     14  C   UNL     1      -5.431  13.025  22.264  0.00  0.00    +0.000 A 
ATOM     15  C   UNL     1      -4.123  12.747  21.834  0.00  0.00    +0.000 A 
ATOM     16  S   UNL     1      -3.473  12.829  20.250  0.00  0.00    +0.000 S 
ENDBRANCH   7   8
ENDBRANCH   1   3
BRANCH   1  18
ATOM     17  O   UNL     1       1.403  10.110  21.715  0.00  0.00    +0.000 OA
ATOM     18  S   UNL     1       0.450   9.240  21.048  0.00  0.00    +0.000 S 
ATOM     19  O   UNL     1      -0.637   8.624  21.781  0.00  0.00    +0.000 OA
BRANCH  18  20
ATOM     20  C   UNL     1       1.370   7.914  20.288  0.00  0.00    +0.000 A 
ATOM     21  C   UNL     1       1.439   6.682  20.942  0.00  0.00    +0.000 A 
ATOM     22  C   UNL     1       2.241   5.665  20.420  0.00  0.00    +0.000 A 
ATOM     23  C   UNL     1       2.983   5.864  19.248  0.00  0.00    +0.000 A 
ATOM     24  C   UNL     1       3.786   4.839  18.721  0.00  0.00    +0.000 A 
ATOM     25  C   UNL     1       4.525   5.039  17.555  0.00  0.00    +0.000 A 
ATOM     26  C   UNL     1       4.478   6.268  16.906  0.00  0.00    +0.000 A 
ATOM     27  C   UNL     1       3.692   7.302  17.422  0.00  0.00    +0.000 A 
ATOM     28  C   UNL     1       2.931   7.119  18.592  0.00  0.00    +0.000 A 
ATOM     29  C   UNL     1       2.127   8.143  19.132  0.00  0.00    +0.000 A 
ENDBRANCH  18  20
ENDBRANCH   1  18
TORSDOF 4
ENDMDL
