MODEL 1
REMARK VINA RESULT:      -9.1      0.000      0.000
REMARK  Name = 
REMARK  7 active torsions:
REMARK  status: ('A' for Active; 'I' for Inactive)
REMARK    1  A    between atoms: C_2  and  C_3
REMARK    2  A    between atoms: C_12  and  N_13
REMARK    3  A    between atoms: N_13  and  C_14
REMARK    4  A    between atoms: C_19  and  S_20
REMARK    5  A    between atoms: S_20  and  N_23
REMARK    6  A    between atoms: N_23  and  C_24
REMARK    7  A    between atoms: C_24  and  C_25
REMARK                            x       y       z     vdW  Elec       q    Type
REMARK                         _______ _______ _______ _____ _____    ______ ____
ROOT
ATOM      1  C   UNL     1       1.535   8.918  19.765  0.00  0.00    +0.000 A 
ATOM      2  C   UNL     1       2.011   9.572  18.627  0.00  0.00    +0.000 A 
ATOM      3  C   UNL     1       1.609  10.865  18.341  0.00  0.00    +0.000 A 
ATOM      4  C   UNL     1       0.764  11.544  19.217  0.00  0.00    +0.000 A 
ATOM      5  C   UNL     1       0.297  10.970  20.426  0.00  0.00    +0.000 A 
ATOM      6  C   UNL     1      -0.493  11.634  21.417  0.00  0.00    +0.000 A 
ATOM      7  C   UNL     1      -0.883  10.975  22.596  0.00  0.00    +0.000 A 
ATOM      8  C   UNL     1      -0.623   9.626  22.754  0.00  0.00    +0.000 A 
ATOM      9  C   UNL     1       0.119   8.956  21.788  0.00  0.00    +0.000 A 
ATOM     10  C   UNL     1       0.663   9.613  20.662  0.00  0.00    +0.000 A 
ENDROOT
BRANCH   6  11
ATOM     11  S   UNL     1      -1.228  13.254  21.183  0.00  0.00    +0.000 S 
ATOM     12  O   UNL     1      -2.150  13.514  22.270  0.00  0.00    +0.000 OA
ATOM     13  O   UNL     1      -0.148  14.175  20.902  0.00  0.00    +0.000 OA
BRANCH  11  14
ATOM     14  N   UNL     1      -2.091  13.120  19.743  0.00  0.00    +0.000 NA
ATOM     15  H   UNL     1      -1.499  13.157  18.914  0.00  0.00    +0.000 HD
BRANCH  14  16
ATOM     16  C   UNL     1      -3.115  12.074  19.689  0.00  0.00    +0.000 C 
BRANCH  16  17
ATOM     17  C   UNL     1      -3.137  11.385  18.350  0.00  0.00    +0.000 A 
ATOM     18  C   UNL     1      -2.158  10.436  18.030  0.00  0.00    +0.000 A 
ATOM     19  C   UNL     1      -2.181   9.789  16.794  0.00  0.00    +0.000 A 
ATOM     20  C   UNL     1      -3.177  10.091  15.868  0.00  0.00    +0.000 A 
ATOM     21  C   UNL     1      -4.158  11.032  16.180  0.00  0.00    +0.000 A 
ATOM     22  C   UNL     1      -4.139  11.678  17.414  0.00  0.00    +0.000 A 
ENDBRANCH  16  17
ENDBRANCH  14  16
ENDBRANCH  11  14
ENDBRANCH   6  11
BRANCH   1  23
ATOM     23  N   UNL     1       2.032   7.651  20.144  0.00  0.00    +0.000 N 
ATOM     24  H   UNL     1       3.043   7.752  20.255  0.00  0.00    +0.000 HD
BRANCH  23  30
ATOM     25  O   UNL     1       5.662   3.470  19.037  0.00  0.00    +0.000 OA
ATOM     26  C   UNL     1       5.218   4.364  18.317  0.00  0.00    +0.000 C 
ATOM     27  N   UNL     1       4.290   5.302  18.765  0.00  0.00    +0.000 N 
ATOM     28  C   UNL     1       3.746   5.159  20.115  0.00  0.00    +0.000 C 
ATOM     29  C   UNL     1       2.222   5.168  20.057  0.00  0.00    +0.000 C 
ATOM     30  C   UNL     1       1.700   6.441  19.373  0.00  0.00    +0.000 C 
ATOM     31  C   UNL     1       2.351   6.568  17.977  0.00  0.00    +0.000 C 
ATOM     32  C   UNL     1       3.876   6.535  18.089  0.00  0.00    +0.000 C 
BRANCH  26  33
ATOM     33  C   UNL     1       5.715   4.415  16.919  0.00  0.00    +0.000 A 
ATOM     34  C   UNL     1       4.912   4.049  15.832  0.00  0.00    +0.000 A 
ATOM     35  C   UNL     1       5.389   4.189  14.530  0.00  0.00    +0.000 A 
ATOM     36  C   UNL     1       6.700   4.611  14.312  0.00  0.00    +0.000 A 
ATOM     37  C   UNL     1       7.538   4.882  15.395  0.00  0.00    +0.000 A 
ATOM     38  C   UNL     1       7.046   4.788  16.698  0.00  0.00    +0.000 A 
ENDBRANCH  26  33
ENDBRANCH  23  30
ENDBRANCH   1  23
TORSDOF 7
ENDMDL
MODEL 2
REMARK VINA RESULT:      -9.0      2.947     10.198
REMARK  Name = 
REMARK  7 active torsions:
REMARK  status: ('A' for Active; 'I' for Inactive)
REMARK    1  A    between atoms: C_2  and  C_3
REMARK    2  A    between atoms: C_12  and  N_13
REMARK    3  A    between atoms: N_13  and  C_14
REMARK    4  A    between atoms: C_19  and  S_20
REMARK    5  A    between atoms: S_20  and  N_23
REMARK    6  A    between atoms: N_23  and  C_24
REMARK    7  A    between atoms: C_24  and  C_25
REMARK                            x       y       z     vdW  Elec       q    Type
REMARK                         _______ _______ _______ _____ _____    ______ ____
ROOT
ATOM      1  C   UNL     1       2.191   8.097  19.016  0.00  0.00    +0.000 A 
ATOM      2  C   UNL     1       2.773   8.508  17.816  0.00  0.00    +0.000 A 
ATOM      3  C   UNL     1       3.517   7.622  17.056  0.00  0.00    +0.000 A 
ATOM      4  C   UNL     1       3.646   6.294  17.459  0.00  0.00    +0.000 A 
ATOM      5  C   UNL     1       3.026   5.787  18.629  0.00  0.00    +0.000 A 
ATOM      6  C   UNL     1       3.034   4.422  19.056  0.00  0.00    +0.000 A 
ATOM      7  C   UNL     1       2.363   4.022  20.225  0.00  0.00    +0.000 A 
ATOM      8  C   UNL     1       1.795   4.971  21.057  0.00  0.00    +0.000 A 
ATOM      9  C   UNL     1       1.801   6.307  20.672  0.00  0.00    +0.000 A 
ATOM     10  C   UNL     1       2.329   6.735  19.433  0.00  0.00    +0.000 A 
ENDROOT
BRANCH   6  11
ATOM     11  S   UNL     1       4.042   3.146  18.295  0.00  0.00    +0.000 S 
ATOM     12  O   UNL     1       3.790   1.886  18.963  0.00  0.00    +0.000 OA
ATOM     13  O   UNL     1       3.867   3.265  16.864  0.00  0.00    +0.000 OA
BRANCH  11  14
ATOM     14  N   UNL     1       5.627   3.627  18.597  0.00  0.00    +0.000 NA
ATOM     15  H   UNL     1       6.149   2.960  19.164  0.00  0.00    +0.000 HD
BRANCH  14  16
ATOM     16  C   UNL     1       6.382   4.146  17.453  0.00  0.00    +0.000 C 
BRANCH  16  17
ATOM     17  C   UNL     1       7.040   5.462  17.771  0.00  0.00    +0.000 A 
ATOM     18  C   UNL     1       7.716   5.637  18.985  0.00  0.00    +0.000 A 
ATOM     19  C   UNL     1       8.335   6.853  19.278  0.00  0.00    +0.000 A 
ATOM     20  C   UNL     1       8.276   7.903  18.365  0.00  0.00    +0.000 A 
ATOM     21  C   UNL     1       7.608   7.736  17.152  0.00  0.00    +0.000 A 
ATOM     22  C   UNL     1       6.991   6.523  16.856  0.00  0.00    +0.000 A 
ENDBRANCH  16  17
ENDBRANCH  14  16
ENDBRANCH  11  14
ENDBRANCH   6  11
BRANCH   1  23
ATOM     23  N   UNL     1       1.323   8.946  19.739  0.00  0.00    +0.000 N 
ATOM     24  H   UNL     1       0.691   8.341  20.266  0.00  0.00    +0.000 HD
BRANCH  23  30
ATOM     25  O   UNL     1      -0.137  13.816  22.194  0.00  0.00    +0.000 OA
ATOM     26  C   UNL     1      -0.809  12.827  21.901  0.00  0.00    +0.000 C 
ATOM     27  N   UNL     1      -0.272  11.713  21.258  0.00  0.00    +0.000 N 
ATOM     28  C   UNL     1       1.124  11.761  20.826  0.00  0.00    +0.000 C 
ATOM     29  C   UNL     1       1.215  11.403  19.346  0.00  0.00    +0.000 C 
ATOM     30  C   UNL     1       0.586  10.030  19.067  0.00  0.00    +0.000 C 
ATOM     31  C   UNL     1      -0.866  10.021  19.595  0.00  0.00    +0.000 C 
ATOM     32  C   UNL     1      -0.903  10.404  21.076  0.00  0.00    +0.000 C 
BRANCH  26  33
ATOM     33  C   UNL     1      -2.249  12.858  22.262  0.00  0.00    +0.000 A 
ATOM     34  C   UNL     1      -2.695  12.580  23.559  0.00  0.00    +0.000 A 
ATOM     35  C   UNL     1      -4.047  12.701  23.876  0.00  0.00    +0.000 A 
ATOM     36  C   UNL     1      -4.969  13.012  22.878  0.00  0.00    +0.000 A 
ATOM     37  C   UNL     1      -4.542  13.193  21.561  0.00  0.00    +0.000 A 
ATOM     38  C   UNL     1      -3.183  13.119  21.253  0.00  0.00    +0.000 A 
ENDBRANCH  26  33
ENDBRANCH  23  30
ENDBRANCH   1  23
TORSDOF 7
ENDMDL
MODEL 3
REMARK VINA RESULT:      -8.9      2.973     10.188
REMARK  Name = 
REMARK  7 active torsions:
REMARK  status: ('A' for Active; 'I' for Inactive)
REMARK    1  A    between atoms: C_2  and  C_3
REMARK    2  A    between atoms: C_12  and  N_13
REMARK    3  A    between atoms: N_13  and  C_14
REMARK    4  A    between atoms: C_19  and  S_20
REMARK    5  A    between atoms: S_20  and  N_23
REMARK    6  A    between atoms: N_23  and  C_24
REMARK    7  A    between atoms: C_24  and  C_25
REMARK                            x       y       z     vdW  Elec       q    Type
REMARK                         _______ _______ _______ _____ _____    ______ ____
ROOT
ATOM      1  C   UNL     1       1.999   7.828  19.841  0.00  0.00    +0.000 A 
ATOM      2  C   UNL     1       2.382   8.491  18.673  0.00  0.00    +0.000 A 
ATOM      3  C   UNL     1       2.932   7.788  17.615  0.00  0.00    +0.000 A 
ATOM      4  C   UNL     1       3.060   6.402  17.688  0.00  0.00    +0.000 A 
ATOM      5  C   UNL     1       2.629   5.654  18.812  0.00  0.00    +0.000 A 
ATOM      6  C   UNL     1       2.641   4.227  18.922  0.00  0.00    +0.000 A 
ATOM      7  C   UNL     1       2.166   3.584  20.078  0.00  0.00    +0.000 A 
ATOM      8  C   UNL     1       1.805   4.329  21.187  0.00  0.00    +0.000 A 
ATOM      9  C   UNL     1       1.814   5.717  21.109  0.00  0.00    +0.000 A 
ATOM     10  C   UNL     1       2.136   6.405  19.918  0.00  0.00    +0.000 A 
ENDROOT
BRANCH   6  11
ATOM     11  S   UNL     1       3.430   3.143  17.730  0.00  0.00    +0.000 S 
ATOM     12  O   UNL     1       3.161   1.767  18.095  0.00  0.00    +0.000 OA
ATOM     13  O   UNL     1       3.082   3.634  16.414  0.00  0.00    +0.000 OA
BRANCH  11  14
ATOM     14  N   UNL     1       5.076   3.452  17.905  0.00  0.00    +0.000 NA
ATOM     15  H   UNL     1       5.614   2.628  18.169  0.00  0.00    +0.000 HD
BRANCH  14  16
ATOM     16  C   UNL     1       5.706   4.254  16.853  0.00  0.00    +0.000 C 
BRANCH  16  17
ATOM     17  C   UNL     1       6.552   5.359  17.427  0.00  0.00    +0.000 A 
ATOM     18  C   UNL     1       7.307   5.139  18.586  0.00  0.00    +0.000 A 
ATOM     19  C   UNL     1       8.100   6.157  19.115  0.00  0.00    +0.000 A 
ATOM     20  C   UNL     1       8.139   7.404  18.495  0.00  0.00    +0.000 A 
ATOM     21  C   UNL     1       7.394   7.631  17.337  0.00  0.00    +0.000 A 
ATOM     22  C   UNL     1       6.603   6.615  16.806  0.00  0.00    +0.000 A 
ENDBRANCH  16  17
ENDBRANCH  14  16
ENDBRANCH  11  14
ENDBRANCH   6  11
BRANCH   1  23
ATOM     23  N   UNL     1       1.319   8.504  20.878  0.00  0.00    +0.000 N 
ATOM     24  H   UNL     1       1.619   8.076  21.756  0.00  0.00    +0.000 HD
BRANCH  23  30
ATOM     25  O   UNL     1      -1.301  13.457  20.180  0.00  0.00    +0.000 OA
ATOM     26  C   UNL     1      -1.147  12.760  21.183  0.00  0.00    +0.000 C 
ATOM     27  N   UNL     1      -0.490  11.531  21.155  0.00  0.00    +0.000 N 
ATOM     28  C   UNL     1      -0.051  11.002  19.864  0.00  0.00    +0.000 C 
ATOM     29  C   UNL     1      -0.582   9.584  19.685  0.00  0.00    +0.000 C 
ATOM     30  C   UNL     1      -0.144   8.676  20.843  0.00  0.00    +0.000 C 
ATOM     31  C   UNL     1      -0.584   9.313  22.180  0.00  0.00    +0.000 C 
ATOM     32  C   UNL     1      -0.042  10.737  22.302  0.00  0.00    +0.000 C 
BRANCH  26  33
ATOM     33  C   UNL     1      -1.700  13.282  22.459  0.00  0.00    +0.000 A 
ATOM     34  C   UNL     1      -1.006  14.210  23.244  0.00  0.00    +0.000 A 
ATOM     35  C   UNL     1      -1.595  14.736  24.392  0.00  0.00    +0.000 A 
ATOM     36  C   UNL     1      -2.842  14.271  24.808  0.00  0.00    +0.000 A 
ATOM     37  C   UNL     1      -3.494  13.272  24.084  0.00  0.00    +0.000 A 
ATOM     38  C   UNL     1      -2.927  12.779  22.908  0.00  0.00    +0.000 A 
ENDBRANCH  26  33
ENDBRANCH  23  30
ENDBRANCH   1  23
TORSDOF 7
ENDMDL
MODEL 4
REMARK VINA RESULT:      -8.8      3.258     10.142
REMARK  Name = 
REMARK  7 active torsions:
REMARK  status: ('A' for Active; 'I' for Inactive)
REMARK    1  A    between atoms: C_2  and  C_3
REMARK    2  A    between atoms: C_12  and  N_13
REMARK    3  A    between atoms: N_13  and  C_14
REMARK    4  A    between atoms: C_19  and  S_20
REMARK    5  A    between atoms: S_20  and  N_23
REMARK    6  A    between atoms: N_23  and  C_24
REMARK    7  A    between atoms: C_24  and  C_25
REMARK                            x       y       z     vdW  Elec       q    Type
REMARK                         _______ _______ _______ _____ _____    ______ ____
ROOT
ATOM      1  C   UNL     1       1.895   7.823  19.571  0.00  0.00    +0.000 A 
ATOM      2  C   UNL     1       2.449   8.473  18.467  0.00  0.00    +0.000 A 
ATOM      3  C   UNL     1       3.235   7.777  17.564  0.00  0.00    +0.000 A 
ATOM      4  C   UNL     1       3.437   6.408  17.724  0.00  0.00    +0.000 A 
ATOM      5  C   UNL     1       2.850   5.668  18.781  0.00  0.00    +0.000 A 
ATOM      6  C   UNL     1       2.934   4.250  18.957  0.00  0.00    +0.000 A 
ATOM      7  C   UNL     1       2.290   3.613  20.032  0.00  0.00    +0.000 A 
ATOM      8  C   UNL     1       1.677   4.366  21.018  0.00  0.00    +0.000 A 
ATOM      9  C   UNL     1       1.610   5.748  20.878  0.00  0.00    +0.000 A 
ATOM     10  C   UNL     1       2.108   6.417  19.739  0.00  0.00    +0.000 A 
ENDROOT
BRANCH   6  11
ATOM     11  S   UNL     1       4.005   3.187  17.986  0.00  0.00    +0.000 S 
ATOM     12  O   UNL     1       3.798   1.813  18.393  0.00  0.00    +0.000 OA
ATOM     13  O   UNL     1       3.843   3.574  16.601  0.00  0.00    +0.000 OA
BRANCH  11  14
ATOM     14  N   UNL     1       5.564   3.663  18.407  0.00  0.00    +0.000 NA
ATOM     15  H   UNL     1       6.040   2.993  19.010  0.00  0.00    +0.000 HD
BRANCH  14  16
ATOM     16  C   UNL     1       6.405   4.181  17.324  0.00  0.00    +0.000 C 
BRANCH  16  17
ATOM     17  C   UNL     1       7.044   5.493  17.695  0.00  0.00    +0.000 A 
ATOM     18  C   UNL     1       6.913   6.604  16.854  0.00  0.00    +0.000 A 
ATOM     19  C   UNL     1       7.495   7.824  17.199  0.00  0.00    +0.000 A 
ATOM     20  C   UNL     1       8.219   7.938  18.384  0.00  0.00    +0.000 A 
ATOM     21  C   UNL     1       8.353   6.838  19.231  0.00  0.00    +0.000 A 
ATOM     22  C   UNL     1       7.770   5.620  18.888  0.00  0.00    +0.000 A 
ENDBRANCH  16  17
ENDBRANCH  14  16
ENDBRANCH  11  14
ENDBRANCH   6  11
BRANCH   1  23
ATOM     23  N   UNL     1       0.987   8.481  20.430  0.00  0.00    +0.000 N 
ATOM     24  H   UNL     1       0.229   8.834  19.842  0.00  0.00    +0.000 HD
BRANCH  23  30
ATOM     25  O   UNL     1      -2.428  11.546  23.720  0.00  0.00    +0.000 OA
ATOM     26  C   UNL     1      -1.811  11.845  22.698  0.00  0.00    +0.000 C 
ATOM     27  N   UNL     1      -0.978  10.950  22.030  0.00  0.00    +0.000 N 
ATOM     28  C   UNL     1      -0.750   9.632  22.622  0.00  0.00    +0.000 C 
ATOM     29  C   UNL     1       0.749   9.377  22.742  0.00  0.00    +0.000 C 
ATOM     30  C   UNL     1       1.446   9.509  21.379  0.00  0.00    +0.000 C 
ATOM     31  C   UNL     1       1.123  10.896  20.779  0.00  0.00    +0.000 C 
ATOM     32  C   UNL     1      -0.389  11.109  20.698  0.00  0.00    +0.000 C 
BRANCH  26  33
ATOM     33  C   UNL     1      -1.985  13.227  22.184  0.00  0.00    +0.000 A 
ATOM     34  C   UNL     1      -1.056  14.240  22.447  0.00  0.00    +0.000 A 
ATOM     35  C   UNL     1      -1.214  15.502  21.878  0.00  0.00    +0.000 A 
ATOM     36  C   UNL     1      -2.347  15.783  21.117  0.00  0.00    +0.000 A 
ATOM     37  C   UNL     1      -3.328  14.807  20.934  0.00  0.00    +0.000 A 
ATOM     38  C   UNL     1      -3.147  13.529  21.464  0.00  0.00    +0.000 A 
ENDBRANCH  26  33
ENDBRANCH  23  30
ENDBRANCH   1  23
TORSDOF 7
ENDMDL
MODEL 5
REMARK VINA RESULT:      -8.7      3.130     10.086
REMARK  Name = 
REMARK  7 active torsions:
REMARK  status: ('A' for Active; 'I' for Inactive)
REMARK    1  A    between atoms: C_2  and  C_3
REMARK    2  A    between atoms: C_12  and  N_13
REMARK    3  A    between atoms: N_13  and  C_14
REMARK    4  A    between atoms: C_19  and  S_20
REMARK    5  A    between atoms: S_20  and  N_23
REMARK    6  A    between atoms: N_23  and  C_24
REMARK    7  A    between atoms: C_24  and  C_25
REMARK                            x       y       z     vdW  Elec       q    Type
REMARK                         _______ _______ _______ _____ _____    ______ ____
ROOT
ATOM      1  C   UNL     1       1.942   7.638  20.026  0.00  0.00    +0.000 A 
ATOM      2  C   UNL     1       2.184   8.317  18.830  0.00  0.00    +0.000 A 
ATOM      3  C   UNL     1       2.630   7.633  17.712  0.00  0.00    +0.000 A 
ATOM      4  C   UNL     1       2.792   6.249  17.759  0.00  0.00    +0.000 A 
ATOM      5  C   UNL     1       2.500   5.485  18.916  0.00  0.00    +0.000 A 
ATOM      6  C   UNL     1       2.551   4.058  19.011  0.00  0.00    +0.000 A 
ATOM      7  C   UNL     1       2.216   3.397  20.206  0.00  0.00    +0.000 A 
ATOM      8  C   UNL     1       1.963   4.127  21.354  0.00  0.00    +0.000 A 
ATOM      9  C   UNL     1       1.936   5.516  21.288  0.00  0.00    +0.000 A 
ATOM     10  C   UNL     1       2.114   6.219  20.075  0.00  0.00    +0.000 A 
ENDROOT
BRANCH   6  11
ATOM     11  S   UNL     1       3.228   2.998  17.732  0.00  0.00    +0.000 S 
ATOM     12  O   UNL     1       3.378   1.658  18.261  0.00  0.00    +0.000 OA
ATOM     13  O   UNL     1       2.451   3.230  16.534  0.00  0.00    +0.000 OA
BRANCH  11  14
ATOM     14  N   UNL     1       4.750   3.643  17.413  0.00  0.00    +0.000 NA
ATOM     15  H   UNL     1       4.743   4.344  16.673  0.00  0.00    +0.000 HD
BRANCH  14  16
ATOM     16  C   UNL     1       5.556   4.023  18.576  0.00  0.00    +0.000 C 
BRANCH  16  17
ATOM     17  C   UNL     1       6.360   5.269  18.312  0.00  0.00    +0.000 A 
ATOM     18  C   UNL     1       6.031   6.106  17.239  0.00  0.00    +0.000 A 
ATOM     19  C   UNL     1       6.768   7.266  16.999  0.00  0.00    +0.000 A 
ATOM     20  C   UNL     1       7.841   7.593  17.824  0.00  0.00    +0.000 A 
ATOM     21  C   UNL     1       8.174   6.767  18.897  0.00  0.00    +0.000 A 
ATOM     22  C   UNL     1       7.439   5.609  19.140  0.00  0.00    +0.000 A 
ENDBRANCH  16  17
ENDBRANCH  14  16
ENDBRANCH  11  14
ENDBRANCH   6  11
BRANCH   1  23
ATOM     23  N   UNL     1       1.364   8.294  21.136  0.00  0.00    +0.000 N 
ATOM     24  H   UNL     1       1.802   7.899  21.972  0.00  0.00    +0.000 HD
BRANCH  23  30
ATOM     25  O   UNL     1      -1.694  12.913  20.046  0.00  0.00    +0.000 OA
ATOM     26  C   UNL     1      -1.351  12.406  21.114  0.00  0.00    +0.000 C 
ATOM     27  N   UNL     1      -0.612  11.227  21.187  0.00  0.00    +0.000 N 
ATOM     28  C   UNL     1      -0.318  10.508  19.948  0.00  0.00    +0.000 C 
ATOM     29  C   UNL     1      -0.760   9.055  20.081  0.00  0.00    +0.000 C 
ATOM     30  C   UNL     1      -0.097   8.381  21.292  0.00  0.00    +0.000 C 
ATOM     31  C   UNL     1      -0.396   9.213  22.559  0.00  0.00    +0.000 C 
ATOM     32  C   UNL     1       0.048  10.664  22.367  0.00  0.00    +0.000 C 
BRANCH  26  33
ATOM     33  C   UNL     1      -1.760  13.109  22.357  0.00  0.00    +0.000 A 
ATOM     34  C   UNL     1      -2.969  12.829  23.004  0.00  0.00    +0.000 A 
ATOM     35  C   UNL     1      -3.276  13.451  24.212  0.00  0.00    +0.000 A 
ATOM     36  C   UNL     1      -2.420  14.420  24.733  0.00  0.00    +0.000 A 
ATOM     37  C   UNL     1      -1.262  14.776  24.040  0.00  0.00    +0.000 A 
ATOM     38  C   UNL     1      -0.929  14.120  22.854  0.00  0.00    +0.000 A 
ENDBRANCH  26  33
ENDBRANCH  23  30
ENDBRANCH   1  23
TORSDOF 7
ENDMDL
MODEL 6
REMARK VINA RESULT:      -8.7      0.573      1.240
REMARK  Name = 
REMARK  7 active torsions:
REMARK  status: ('A' for Active; 'I' for Inactive)
REMARK    1  A    between atoms: C_2  and  C_3
REMARK    2  A    between atoms: C_12  and  N_13
REMARK    3  A    between atoms: N_13  and  C_14
REMARK    4  A    between atoms: C_19  and  S_20
REMARK    5  A    between atoms: S_20  and  N_23
REMARK    6  A    between atoms: N_23  and  C_24
REMARK    7  A    between atoms: C_24  and  C_25
REMARK                            x       y       z     vdW  Elec       q    Type
REMARK                         _______ _______ _______ _____ _____    ______ ____
ROOT
ATOM      1  C   UNL     1       1.433   8.936  19.949  0.00  0.00    +0.000 A 
ATOM      2  C   UNL     1       1.814   9.693  18.839  0.00  0.00    +0.000 A 
ATOM      3  C   UNL     1       1.366  10.994  18.690  0.00  0.00    +0.000 A 
ATOM      4  C   UNL     1       0.573  11.578  19.676  0.00  0.00    +0.000 A 
ATOM      5  C   UNL     1       0.204  10.895  20.862  0.00  0.00    +0.000 A 
ATOM      6  C   UNL     1      -0.526  11.455  21.958  0.00  0.00    +0.000 A 
ATOM      7  C   UNL     1      -0.818  10.692  23.102  0.00  0.00    +0.000 A 
ATOM      8  C   UNL     1      -0.521   9.341  23.128  0.00  0.00    +0.000 A 
ATOM      9  C   UNL     1       0.164   8.772  22.060  0.00  0.00    +0.000 A 
ATOM     10  C   UNL     1       0.613   9.533  20.958  0.00  0.00    +0.000 A 
ENDROOT
BRANCH   6  11
ATOM     11  S   UNL     1      -1.309  13.069  21.911  0.00  0.00    +0.000 S 
ATOM     12  O   UNL     1      -2.367  13.107  22.899  0.00  0.00    +0.000 OA
ATOM     13  O   UNL     1      -0.251  14.055  21.933  0.00  0.00    +0.000 OA
BRANCH  11  14
ATOM     14  N   UNL     1      -1.983  13.165  20.371  0.00  0.00    +0.000 NA
ATOM     15  H   UNL     1      -1.329  12.916  19.630  0.00  0.00    +0.000 HD
BRANCH  14  16
ATOM     16  C   UNL     1      -3.315  12.580  20.202  0.00  0.00    +0.000 C 
BRANCH  16  17
ATOM     17  C   UNL     1      -3.489  11.976  18.834  0.00  0.00    +0.000 A 
ATOM     18  C   UNL     1      -4.771  11.737  18.326  0.00  0.00    +0.000 A 
ATOM     19  C   UNL     1      -4.935  11.188  17.054  0.00  0.00    +0.000 A 
ATOM     20  C   UNL     1      -3.819  10.866  16.285  0.00  0.00    +0.000 A 
ATOM     21  C   UNL     1      -2.537  11.104  16.781  0.00  0.00    +0.000 A 
ATOM     22  C   UNL     1      -2.371  11.655  18.050  0.00  0.00    +0.000 A 
ENDBRANCH  16  17
ENDBRANCH  14  16
ENDBRANCH  11  14
ENDBRANCH   6  11
BRANCH   1  23
ATOM     23  N   UNL     1       1.981   7.656  20.185  0.00  0.00    +0.000 N 
ATOM     24  H   UNL     1       2.993   7.777  20.259  0.00  0.00    +0.000 HD
BRANCH  23  30
ATOM     25  O   UNL     1       5.478   3.371  19.046  0.00  0.00    +0.000 OA
ATOM     26  C   UNL     1       5.124   4.328  18.357  0.00  0.00    +0.000 C 
ATOM     27  N   UNL     1       4.212   5.283  18.804  0.00  0.00    +0.000 N 
ATOM     28  C   UNL     1       3.576   5.087  20.106  0.00  0.00    +0.000 C 
ATOM     29  C   UNL     1       2.061   5.176  19.955  0.00  0.00    +0.000 C 
ATOM     30  C   UNL     1       1.644   6.512  19.321  0.00  0.00    +0.000 C 
ATOM     31  C   UNL     1       2.389   6.689  17.979  0.00  0.00    +0.000 C 
ATOM     32  C   UNL     1       3.900   6.572  18.182  0.00  0.00    +0.000 C 
BRANCH  26  33
ATOM     33  C   UNL     1       5.712   4.436  16.998  0.00  0.00    +0.000 A 
ATOM     34  C   UNL     1       7.003   4.932  16.785  0.00  0.00    +0.000 A 
ATOM     35  C   UNL     1       7.548   4.940  15.503  0.00  0.00    +0.000 A 
ATOM     36  C   UNL     1       6.773   4.537  14.416  0.00  0.00    +0.000 A 
ATOM     37  C   UNL     1       5.450   4.137  14.610  0.00  0.00    +0.000 A 
ATOM     38  C   UNL     1       4.919   4.082  15.899  0.00  0.00    +0.000 A 
ENDBRANCH  26  33
ENDBRANCH  23  30
ENDBRANCH   1  23
TORSDOF 7
ENDMDL
MODEL 7
REMARK VINA RESULT:      -8.5      1.876      3.187
REMARK  Name = 
REMARK  7 active torsions:
REMARK  status: ('A' for Active; 'I' for Inactive)
REMARK    1  A    between atoms: C_2  and  C_3
REMARK    2  A    between atoms: C_12  and  N_13
REMARK    3  A    between atoms: N_13  and  C_14
REMARK    4  A    between atoms: C_19  and  S_20
REMARK    5  A    between atoms: S_20  and  N_23
REMARK    6  A    between atoms: N_23  and  C_24
REMARK    7  A    between atoms: C_24  and  C_25
REMARK                            x       y       z     vdW  Elec       q    Type
REMARK                         _______ _______ _______ _____ _____    ______ ____
ROOT
ATOM      1  C   UNL     1       1.147   9.094  19.620  0.00  0.00    +0.000 A 
ATOM      2  C   UNL     1       1.129   9.845  18.443  0.00  0.00    +0.000 A 
ATOM      3  C   UNL     1       0.366  10.997  18.357  0.00  0.00    +0.000 A 
ATOM      4  C   UNL     1      -0.349  11.446  19.465  0.00  0.00    +0.000 A 
ATOM      5  C   UNL     1      -0.323  10.775  20.713  0.00  0.00    +0.000 A 
ATOM      6  C   UNL     1      -0.952  11.223  21.918  0.00  0.00    +0.000 A 
ATOM      7  C   UNL     1      -0.841  10.490  23.112  0.00  0.00    +0.000 A 
ATOM      8  C   UNL     1      -0.233   9.247  23.107  0.00  0.00    +0.000 A 
ATOM      9  C   UNL     1       0.361   8.781  21.939  0.00  0.00    +0.000 A 
ATOM     10  C   UNL     1       0.408   9.552  20.756  0.00  0.00    +0.000 A 
ENDROOT
BRANCH   6  11
ATOM     11  S   UNL     1      -2.090  12.609  21.991  0.00  0.00    +0.000 S 
ATOM     12  O   UNL     1      -2.591  12.878  20.659  0.00  0.00    +0.000 OA
ATOM     13  O   UNL     1      -3.006  12.349  23.080  0.00  0.00    +0.000 OA
BRANCH  11  14
ATOM     14  N   UNL     1      -1.142  13.905  22.499  0.00  0.00    +0.000 NA
ATOM     15  H   UNL     1      -0.334  13.620  23.051  0.00  0.00    +0.000 HD
BRANCH  14  16
ATOM     16  C   UNL     1      -0.838  14.927  21.494  0.00  0.00    +0.000 C 
BRANCH  16  17
ATOM     17  C   UNL     1       0.415  14.597  20.727  0.00  0.00    +0.000 A 
ATOM     18  C   UNL     1       0.523  14.937  19.373  0.00  0.00    +0.000 A 
ATOM     19  C   UNL     1       1.686  14.641  18.662  0.00  0.00    +0.000 A 
ATOM     20  C   UNL     1       2.746  13.998  19.297  0.00  0.00    +0.000 A 
ATOM     21  C   UNL     1       2.650  13.659  20.647  0.00  0.00    +0.000 A 
ATOM     22  C   UNL     1       1.490  13.955  21.359  0.00  0.00    +0.000 A 
ENDBRANCH  16  17
ENDBRANCH  14  16
ENDBRANCH  11  14
ENDBRANCH   6  11
BRANCH   1  23
ATOM     23  N   UNL     1       2.016   7.991  19.772  0.00  0.00    +0.000 N 
ATOM     24  H   UNL     1       2.956   8.322  19.543  0.00  0.00    +0.000 HD
BRANCH  23  30
ATOM     25  O   UNL     1       5.829   3.903  18.975  0.00  0.00    +0.000 OA
ATOM     26  C   UNL     1       5.332   4.707  18.187  0.00  0.00    +0.000 C 
ATOM     27  N   UNL     1       4.365   5.637  18.566  0.00  0.00    +0.000 N 
ATOM     28  C   UNL     1       3.849   5.590  19.933  0.00  0.00    +0.000 C 
ATOM     29  C   UNL     1       2.325   5.523  19.903  0.00  0.00    +0.000 C 
ATOM     30  C   UNL     1       1.732   6.703  19.118  0.00  0.00    +0.000 C 
ATOM     31  C   UNL     1       2.356   6.734  17.705  0.00  0.00    +0.000 C 
ATOM     32  C   UNL     1       3.882   6.783  17.791  0.00  0.00    +0.000 C 
BRANCH  26  33
ATOM     33  C   UNL     1       5.806   4.655  16.780  0.00  0.00    +0.000 A 
ATOM     34  C   UNL     1       7.024   5.220  16.386  0.00  0.00    +0.000 A 
ATOM     35  C   UNL     1       7.470   5.077  15.073  0.00  0.00    +0.000 A 
ATOM     36  C   UNL     1       6.660   4.448  14.129  0.00  0.00    +0.000 A 
ATOM     37  C   UNL     1       5.400   3.971  14.494  0.00  0.00    +0.000 A 
ATOM     38  C   UNL     1       4.973   4.071  15.819  0.00  0.00    +0.000 A 
ENDBRANCH  26  33
ENDBRANCH  23  30
ENDBRANCH   1  23
TORSDOF 7
ENDMDL
MODEL 8
REMARK VINA RESULT:      -8.4      3.671      9.069
REMARK  Name = 
REMARK  7 active torsions:
REMARK  status: ('A' for Active; 'I' for Inactive)
REMARK    1  A    between atoms: C_2  and  C_3
REMARK    2  A    between atoms: C_12  and  N_13
REMARK    3  A    between atoms: N_13  and  C_14
REMARK    4  A    between atoms: C_19  and  S_20
REMARK    5  A    between atoms: S_20  and  N_23
REMARK    6  A    between atoms: N_23  and  C_24
REMARK    7  A    between atoms: C_24  and  C_25
REMARK                            x       y       z     vdW  Elec       q    Type
REMARK                         _______ _______ _______ _____ _____    ______ ____
ROOT
ATOM      1  C   UNL     1       0.159  10.639  20.464  0.00  0.00    +0.000 A 
ATOM      2  C   UNL     1      -0.255  10.281  21.749  0.00  0.00    +0.000 A 
ATOM      3  C   UNL     1       0.000   9.013  22.241  0.00  0.00    +0.000 A 
ATOM      4  C   UNL     1       0.722   8.099  21.475  0.00  0.00    +0.000 A 
ATOM      5  C   UNL     1       1.234   8.414  20.192  0.00  0.00    +0.000 A 
ATOM      6  C   UNL     1       2.059   7.565  19.389  0.00  0.00    +0.000 A 
ATOM      7  C   UNL     1       2.535   7.989  18.135  0.00  0.00    +0.000 A 
ATOM      8  C   UNL     1       2.097   9.186  17.597  0.00  0.00    +0.000 A 
ATOM      9  C   UNL     1       1.272  10.013  18.351  0.00  0.00    +0.000 A 
ATOM     10  C   UNL     1       0.894   9.698  19.675  0.00  0.00    +0.000 A 
ENDROOT
BRANCH   6  11
ATOM     11  S   UNL     1       2.395   5.846  19.777  0.00  0.00    +0.000 S 
ATOM     12  O   UNL     1       1.940   5.570  21.124  0.00  0.00    +0.000 OA
ATOM     13  O   UNL     1       1.913   5.057  18.664  0.00  0.00    +0.000 OA
BRANCH  11  14
ATOM     14  N   UNL     1       4.074   5.723  19.722  0.00  0.00    +0.000 NA
ATOM     15  H   UNL     1       4.527   6.019  20.585  0.00  0.00    +0.000 HD
BRANCH  14  16
ATOM     16  C   UNL     1       4.621   4.483  19.165  0.00  0.00    +0.000 C 
BRANCH  16  17
ATOM     17  C   UNL     1       5.268   4.713  17.825  0.00  0.00    +0.000 A 
ATOM     18  C   UNL     1       4.765   4.082  16.681  0.00  0.00    +0.000 A 
ATOM     19  C   UNL     1       5.356   4.300  15.437  0.00  0.00    +0.000 A 
ATOM     20  C   UNL     1       6.458   5.145  15.329  0.00  0.00    +0.000 A 
ATOM     21  C   UNL     1       6.965   5.782  16.462  0.00  0.00    +0.000 A 
ATOM     22  C   UNL     1       6.374   5.566  17.705  0.00  0.00    +0.000 A 
ENDBRANCH  16  17
ENDBRANCH  14  16
ENDBRANCH  11  14
ENDBRANCH   6  11
BRANCH   1  23
ATOM     23  N   UNL     1       0.023  11.964  19.993  0.00  0.00    +0.000 N 
ATOM     24  H   UNL     1       0.426  11.986  19.054  0.00  0.00    +0.000 HD
BRANCH  23  30
ATOM     25  O   UNL     1       2.374  16.631  17.853  0.00  0.00    +0.000 OA
ATOM     26  C   UNL     1       2.873  15.677  18.450  0.00  0.00    +0.000 C 
ATOM     27  N   UNL     1       2.117  14.614  18.941  0.00  0.00    +0.000 N 
ATOM     28  C   UNL     1       0.660  14.682  18.828  0.00  0.00    +0.000 C 
ATOM     29  C   UNL     1       0.029  14.447  20.197  0.00  0.00    +0.000 C 
ATOM     30  C   UNL     1       0.486  13.109  20.797  0.00  0.00    +0.000 C 
ATOM     31  C   UNL     1       2.030  13.073  20.838  0.00  0.00    +0.000 C 
ATOM     32  C   UNL     1       2.612  13.332  19.447  0.00  0.00    +0.000 C 
BRANCH  26  33
ATOM     33  C   UNL     1       4.346  15.695  18.638  0.00  0.00    +0.000 A 
ATOM     34  C   UNL     1       4.955  16.433  19.659  0.00  0.00    +0.000 A 
ATOM     35  C   UNL     1       6.333  16.357  19.853  0.00  0.00    +0.000 A 
ATOM     36  C   UNL     1       7.118  15.614  18.973  0.00  0.00    +0.000 A 
ATOM     37  C   UNL     1       6.527  14.956  17.893  0.00  0.00    +0.000 A 
ATOM     38  C   UNL     1       5.142  14.992  17.726  0.00  0.00    +0.000 A 
ENDBRANCH  26  33
ENDBRANCH  23  30
ENDBRANCH   1  23
TORSDOF 7
ENDMDL
MODEL 9
REMARK VINA RESULT:      -8.4      1.620      3.395
REMARK  Name = 
REMARK  7 active torsions:
REMARK  status: ('A' for Active; 'I' for Inactive)
REMARK    1  A    between atoms: C_2  and  C_3
REMARK    2  A    between atoms: C_12  and  N_13
REMARK    3  A    between atoms: N_13  and  C_14
REMARK    4  A    between atoms: C_19  and  S_20
REMARK    5  A    between atoms: S_20  and  N_23
REMARK    6  A    between atoms: N_23  and  C_24
REMARK    7  A    between atoms: C_24  and  C_25
REMARK                            x       y       z     vdW  Elec       q    Type
REMARK                         _______ _______ _______ _____ _____    ______ ____
ROOT
ATOM      1  C   UNL     1       1.184   8.971  21.109  0.00  0.00    +0.000 A 
ATOM      2  C   UNL     1       0.926   8.919  22.481  0.00  0.00    +0.000 A 
ATOM      3  C   UNL     1      -0.057   9.716  23.041  0.00  0.00    +0.000 A 
ATOM      4  C   UNL     1      -0.835  10.541  22.229  0.00  0.00    +0.000 A 
ATOM      5  C   UNL     1      -0.678  10.594  20.822  0.00  0.00    +0.000 A 
ATOM      6  C   UNL     1      -1.495  11.341  19.916  0.00  0.00    +0.000 A 
ATOM      7  C   UNL     1      -1.265  11.304  18.530  0.00  0.00    +0.000 A 
ATOM      8  C   UNL     1      -0.154  10.649  18.029  0.00  0.00    +0.000 A 
ATOM      9  C   UNL     1       0.669   9.939  18.897  0.00  0.00    +0.000 A 
ATOM     10  C   UNL     1       0.390   9.822  20.277  0.00  0.00    +0.000 A 
ENDROOT
BRANCH   6  11
ATOM     11  S   UNL     1      -2.728  12.535  20.441  0.00  0.00    +0.000 S 
ATOM     12  O   UNL     1      -3.972  12.261  19.751  0.00  0.00    +0.000 OA
ATOM     13  O   UNL     1      -2.687  12.581  21.886  0.00  0.00    +0.000 OA
BRANCH  11  14
ATOM     14  N   UNL     1      -2.122  14.019  19.925  0.00  0.00    +0.000 NA
ATOM     15  H   UNL     1      -2.851  14.684  19.669  0.00  0.00    +0.000 HD
BRANCH  14  16
ATOM     16  C   UNL     1      -1.050  14.604  20.734  0.00  0.00    +0.000 C 
BRANCH  16  17
ATOM     17  C   UNL     1       0.311  14.208  20.225  0.00  0.00    +0.000 A 
ATOM     18  C   UNL     1       0.606  14.299  18.859  0.00  0.00    +0.000 A 
ATOM     19  C   UNL     1       1.869  13.942  18.386  0.00  0.00    +0.000 A 
ATOM     20  C   UNL     1       2.841  13.485  19.272  0.00  0.00    +0.000 A 
ATOM     21  C   UNL     1       2.558  13.394  20.634  0.00  0.00    +0.000 A 
ATOM     22  C   UNL     1       1.298  13.752  21.110  0.00  0.00    +0.000 A 
ENDBRANCH  16  17
ENDBRANCH  14  16
ENDBRANCH  11  14
ENDBRANCH   6  11
BRANCH   1  23
ATOM     23  N   UNL     1       2.090   8.075  20.500  0.00  0.00    +0.000 N 
ATOM     24  H   UNL     1       2.809   8.644  20.049  0.00  0.00    +0.000 HD
BRANCH  23  30
ATOM     25  O   UNL     1       4.926   3.312  19.426  0.00  0.00    +0.000 OA
ATOM     26  C   UNL     1       4.754   4.320  18.741  0.00  0.00    +0.000 C 
ATOM     27  N   UNL     1       3.983   5.400  19.168  0.00  0.00    +0.000 N 
ATOM     28  C   UNL     1       3.270   5.291  20.440  0.00  0.00    +0.000 C 
ATOM     29  C   UNL     1       1.795   5.616  20.230  0.00  0.00    +0.000 C 
ATOM     30  C   UNL     1       1.617   7.007  19.603  0.00  0.00    +0.000 C 
ATOM     31  C   UNL     1       2.436   7.081  18.295  0.00  0.00    +0.000 C 
ATOM     32  C   UNL     1       3.901   6.729  18.557  0.00  0.00    +0.000 C 
BRANCH  26  33
ATOM     33  C   UNL     1       5.408   4.351  17.409  0.00  0.00    +0.000 A 
ATOM     34  C   UNL     1       4.706   4.076  16.230  0.00  0.00    +0.000 A 
ATOM     35  C   UNL     1       5.337   4.196  14.994  0.00  0.00    +0.000 A 
ATOM     36  C   UNL     1       6.695   4.505  14.934  0.00  0.00    +0.000 A 
ATOM     37  C   UNL     1       7.425   4.682  16.111  0.00  0.00    +0.000 A 
ATOM     38  C   UNL     1       6.783   4.609  17.348  0.00  0.00    +0.000 A 
ENDBRANCH  26  33
ENDBRANCH  23  30
ENDBRANCH   1  23
TORSDOF 7
ENDMDL
