MODEL 1
REMARK VINA RESULT:      -8.5      0.000      0.000
REMARK  Name = 
REMARK  5 active torsions:
REMARK  status: ('A' for Active; 'I' for Inactive)
REMARK    1  A    between atoms: C_4  and  C_5
REMARK    2  A    between atoms: C_5  and  O_6
REMARK    3  A    between atoms: O_6  and  N_7
REMARK    4  A    between atoms: C_17  and  C_18
REMARK    5  A    between atoms: C_18  and  N_19
REMARK                            x       y       z     vdW  Elec       q    Type
REMARK                         _______ _______ _______ _____ _____    ______ ____
ROOT
ATOM      1  N   UNL     1       3.496   6.404  17.606  0.00  0.00    +0.000 NA
ATOM      2  C   UNL     1       3.688   5.250  18.172  0.00  0.00    +0.000 C 
ATOM      3  C   UNL     1       2.816   4.600  19.155  0.00  0.00    +0.000 A 
ATOM      4  C   UNL     1       2.794   4.937  20.502  0.00  0.00    +0.000 A 
ATOM      5  C   UNL     1       1.960   4.212  21.349  0.00  0.00    +0.000 A 
ATOM      6  C   UNL     1       1.136   3.204  20.828  0.00  0.00    +0.000 A 
ATOM      7  C   UNL     1       1.197   2.864  19.472  0.00  0.00    +0.000 A 
ATOM      8  C   UNL     1       2.097   3.519  18.632  0.00  0.00    +0.000 A 
ATOM      9  C   UNL     1       2.310   3.133  17.185  0.00  0.00    +0.000 C 
ATOM     10  C   UNL     1       3.742   3.450  16.625  0.00  0.00    +0.000 C 
ATOM     11  C   UNL     1       4.653   4.268  17.570  0.00  0.00    +0.000 C 
ENDROOT
BRANCH   1  12
ATOM     12  O   UNL     1       2.288   6.941  18.052  0.00  0.00    +0.000 OA
BRANCH  12  13
ATOM     13  C   UNL     1       2.344   8.360  18.094  0.00  0.00    +0.000 C 
BRANCH  13  17
ATOM     14  C   UNL     1      -0.170   9.703  21.340  0.00  0.00    +0.000 A 
ATOM     15  C   UNL     1      -0.235  10.340  20.109  0.00  0.00    +0.000 A 
ATOM     16  C   UNL     1       0.581   9.914  19.065  0.00  0.00    +0.000 A 
ATOM     17  C   UNL     1       1.477   8.848  19.238  0.00  0.00    +0.000 A 
ATOM     18  C   UNL     1       1.535   8.214  20.483  0.00  0.00    +0.000 A 
ATOM     19  C   UNL     1       0.715   8.639  21.533  0.00  0.00    +0.000 A 
ENDBRANCH  13  17
ENDBRANCH  12  13
ENDBRANCH   1  12
BRANCH  11  20
ATOM     20  C   UNL     1       5.829   4.944  16.872  0.00  0.00    +0.000 C 
BRANCH  20  21
ATOM     21  N   UNL     1       6.750   5.585  17.793  0.00  0.00    +0.000 N 
ATOM     22  C   UNL     1       7.329   6.813  17.689  0.00  0.00    +0.000 A 
ATOM     23  N   UNL     1       8.153   6.998  18.690  0.00  0.00    +0.000 NA
ATOM     24  C   UNL     1       8.045   5.832  19.392  0.00  0.00    +0.000 A 
ATOM     25  N   UNL     1       7.191   4.931  18.894  0.00  0.00    +0.000 NA
ENDBRANCH  20  21
ENDBRANCH  11  20
TORSDOF 5
ENDMDL
MODEL 2
REMARK VINA RESULT:      -8.1      0.496      1.241
REMARK  Name = 
REMARK  5 active torsions:
REMARK  status: ('A' for Active; 'I' for Inactive)
REMARK    1  A    between atoms: C_4  and  C_5
REMARK    2  A    between atoms: C_5  and  O_6
REMARK    3  A    between atoms: O_6  and  N_7
REMARK    4  A    between atoms: C_17  and  C_18
REMARK    5  A    between atoms: C_18  and  N_19
REMARK                            x       y       z     vdW  Elec       q    Type
REMARK                         _______ _______ _______ _____ _____    ______ ____
ROOT
ATOM      1  N   UNL     1       3.461   6.450  17.443  0.00  0.00    +0.000 NA
ATOM      2  C   UNL     1       3.714   5.319  18.034  0.00  0.00    +0.000 C 
ATOM      3  C   UNL     1       2.921   4.688  19.093  0.00  0.00    +0.000 A 
ATOM      4  C   UNL     1       2.982   5.070  20.427  0.00  0.00    +0.000 A 
ATOM      5  C   UNL     1       2.220   4.360  21.351  0.00  0.00    +0.000 A 
ATOM      6  C   UNL     1       1.385   3.320  20.920  0.00  0.00    +0.000 A 
ATOM      7  C   UNL     1       1.363   2.934  19.574  0.00  0.00    +0.000 A 
ATOM      8  C   UNL     1       2.192   3.577  18.655  0.00  0.00    +0.000 A 
ATOM      9  C   UNL     1       2.317   3.145  17.211  0.00  0.00    +0.000 C 
ATOM     10  C   UNL     1       3.703   3.468  16.547  0.00  0.00    +0.000 C 
ATOM     11  C   UNL     1       4.657   4.334  17.402  0.00  0.00    +0.000 C 
ENDROOT
BRANCH   1  12
ATOM     12  O   UNL     1       2.275   6.979  17.951  0.00  0.00    +0.000 OA
BRANCH  12  13
ATOM     13  C   UNL     1       2.346   8.395  18.044  0.00  0.00    +0.000 C 
BRANCH  13  17
ATOM     14  C   UNL     1      -0.150   9.748  21.300  0.00  0.00    +0.000 A 
ATOM     15  C   UNL     1       0.718   8.682  21.493  0.00  0.00    +0.000 A 
ATOM     16  C   UNL     1       1.516   8.240  20.442  0.00  0.00    +0.000 A 
ATOM     17  C   UNL     1       1.455   8.853  19.181  0.00  0.00    +0.000 A 
ATOM     18  C   UNL     1       0.576   9.925  18.997  0.00  0.00    +0.000 A 
ATOM     19  C   UNL     1      -0.226  10.373  20.053  0.00  0.00    +0.000 A 
ENDBRANCH  13  17
ENDBRANCH  12  13
ENDBRANCH   1  12
BRANCH  11  20
ATOM     20  C   UNL     1       5.771   5.008  16.605  0.00  0.00    +0.000 C 
BRANCH  20  21
ATOM     21  N   UNL     1       6.733   5.701  17.441  0.00  0.00    +0.000 N 
ATOM     22  C   UNL     1       7.318   5.265  18.592  0.00  0.00    +0.000 A 
ATOM     23  N   UNL     1       8.077   6.211  19.086  0.00  0.00    +0.000 NA
ATOM     24  C   UNL     1       7.919   7.227  18.187  0.00  0.00    +0.000 A 
ATOM     25  N   UNL     1       7.114   6.968  17.152  0.00  0.00    +0.000 NA
ENDBRANCH  20  21
ENDBRANCH  11  20
TORSDOF 5
ENDMDL
MODEL 3
REMARK VINA RESULT:      -8.0      1.172      1.696
REMARK  Name = 
REMARK  5 active torsions:
REMARK  status: ('A' for Active; 'I' for Inactive)
REMARK    1  A    between atoms: C_4  and  C_5
REMARK    2  A    between atoms: C_5  and  O_6
REMARK    3  A    between atoms: O_6  and  N_7
REMARK    4  A    between atoms: C_17  and  C_18
REMARK    5  A    between atoms: C_18  and  N_19
REMARK                            x       y       z     vdW  Elec       q    Type
REMARK                         _______ _______ _______ _____ _____    ______ ____
ROOT
ATOM      1  N   UNL     1       3.659   6.497  18.043  0.00  0.00    +0.000 NA
ATOM      2  C   UNL     1       3.754   5.307  18.557  0.00  0.00    +0.000 C 
ATOM      3  C   UNL     1       2.687   4.550  19.218  0.00  0.00    +0.000 A 
ATOM      4  C   UNL     1       2.288   4.773  20.530  0.00  0.00    +0.000 A 
ATOM      5  C   UNL     1       1.298   3.953  21.065  0.00  0.00    +0.000 A 
ATOM      6  C   UNL     1       0.699   2.966  20.271  0.00  0.00    +0.000 A 
ATOM      7  C   UNL     1       1.138   2.741  18.961  0.00  0.00    +0.000 A 
ATOM      8  C   UNL     1       2.193   3.493  18.445  0.00  0.00    +0.000 A 
ATOM      9  C   UNL     1       2.806   3.236  17.086  0.00  0.00    +0.000 C 
ATOM     10  C   UNL     1       4.317   3.644  16.958  0.00  0.00    +0.000 C 
ATOM     11  C   UNL     1       4.896   4.410  18.171  0.00  0.00    +0.000 C 
ENDROOT
BRANCH   1  12
ATOM     12  O   UNL     1       2.348   6.955  18.183  0.00  0.00    +0.000 OA
BRANCH  12  13
ATOM     13  C   UNL     1       2.295   8.374  18.133  0.00  0.00    +0.000 C 
BRANCH  13  17
ATOM     14  C   UNL     1      -0.177   9.741  21.401  0.00  0.00    +0.000 A 
ATOM     15  C   UNL     1      -0.257  10.370  20.166  0.00  0.00    +0.000 A 
ATOM     16  C   UNL     1       0.545   9.936  19.115  0.00  0.00    +0.000 A 
ATOM     17  C   UNL     1       1.443   8.870  19.284  0.00  0.00    +0.000 A 
ATOM     18  C   UNL     1       1.516   8.244  20.532  0.00  0.00    +0.000 A 
ATOM     19  C   UNL     1       0.709   8.677  21.589  0.00  0.00    +0.000 A 
ENDBRANCH  13  17
ENDBRANCH  12  13
ENDBRANCH   1  12
BRANCH  11  20
ATOM     20  C   UNL     1       6.178   5.180  17.867  0.00  0.00    +0.000 C 
BRANCH  20  21
ATOM     21  N   UNL     1       6.505   5.211  16.453  0.00  0.00    +0.000 N 
ATOM     22  C   UNL     1       5.826   5.823  15.444  0.00  0.00    +0.000 A 
ATOM     23  N   UNL     1       6.405   5.559  14.299  0.00  0.00    +0.000 NA
ATOM     24  C   UNL     1       7.452   4.763  14.665  0.00  0.00    +0.000 A 
ATOM     25  N   UNL     1       7.569   4.523  15.975  0.00  0.00    +0.000 NA
ENDBRANCH  20  21
ENDBRANCH  11  20
TORSDOF 5
ENDMDL
MODEL 4
REMARK VINA RESULT:      -7.8      1.461      2.181
REMARK  Name = 
REMARK  5 active torsions:
REMARK  status: ('A' for Active; 'I' for Inactive)
REMARK    1  A    between atoms: C_4  and  C_5
REMARK    2  A    between atoms: C_5  and  O_6
REMARK    3  A    between atoms: O_6  and  N_7
REMARK    4  A    between atoms: C_17  and  C_18
REMARK    5  A    between atoms: C_18  and  N_19
REMARK                            x       y       z     vdW  Elec       q    Type
REMARK                         _______ _______ _______ _____ _____    ______ ____
ROOT
ATOM      1  N   UNL     1       3.120   7.023  18.975  0.00  0.00    +0.000 NA
ATOM      2  C   UNL     1       3.371   5.755  19.112  0.00  0.00    +0.000 C 
ATOM      3  C   UNL     1       2.553   4.772  19.829  0.00  0.00    +0.000 A 
ATOM      4  C   UNL     1       2.561   4.630  21.210  0.00  0.00    +0.000 A 
ATOM      5  C   UNL     1       1.780   3.625  21.774  0.00  0.00    +0.000 A 
ATOM      6  C   UNL     1       0.978   2.818  20.955  0.00  0.00    +0.000 A 
ATOM      7  C   UNL     1       1.010   2.961  19.563  0.00  0.00    +0.000 A 
ATOM      8  C   UNL     1       1.859   3.901  18.981  0.00  0.00    +0.000 A 
ATOM      9  C   UNL     1       2.041   4.039  17.486  0.00  0.00    +0.000 C 
ATOM     10  C   UNL     1       3.444   4.591  17.044  0.00  0.00    +0.000 C 
ATOM     11  C   UNL     1       4.352   5.079  18.196  0.00  0.00    +0.000 C 
ENDROOT
BRANCH   1  12
ATOM     12  O   UNL     1       1.907   7.322  19.597  0.00  0.00    +0.000 OA
BRANCH  12  13
ATOM     13  C   UNL     1       1.474   8.634  19.267  0.00  0.00    +0.000 C 
BRANCH  13  17
ATOM     14  C   UNL     1      -0.470  10.388  22.703  0.00  0.00    +0.000 A 
ATOM     15  C   UNL     1       0.383   9.306  22.871  0.00  0.00    +0.000 A 
ATOM     16  C   UNL     1       1.002   8.735  21.763  0.00  0.00    +0.000 A 
ATOM     17  C   UNL     1       0.776   9.233  20.471  0.00  0.00    +0.000 A 
ATOM     18  C   UNL     1      -0.086  10.324  20.313  0.00  0.00    +0.000 A 
ATOM     19  C   UNL     1      -0.708  10.901  21.425  0.00  0.00    +0.000 A 
ENDBRANCH  13  17
ENDBRANCH  12  13
ENDBRANCH   1  12
BRANCH  11  20
ATOM     20  C   UNL     1       5.481   6.004  17.750  0.00  0.00    +0.000 C 
BRANCH  20  21
ATOM     21  N   UNL     1       6.198   5.513  16.588  0.00  0.00    +0.000 N 
ATOM     22  C   UNL     1       7.219   4.612  16.546  0.00  0.00    +0.000 A 
ATOM     23  N   UNL     1       7.644   4.484  15.314  0.00  0.00    +0.000 NA
ATOM     24  C   UNL     1       6.840   5.347  14.625  0.00  0.00    +0.000 A 
ATOM     25  N   UNL     1       5.928   5.999  15.354  0.00  0.00    +0.000 NA
ENDBRANCH  20  21
ENDBRANCH  11  20
TORSDOF 5
ENDMDL
MODEL 5
REMARK VINA RESULT:      -7.7      3.062      7.106
REMARK  Name = 
REMARK  5 active torsions:
REMARK  status: ('A' for Active; 'I' for Inactive)
REMARK    1  A    between atoms: C_4  and  C_5
REMARK    2  A    between atoms: C_5  and  O_6
REMARK    3  A    between atoms: O_6  and  N_7
REMARK    4  A    between atoms: C_17  and  C_18
REMARK    5  A    between atoms: C_18  and  N_19
REMARK                            x       y       z     vdW  Elec       q    Type
REMARK                         _______ _______ _______ _____ _____    ______ ____
ROOT
ATOM      1  N   UNL     1       4.007   3.866  17.074  0.00  0.00    +0.000 NA
ATOM      2  C   UNL     1       4.287   4.828  17.903  0.00  0.00    +0.000 C 
ATOM      3  C   UNL     1       5.587   5.482  18.077  0.00  0.00    +0.000 A 
ATOM      4  C   UNL     1       6.631   4.932  18.810  0.00  0.00    +0.000 A 
ATOM      5  C   UNL     1       7.801   5.674  18.949  0.00  0.00    +0.000 A 
ATOM      6  C   UNL     1       7.920   6.920  18.319  0.00  0.00    +0.000 A 
ATOM      7  C   UNL     1       6.843   7.467  17.611  0.00  0.00    +0.000 A 
ATOM      8  C   UNL     1       5.635   6.775  17.544  0.00  0.00    +0.000 A 
ATOM      9  C   UNL     1       4.390   7.346  16.902  0.00  0.00    +0.000 C 
ATOM     10  C   UNL     1       3.039   6.805  17.493  0.00  0.00    +0.000 C 
ATOM     11  C   UNL     1       3.181   5.646  18.507  0.00  0.00    +0.000 C 
ENDROOT
BRANCH   1  12
ATOM     12  O   UNL     1       5.143   3.558  16.325  0.00  0.00    +0.000 OA
BRANCH  12  13
ATOM     13  C   UNL     1       4.817   3.373  14.955  0.00  0.00    +0.000 C 
BRANCH  13  17
ATOM     14  C   UNL     1       7.921   5.140  12.525  0.00  0.00    +0.000 A 
ATOM     15  C   UNL     1       7.095   4.163  11.985  0.00  0.00    +0.000 A 
ATOM     16  C   UNL     1       6.101   3.587  12.770  0.00  0.00    +0.000 A 
ATOM     17  C   UNL     1       5.919   3.975  14.107  0.00  0.00    +0.000 A 
ATOM     18  C   UNL     1       6.758   4.959  14.640  0.00  0.00    +0.000 A 
ATOM     19  C   UNL     1       7.756   5.541  13.853  0.00  0.00    +0.000 A 
ENDBRANCH  13  17
ENDBRANCH  12  13
ENDBRANCH   1  12
BRANCH  11  20
ATOM     20  C   UNL     1       1.901   4.845  18.723  0.00  0.00    +0.000 C 
BRANCH  20  21
ATOM     21  N   UNL     1       1.899   4.093  19.964  0.00  0.00    +0.000 N 
ATOM     22  C   UNL     1       2.356   4.482  21.186  0.00  0.00    +0.000 A 
ATOM     23  N   UNL     1       2.241   3.492  22.036  0.00  0.00    +0.000 NA
ATOM     24  C   UNL     1       1.701   2.498  21.271  0.00  0.00    +0.000 A 
ATOM     25  N   UNL     1       1.461   2.812  19.995  0.00  0.00    +0.000 NA
ENDBRANCH  20  21
ENDBRANCH  11  20
TORSDOF 5
ENDMDL
MODEL 6
REMARK VINA RESULT:      -7.7      2.371      6.424
REMARK  Name = 
REMARK  5 active torsions:
REMARK  status: ('A' for Active; 'I' for Inactive)
REMARK    1  A    between atoms: C_4  and  C_5
REMARK    2  A    between atoms: C_5  and  O_6
REMARK    3  A    between atoms: O_6  and  N_7
REMARK    4  A    between atoms: C_17  and  C_18
REMARK    5  A    between atoms: C_18  and  N_19
REMARK                            x       y       z     vdW  Elec       q    Type
REMARK                         _______ _______ _______ _____ _____    ______ ____
ROOT
ATOM      1  N   UNL     1       4.036   6.661  18.160  0.00  0.00    +0.000 NA
ATOM      2  C   UNL     1       2.768   6.443  18.346  0.00  0.00    +0.000 C 
ATOM      3  C   UNL     1       2.143   5.170  18.716  0.00  0.00    +0.000 A 
ATOM      4  C   UNL     1       1.893   4.147  17.811  0.00  0.00    +0.000 A 
ATOM      5  C   UNL     1       1.246   3.003  18.271  0.00  0.00    +0.000 A 
ATOM      6  C   UNL     1       0.904   2.887  19.626  0.00  0.00    +0.000 A 
ATOM      7  C   UNL     1       1.140   3.945  20.513  0.00  0.00    +0.000 A 
ATOM      8  C   UNL     1       1.703   5.131  20.044  0.00  0.00    +0.000 A 
ATOM      9  C   UNL     1       1.881   6.360  20.908  0.00  0.00    +0.000 C 
ATOM     10  C   UNL     1       1.854   7.722  20.126  0.00  0.00    +0.000 C 
ATOM     11  C   UNL     1       1.833   7.596  18.585  0.00  0.00    +0.000 C 
ENDROOT
BRANCH   1  12
ATOM     12  O   UNL     1       4.745   5.485  18.402  0.00  0.00    +0.000 OA
BRANCH  12  13
ATOM     13  C   UNL     1       6.079   5.585  17.922  0.00  0.00    +0.000 C 
BRANCH  13  17
ATOM     14  C   UNL     1       6.205   4.044  13.889  0.00  0.00    +0.000 A 
ATOM     15  C   UNL     1       5.169   3.676  14.735  0.00  0.00    +0.000 A 
ATOM     16  C   UNL     1       5.132   4.165  16.038  0.00  0.00    +0.000 A 
ATOM     17  C   UNL     1       6.133   5.025  16.515  0.00  0.00    +0.000 A 
ATOM     18  C   UNL     1       7.173   5.389  15.654  0.00  0.00    +0.000 A 
ATOM     19  C   UNL     1       7.211   4.901  14.343  0.00  0.00    +0.000 A 
ENDBRANCH  13  17
ENDBRANCH  12  13
ENDBRANCH   1  12
BRANCH  11  20
ATOM     20  C   UNL     1       2.257   8.864  17.849  0.00  0.00    +0.000 C 
BRANCH  20  21
ATOM     21  N   UNL     1       1.418  10.009  18.153  0.00  0.00    +0.000 N 
ATOM     22  C   UNL     1       1.803  11.256  18.544  0.00  0.00    +0.000 A 
ATOM     23  N   UNL     1       0.744  11.987  18.789  0.00  0.00    +0.000 NA
ATOM     24  C   UNL     1      -0.284  11.126  18.533  0.00  0.00    +0.000 A 
ATOM     25  N   UNL     1       0.069   9.902  18.131  0.00  0.00    +0.000 NA
ENDBRANCH  20  21
ENDBRANCH  11  20
TORSDOF 5
ENDMDL
MODEL 7
REMARK VINA RESULT:      -7.7      2.159      5.797
REMARK  Name = 
REMARK  5 active torsions:
REMARK  status: ('A' for Active; 'I' for Inactive)
REMARK    1  A    between atoms: C_4  and  C_5
REMARK    2  A    between atoms: C_5  and  O_6
REMARK    3  A    between atoms: O_6  and  N_7
REMARK    4  A    between atoms: C_17  and  C_18
REMARK    5  A    between atoms: C_18  and  N_19
REMARK                            x       y       z     vdW  Elec       q    Type
REMARK                         _______ _______ _______ _____ _____    ______ ____
ROOT
ATOM      1  N   UNL     1       4.499   4.511  19.847  0.00  0.00    +0.000 NA
ATOM      2  C   UNL     1       4.539   5.154  18.718  0.00  0.00    +0.000 C 
ATOM      3  C   UNL     1       5.375   4.835  17.557  0.00  0.00    +0.000 A 
ATOM      4  C   UNL     1       6.720   5.167  17.465  0.00  0.00    +0.000 A 
ATOM      5  C   UNL     1       7.397   4.857  16.289  0.00  0.00    +0.000 A 
ATOM      6  C   UNL     1       6.733   4.186  15.253  0.00  0.00    +0.000 A 
ATOM      7  C   UNL     1       5.368   3.888  15.357  0.00  0.00    +0.000 A 
ATOM      8  C   UNL     1       4.658   4.277  16.492  0.00  0.00    +0.000 A 
ATOM      9  C   UNL     1       3.163   4.100  16.633  0.00  0.00    +0.000 C 
ATOM     10  C   UNL     1       2.462   5.150  17.568  0.00  0.00    +0.000 C 
ATOM     11  C   UNL     1       3.420   6.085  18.342  0.00  0.00    +0.000 C 
ENDROOT
BRANCH   1  12
ATOM     12  O   UNL     1       5.364   3.418  19.785  0.00  0.00    +0.000 OA
BRANCH  12  13
ATOM     13  C   UNL     1       4.724   2.234  20.239  0.00  0.00    +0.000 C 
BRANCH  13  17
ATOM     14  C   UNL     1       0.462   2.771  19.789  0.00  0.00    +0.000 A 
ATOM     15  C   UNL     1       1.111   3.306  20.894  0.00  0.00    +0.000 A 
ATOM     16  C   UNL     1       2.483   3.125  21.044  0.00  0.00    +0.000 A 
ATOM     17  C   UNL     1       3.225   2.405  20.095  0.00  0.00    +0.000 A 
ATOM     18  C   UNL     1       2.560   1.870  18.987  0.00  0.00    +0.000 A 
ATOM     19  C   UNL     1       1.182   2.051  18.833  0.00  0.00    +0.000 A 
ENDBRANCH  13  17
ENDBRANCH  12  13
ENDBRANCH   1  12
BRANCH  11  20
ATOM     20  C   UNL     1       2.786   6.767  19.550  0.00  0.00    +0.000 C 
BRANCH  20  21
ATOM     21  N   UNL     1       2.095   7.999  19.214  0.00  0.00    +0.000 N 
ATOM     22  C   UNL     1       2.131   8.693  18.043  0.00  0.00    +0.000 A 
ATOM     23  N   UNL     1       1.427   9.791  18.159  0.00  0.00    +0.000 NA
ATOM     24  C   UNL     1       0.974   9.726  19.446  0.00  0.00    +0.000 A 
ATOM     25  N   UNL     1       1.344   8.644  20.138  0.00  0.00    +0.000 NA
ENDBRANCH  20  21
ENDBRANCH  11  20
TORSDOF 5
ENDMDL
MODEL 8
REMARK VINA RESULT:      -7.6      2.347      6.393
REMARK  Name = 
REMARK  5 active torsions:
REMARK  status: ('A' for Active; 'I' for Inactive)
REMARK    1  A    between atoms: C_4  and  C_5
REMARK    2  A    between atoms: C_5  and  O_6
REMARK    3  A    between atoms: O_6  and  N_7
REMARK    4  A    between atoms: C_17  and  C_18
REMARK    5  A    between atoms: C_18  and  N_19
REMARK                            x       y       z     vdW  Elec       q    Type
REMARK                         _______ _______ _______ _____ _____    ______ ____
ROOT
ATOM      1  N   UNL     1       4.079   6.567  18.194  0.00  0.00    +0.000 NA
ATOM      2  C   UNL     1       2.805   6.364  18.357  0.00  0.00    +0.000 C 
ATOM      3  C   UNL     1       2.158   5.099  18.713  0.00  0.00    +0.000 A 
ATOM      4  C   UNL     1       1.913   4.080  17.801  0.00  0.00    +0.000 A 
ATOM      5  C   UNL     1       1.243   2.944  18.247  0.00  0.00    +0.000 A 
ATOM      6  C   UNL     1       0.875   2.830  19.594  0.00  0.00    +0.000 A 
ATOM      7  C   UNL     1       1.107   3.882  20.488  0.00  0.00    +0.000 A 
ATOM      8  C   UNL     1       1.693   5.063  20.032  0.00  0.00    +0.000 A 
ATOM      9  C   UNL     1       1.870   6.288  20.901  0.00  0.00    +0.000 C 
ATOM     10  C   UNL     1       1.874   7.651  20.122  0.00  0.00    +0.000 C 
ATOM     11  C   UNL     1       1.880   7.528  18.580  0.00  0.00    +0.000 C 
ENDROOT
BRANCH   1  12
ATOM     12  O   UNL     1       4.770   5.382  18.447  0.00  0.00    +0.000 OA
BRANCH  12  13
ATOM     13  C   UNL     1       6.107   5.459  17.973  0.00  0.00    +0.000 C 
BRANCH  13  17
ATOM     14  C   UNL     1       6.241   4.027  13.900  0.00  0.00    +0.000 A 
ATOM     15  C   UNL     1       7.187   4.942  14.340  0.00  0.00    +0.000 A 
ATOM     16  C   UNL     1       7.139   5.411  15.650  0.00  0.00    +0.000 A 
ATOM     17  C   UNL     1       6.143   4.975  16.538  0.00  0.00    +0.000 A 
ATOM     18  C   UNL     1       5.194   4.053  16.083  0.00  0.00    +0.000 A 
ATOM     19  C   UNL     1       5.241   3.580  14.768  0.00  0.00    +0.000 A 
ENDBRANCH  13  17
ENDBRANCH  12  13
ENDBRANCH   1  12
BRANCH  11  20
ATOM     20  C   UNL     1       2.333   8.793  17.856  0.00  0.00    +0.000 C 
BRANCH  20  21
ATOM     21  N   UNL     1       1.551   9.964  18.206  0.00  0.00    +0.000 N 
ATOM     22  C   UNL     1       0.200  10.065  18.345  0.00  0.00    +0.000 A 
ATOM     23  N   UNL     1      -0.125  11.308  18.601  0.00  0.00    +0.000 NA
ATOM     24  C   UNL     1       1.084  11.942  18.605  0.00  0.00    +0.000 A 
ATOM     25  N   UNL     1       2.148  11.167  18.378  0.00  0.00    +0.000 NA
ENDBRANCH  20  21
ENDBRANCH  11  20
TORSDOF 5
ENDMDL
MODEL 9
REMARK VINA RESULT:      -7.6      1.043      1.302
REMARK  Name = 
REMARK  5 active torsions:
REMARK  status: ('A' for Active; 'I' for Inactive)
REMARK    1  A    between atoms: C_4  and  C_5
REMARK    2  A    between atoms: C_5  and  O_6
REMARK    3  A    between atoms: O_6  and  N_7
REMARK    4  A    between atoms: C_17  and  C_18
REMARK    5  A    between atoms: C_18  and  N_19
REMARK                            x       y       z     vdW  Elec       q    Type
REMARK                         _______ _______ _______ _____ _____    ______ ____
ROOT
ATOM      1  N   UNL     1       3.066   6.901  18.732  0.00  0.00    +0.000 NA
ATOM      2  C   UNL     1       3.274   5.625  18.866  0.00  0.00    +0.000 C 
ATOM      3  C   UNL     1       2.533   4.703  19.732  0.00  0.00    +0.000 A 
ATOM      4  C   UNL     1       2.751   4.593  21.099  0.00  0.00    +0.000 A 
ATOM      5  C   UNL     1       2.021   3.642  21.808  0.00  0.00    +0.000 A 
ATOM      6  C   UNL     1       1.063   2.860  21.150  0.00  0.00    +0.000 A 
ATOM      7  C   UNL     1       0.882   2.969  19.765  0.00  0.00    +0.000 A 
ATOM      8  C   UNL     1       1.674   3.851  19.030  0.00  0.00    +0.000 A 
ATOM      9  C   UNL     1       1.625   3.945  17.522  0.00  0.00    +0.000 C 
ATOM     10  C   UNL     1       2.965   4.412  16.849  0.00  0.00    +0.000 C 
ATOM     11  C   UNL     1       4.066   4.878  17.830  0.00  0.00    +0.000 C 
ENDROOT
BRANCH   1  12
ATOM     12  O   UNL     1       1.982   7.277  19.525  0.00  0.00    +0.000 OA
BRANCH  12  13
ATOM     13  C   UNL     1       1.572   8.606  19.233  0.00  0.00    +0.000 C 
BRANCH  13  17
ATOM     14  C   UNL     1      -0.515  10.207  22.660  0.00  0.00    +0.000 A 
ATOM     15  C   UNL     1      -0.048  11.066  21.674  0.00  0.00    +0.000 A 
ATOM     16  C   UNL     1       0.632  10.551  20.574  0.00  0.00    +0.000 A 
ATOM     17  C   UNL     1       0.859   9.172  20.445  0.00  0.00    +0.000 A 
ATOM     18  C   UNL     1       0.385   8.317  21.445  0.00  0.00    +0.000 A 
ATOM     19  C   UNL     1      -0.300   8.831  22.550  0.00  0.00    +0.000 A 
ENDBRANCH  13  17
ENDBRANCH  12  13
ENDBRANCH   1  12
BRANCH  11  20
ATOM     20  C   UNL     1       5.154   5.733  17.186  0.00  0.00    +0.000 C 
BRANCH  20  21
ATOM     21  N   UNL     1       6.346   5.853  18.004  0.00  0.00    +0.000 N 
ATOM     22  C   UNL     1       6.685   5.134  19.110  0.00  0.00    +0.000 A 
ATOM     23  N   UNL     1       7.808   5.591  19.606  0.00  0.00    +0.000 NA
ATOM     24  C   UNL     1       8.122   6.612  18.755  0.00  0.00    +0.000 A 
ATOM     25  N   UNL     1       7.266   6.813  17.748  0.00  0.00    +0.000 NA
ENDBRANCH  20  21
ENDBRANCH  11  20
TORSDOF 5
ENDMDL
