MODEL 1
REMARK VINA RESULT:      -7.0      0.000      0.000
REMARK  Name = 
REMARK  10 active torsions:
REMARK  status: ('A' for Active; 'I' for Inactive)
REMARK    1  A    between atoms: C_1  and  C_2
REMARK    2  A    between atoms: C_2  and  O_3
REMARK    3  A    between atoms: O_3  and  C_4
REMARK    4  A    between atoms: N_9  and  C_10
REMARK    5  A    between atoms: C_10  and  C_11
REMARK    6  A    between atoms: C_11  and  C_12
REMARK    7  A    between atoms: C_12  and  O_13
REMARK    8  A    between atoms: O_13  and  C_14
REMARK    9  A    between atoms: C_17  and  C_18
REMARK   10  A    between atoms: C_21  and  N_22
REMARK                            x       y       z     vdW  Elec       q    Type
REMARK                         _______ _______ _______ _____ _____    ______ ____
ROOT
ATOM      1  O   UNL     1       0.664  11.367  19.064  0.00  0.00    +0.000 OA
ENDROOT
BRANCH   1   2
ATOM      2  C   UNL     1       1.179  10.100  19.043  0.00  0.00    +0.000 A 
ATOM      3  C   UNL     1       1.037   9.375  20.221  0.00  0.00    +0.000 A 
ATOM      4  C   UNL     1       1.548   8.075  20.318  0.00  0.00    +0.000 A 
ATOM      5  C   UNL     1       2.185   7.453  19.227  0.00  0.00    +0.000 A 
ATOM      6  C   UNL     1       2.285   8.195  18.038  0.00  0.00    +0.000 A 
ATOM      7  C   UNL     1       1.799   9.503  17.949  0.00  0.00    +0.000 A 
BRANCH   5   8
ATOM      8  C   UNL     1       2.716   6.072  19.310  0.00  0.00    +0.000 A 
ATOM      9  C   UNL     1       3.956   5.726  18.740  0.00  0.00    +0.000 A 
ATOM     10  C   UNL     1       4.470   4.428  18.835  0.00  0.00    +0.000 A 
ATOM     11  C   UNL     1       3.748   3.450  19.524  0.00  0.00    +0.000 A 
ATOM     12  C   UNL     1       2.512   3.759  20.100  0.00  0.00    +0.000 A 
ATOM     13  C   UNL     1       2.005   5.056  19.980  0.00  0.00    +0.000 A 
BRANCH  11  14
ATOM     14  N   UNL     1       4.290   2.092  19.650  0.00  0.00    +0.000 N 
ATOM     15  O   UNL     1       3.941   1.252  18.808  0.00  0.00    +0.000 OA
ATOM     16  O   UNL     1       5.066   1.864  20.589  0.00  0.00    +0.000 OA
ENDBRANCH  11  14
ENDBRANCH   5   8
ENDBRANCH   1   2
BRANCH   1  17
ATOM     17  C   UNL     1       1.403  12.292  19.862  0.00  0.00    +0.000 C 
BRANCH  17  18
ATOM     18  C   UNL     1       0.444  13.353  20.379  0.00  0.00    +0.000 C 
BRANCH  18  19
ATOM     19  C   UNL     1      -0.158  12.954  21.727  0.00  0.00    +0.000 C 
BRANCH  19  25
ATOM     20  C   UNL     1      -4.986  13.118  22.931  0.00  0.00    +0.000 C 
ATOM     21  O   UNL     1      -5.399  12.777  24.032  0.00  0.00    +0.000 OA
ATOM     22  N   UNL     1      -3.653  13.167  22.587  0.00  0.00    +0.000 N 
ATOM     23  C   UNL     1      -2.652  12.706  23.546  0.00  0.00    +0.000 C 
ATOM     24  C   UNL     1      -1.801  11.571  22.946  0.00  0.00    +0.000 C 
ATOM     25  N   UNL     1      -1.189  11.903  21.636  0.00  0.00    +0.000 NA
ATOM     26  C   UNL     1      -2.274  12.305  20.706  0.00  0.00    +0.000 C 
ATOM     27  C   UNL     1      -3.168  13.448  21.233  0.00  0.00    +0.000 C 
BRANCH  20  28
ATOM     28  O   UNL     1      -5.794  13.419  21.881  0.00  0.00    +0.000 OA
BRANCH  28  30
ATOM     29  C   UNL     1      -6.389  11.654  20.391  0.00  0.00    +0.000 C 
ATOM     30  C   UNL     1      -6.817  12.455  21.608  0.00  0.00    +0.000 C 
ENDBRANCH  28  30
ENDBRANCH  20  28
ENDBRANCH  19  25
ENDBRANCH  18  19
ENDBRANCH  17  18
ENDBRANCH   1  17
TORSDOF 9
ENDMDL
MODEL 2
REMARK VINA RESULT:      -6.9      3.404     11.072
REMARK  Name = 
REMARK  10 active torsions:
REMARK  status: ('A' for Active; 'I' for Inactive)
REMARK    1  A    between atoms: C_1  and  C_2
REMARK    2  A    between atoms: C_2  and  O_3
REMARK    3  A    between atoms: O_3  and  C_4
REMARK    4  A    between atoms: N_9  and  C_10
REMARK    5  A    between atoms: C_10  and  C_11
REMARK    6  A    between atoms: C_11  and  C_12
REMARK    7  A    between atoms: C_12  and  O_13
REMARK    8  A    between atoms: O_13  and  C_14
REMARK    9  A    between atoms: C_17  and  C_18
REMARK   10  A    between atoms: C_21  and  N_22
REMARK                            x       y       z     vdW  Elec       q    Type
REMARK                         _______ _______ _______ _____ _____    ______ ____
ROOT
ATOM      1  O   UNL     1       2.365   6.443  19.704  0.00  0.00    +0.000 OA
ENDROOT
BRANCH   1   2
ATOM      2  C   UNL     1       1.957   7.737  19.534  0.00  0.00    +0.000 A 
ATOM      3  C   UNL     1       1.399   8.343  20.654  0.00  0.00    +0.000 A 
ATOM      4  C   UNL     1       0.927   9.659  20.587  0.00  0.00    +0.000 A 
ATOM      5  C   UNL     1       1.031  10.417  19.405  0.00  0.00    +0.000 A 
ATOM      6  C   UNL     1       1.630   9.794  18.297  0.00  0.00    +0.000 A 
ATOM      7  C   UNL     1       2.078   8.470  18.356  0.00  0.00    +0.000 A 
BRANCH   5   8
ATOM      8  C   UNL     1       0.551  11.816  19.323  0.00  0.00    +0.000 A 
ATOM      9  C   UNL     1      -0.744  12.175  19.745  0.00  0.00    +0.000 A 
ATOM     10  C   UNL     1      -1.193  13.499  19.688  0.00  0.00    +0.000 A 
ATOM     11  C   UNL     1      -0.337  14.497  19.217  0.00  0.00    +0.000 A 
ATOM     12  C   UNL     1       0.954  14.176  18.788  0.00  0.00    +0.000 A 
ATOM     13  C   UNL     1       1.381  12.846  18.835  0.00  0.00    +0.000 A 
BRANCH  11  14
ATOM     14  N   UNL     1      -0.791  15.893  19.177  0.00  0.00    +0.000 N 
ATOM     15  O   UNL     1      -0.498  16.565  18.178  0.00  0.00    +0.000 OA
ATOM     16  O   UNL     1      -1.442  16.316  20.142  0.00  0.00    +0.000 OA
ENDBRANCH  11  14
ENDBRANCH   5   8
ENDBRANCH   1   2
BRANCH   1  17
ATOM     17  C   UNL     1       1.655   5.728  20.716  0.00  0.00    +0.000 C 
BRANCH  17  18
ATOM     18  C   UNL     1       1.956   4.246  20.556  0.00  0.00    +0.000 C 
BRANCH  18  19
ATOM     19  C   UNL     1       2.005   3.842  19.082  0.00  0.00    +0.000 C 
BRANCH  19  25
ATOM     20  C   UNL     1       6.651   4.528  17.428  0.00  0.00    +0.000 C 
ATOM     21  O   UNL     1       6.931   4.512  16.236  0.00  0.00    +0.000 OA
ATOM     22  N   UNL     1       5.368   4.427  17.921  0.00  0.00    +0.000 N 
ATOM     23  C   UNL     1       4.263   4.197  16.993  0.00  0.00    +0.000 C 
ATOM     24  C   UNL     1       3.504   2.907  17.356  0.00  0.00    +0.000 C 
ATOM     25  N   UNL     1       3.051   2.850  18.768  0.00  0.00    +0.000 NA
ATOM     26  C   UNL     1       4.235   3.035  19.642  0.00  0.00    +0.000 C 
ATOM     27  C   UNL     1       5.047   4.314  19.347  0.00  0.00    +0.000 C 
BRANCH  20  28
ATOM     28  O   UNL     1       7.576   4.571  18.422  0.00  0.00    +0.000 OA
BRANCH  28  30
ATOM     29  C   UNL     1       7.806   6.924  18.100  0.00  0.00    +0.000 C 
ATOM     30  C   UNL     1       7.649   5.816  19.127  0.00  0.00    +0.000 C 
ENDBRANCH  28  30
ENDBRANCH  20  28
ENDBRANCH  19  25
ENDBRANCH  18  19
ENDBRANCH  17  18
ENDBRANCH   1  17
TORSDOF 9
ENDMDL
MODEL 3
REMARK VINA RESULT:      -6.8      2.356     10.318
REMARK  Name = 
REMARK  10 active torsions:
REMARK  status: ('A' for Active; 'I' for Inactive)
REMARK    1  A    between atoms: C_1  and  C_2
REMARK    2  A    between atoms: C_2  and  O_3
REMARK    3  A    between atoms: O_3  and  C_4
REMARK    4  A    between atoms: N_9  and  C_10
REMARK    5  A    between atoms: C_10  and  C_11
REMARK    6  A    between atoms: C_11  and  C_12
REMARK    7  A    between atoms: C_12  and  O_13
REMARK    8  A    between atoms: O_13  and  C_14
REMARK    9  A    between atoms: C_17  and  C_18
REMARK   10  A    between atoms: C_21  and  N_22
REMARK                            x       y       z     vdW  Elec       q    Type
REMARK                         _______ _______ _______ _____ _____    ______ ____
ROOT
ATOM      1  O   UNL     1       3.375   6.926  17.667  0.00  0.00    +0.000 OA
ENDROOT
BRANCH   1   2
ATOM      2  C   UNL     1       2.561   7.748  18.396  0.00  0.00    +0.000 A 
ATOM      3  C   UNL     1       2.338   7.360  19.712  0.00  0.00    +0.000 A 
ATOM      4  C   UNL     1       1.502   8.115  20.542  0.00  0.00    +0.000 A 
ATOM      5  C   UNL     1       0.893   9.301  20.087  0.00  0.00    +0.000 A 
ATOM      6  C   UNL     1       1.162   9.690  18.764  0.00  0.00    +0.000 A 
ATOM      7  C   UNL     1       1.975   8.921  17.926  0.00  0.00    +0.000 A 
BRANCH   5   8
ATOM      8  C   UNL     1       0.019  10.120  20.959  0.00  0.00    +0.000 A 
ATOM      9  C   UNL     1      -0.676  11.239  20.461  0.00  0.00    +0.000 A 
ATOM     10  C   UNL     1      -1.518  12.002  21.277  0.00  0.00    +0.000 A 
ATOM     11  C   UNL     1      -1.692  11.641  22.616  0.00  0.00    +0.000 A 
ATOM     12  C   UNL     1      -1.016  10.538  23.144  0.00  0.00    +0.000 A 
ATOM     13  C   UNL     1      -0.164   9.797  22.319  0.00  0.00    +0.000 A 
BRANCH  11  14
ATOM     14  N   UNL     1      -2.592  12.421  23.474  0.00  0.00    +0.000 N 
ATOM     15  O   UNL     1      -3.628  11.870  23.874  0.00  0.00    +0.000 OA
ATOM     16  O   UNL     1      -2.264  13.584  23.749  0.00  0.00    +0.000 OA
ENDBRANCH  11  14
ENDBRANCH   5   8
ENDBRANCH   1   2
BRANCH   1  17
ATOM     17  C   UNL     1       3.965   7.543  16.522  0.00  0.00    +0.000 C 
BRANCH  17  18
ATOM     18  C   UNL     1       5.037   6.614  15.975  0.00  0.00    +0.000 C 
BRANCH  18  19
ATOM     19  C   UNL     1       6.211   6.481  16.947  0.00  0.00    +0.000 C 
BRANCH  19  25
ATOM     20  C   UNL     1       4.327   2.480  19.234  0.00  0.00    +0.000 C 
ATOM     21  O   UNL     1       4.621   2.184  20.385  0.00  0.00    +0.000 OA
ATOM     22  N   UNL     1       4.759   3.622  18.595  0.00  0.00    +0.000 N 
ATOM     23  C   UNL     1       5.699   4.509  19.278  0.00  0.00    +0.000 C 
ATOM     24  C   UNL     1       6.986   4.683  18.452  0.00  0.00    +0.000 C 
ATOM     25  N   UNL     1       6.751   5.113  17.051  0.00  0.00    +0.000 NA
ATOM     26  C   UNL     1       5.837   4.133  16.413  0.00  0.00    +0.000 C 
ATOM     27  C   UNL     1       4.515   3.908  17.178  0.00  0.00    +0.000 C 
BRANCH  20  28
ATOM     28  O   UNL     1       3.598   1.682  18.411  0.00  0.00    +0.000 OA
BRANCH  28  30
ATOM     29  C   UNL     1       1.465   2.157  19.367  0.00  0.00    +0.000 C 
ATOM     30  C   UNL     1       2.291   2.174  18.093  0.00  0.00    +0.000 C 
ENDBRANCH  28  30
ENDBRANCH  20  28
ENDBRANCH  19  25
ENDBRANCH  18  19
ENDBRANCH  17  18
ENDBRANCH   1  17
TORSDOF 9
ENDMDL
MODEL 4
REMARK VINA RESULT:      -6.8      3.396     11.053
REMARK  Name = 
REMARK  10 active torsions:
REMARK  status: ('A' for Active; 'I' for Inactive)
REMARK    1  A    between atoms: C_1  and  C_2
REMARK    2  A    between atoms: C_2  and  O_3
REMARK    3  A    between atoms: O_3  and  C_4
REMARK    4  A    between atoms: N_9  and  C_10
REMARK    5  A    between atoms: C_10  and  C_11
REMARK    6  A    between atoms: C_11  and  C_12
REMARK    7  A    between atoms: C_12  and  O_13
REMARK    8  A    between atoms: O_13  and  C_14
REMARK    9  A    between atoms: C_17  and  C_18
REMARK   10  A    between atoms: C_21  and  N_22
REMARK                            x       y       z     vdW  Elec       q    Type
REMARK                         _______ _______ _______ _____ _____    ______ ____
ROOT
ATOM      1  O   UNL     1       2.328   6.269  19.816  0.00  0.00    +0.000 OA
ENDROOT
BRANCH   1   2
ATOM      2  C   UNL     1       1.883   7.562  19.795  0.00  0.00    +0.000 A 
ATOM      3  C   UNL     1       1.994   8.215  18.573  0.00  0.00    +0.000 A 
ATOM      4  C   UNL     1       1.589   9.548  18.443  0.00  0.00    +0.000 A 
ATOM      5  C   UNL     1       1.029  10.255  19.525  0.00  0.00    +0.000 A 
ATOM      6  C   UNL     1       0.896   9.561  20.740  0.00  0.00    +0.000 A 
ATOM      7  C   UNL     1       1.325   8.237  20.877  0.00  0.00    +0.000 A 
BRANCH   5   8
ATOM      8  C   UNL     1       0.581  11.661  19.398  0.00  0.00    +0.000 A 
ATOM      9  C   UNL     1      -0.674  12.080  19.880  0.00  0.00    +0.000 A 
ATOM     10  C   UNL     1      -1.091  13.412  19.780  0.00  0.00    +0.000 A 
ATOM     11  C   UNL     1      -0.240  14.359  19.205  0.00  0.00    +0.000 A 
ATOM     12  C   UNL     1       1.012  13.977  18.714  0.00  0.00    +0.000 A 
ATOM     13  C   UNL     1       1.406  12.639  18.805  0.00  0.00    +0.000 A 
BRANCH  11  14
ATOM     14  N   UNL     1      -0.659  15.763  19.118  0.00  0.00    +0.000 N 
ATOM     15  O   UNL     1      -1.410  16.196  20.002  0.00  0.00    +0.000 OA
ATOM     16  O   UNL     1      -0.235  16.433  18.165  0.00  0.00    +0.000 OA
ENDBRANCH  11  14
ENDBRANCH   5   8
ENDBRANCH   1   2
BRANCH   1  17
ATOM     17  C   UNL     1       1.706   5.446  20.804  0.00  0.00    +0.000 C 
BRANCH  17  18
ATOM     18  C   UNL     1       2.462   4.129  20.876  0.00  0.00    +0.000 C 
BRANCH  18  19
ATOM     19  C   UNL     1       1.894   3.104  19.894  0.00  0.00    +0.000 C 
BRANCH  19  25
ATOM     20  C   UNL     1       5.457   4.180  16.587  0.00  0.00    +0.000 C 
ATOM     21  O   UNL     1       5.294   4.047  15.381  0.00  0.00    +0.000 OA
ATOM     22  N   UNL     1       4.472   3.974  17.528  0.00  0.00    +0.000 N 
ATOM     23  C   UNL     1       3.166   3.481  17.096  0.00  0.00    +0.000 C 
ATOM     24  C   UNL     1       2.817   2.160  17.807  0.00  0.00    +0.000 C 
ATOM     25  N   UNL     1       2.913   2.227  19.286  0.00  0.00    +0.000 NA
ATOM     26  C   UNL     1       4.280   2.679  19.642  0.00  0.00    +0.000 C 
ATOM     27  C   UNL     1       4.703   4.006  18.975  0.00  0.00    +0.000 C 
BRANCH  20  28
ATOM     28  O   UNL     1       6.653   4.474  17.160  0.00  0.00    +0.000 OA
BRANCH  28  30
ATOM     29  C   UNL     1       7.114   6.777  17.579  0.00  0.00    +0.000 C 
ATOM     30  C   UNL     1       7.319   5.620  16.617  0.00  0.00    +0.000 C 
ENDBRANCH  28  30
ENDBRANCH  20  28
ENDBRANCH  19  25
ENDBRANCH  18  19
ENDBRANCH  17  18
ENDBRANCH   1  17
TORSDOF 9
ENDMDL
MODEL 5
REMARK VINA RESULT:      -6.8      3.069      5.864
REMARK  Name = 
REMARK  10 active torsions:
REMARK  status: ('A' for Active; 'I' for Inactive)
REMARK    1  A    between atoms: C_1  and  C_2
REMARK    2  A    between atoms: C_2  and  O_3
REMARK    3  A    between atoms: O_3  and  C_4
REMARK    4  A    between atoms: N_9  and  C_10
REMARK    5  A    between atoms: C_10  and  C_11
REMARK    6  A    between atoms: C_11  and  C_12
REMARK    7  A    between atoms: C_12  and  O_13
REMARK    8  A    between atoms: O_13  and  C_14
REMARK    9  A    between atoms: C_17  and  C_18
REMARK   10  A    between atoms: C_21  and  N_22
REMARK                            x       y       z     vdW  Elec       q    Type
REMARK                         _______ _______ _______ _____ _____    ______ ____
ROOT
ATOM      1  O   UNL     1       0.422  11.387  19.383  0.00  0.00    +0.000 OA
ENDROOT
BRANCH   1   2
ATOM      2  C   UNL     1       0.925  10.121  19.510  0.00  0.00    +0.000 A 
ATOM      3  C   UNL     1       1.533   9.600  18.374  0.00  0.00    +0.000 A 
ATOM      4  C   UNL     1       2.062   8.304  18.385  0.00  0.00    +0.000 A 
ATOM      5  C   UNL     1       2.027   7.507  19.544  0.00  0.00    +0.000 A 
ATOM      6  C   UNL     1       1.438   8.069  20.689  0.00  0.00    +0.000 A 
ATOM      7  C   UNL     1       0.886   9.354  20.671  0.00  0.00    +0.000 A 
BRANCH   5   8
ATOM      8  C   UNL     1       2.598   6.139  19.576  0.00  0.00    +0.000 A 
ATOM      9  C   UNL     1       2.152   5.178  20.503  0.00  0.00    +0.000 A 
ATOM     10  C   UNL     1       2.674   3.879  20.521  0.00  0.00    +0.000 A 
ATOM     11  C   UNL     1       3.650   3.516  19.589  0.00  0.00    +0.000 A 
ATOM     12  C   UNL     1       4.117   4.447  18.657  0.00  0.00    +0.000 A 
ATOM     13  C   UNL     1       3.597   5.745  18.664  0.00  0.00    +0.000 A 
BRANCH  11  14
ATOM     14  N   UNL     1       4.186   2.150  19.585  0.00  0.00    +0.000 N 
ATOM     15  O   UNL     1       4.991   1.844  20.476  0.00  0.00    +0.000 OA
ATOM     16  O   UNL     1       3.801   1.382  18.692  0.00  0.00    +0.000 OA
ENDBRANCH  11  14
ENDBRANCH   5   8
ENDBRANCH   1   2
BRANCH   1  17
ATOM     17  C   UNL     1      -0.878  11.565  19.945  0.00  0.00    +0.000 C 
BRANCH  17  18
ATOM     18  C   UNL     1      -1.178  13.055  19.998  0.00  0.00    +0.000 C 
BRANCH  18  19
ATOM     19  C   UNL     1      -0.226  13.849  19.104  0.00  0.00    +0.000 C 
BRANCH  19  25
ATOM     20  C   UNL     1       4.566  14.964  19.868  0.00  0.00    +0.000 C 
ATOM     21  O   UNL     1       5.152  14.666  20.901  0.00  0.00    +0.000 OA
ATOM     22  N   UNL     1       3.268  14.600  19.583  0.00  0.00    +0.000 N 
ATOM     23  C   UNL     1       2.488  13.891  20.595  0.00  0.00    +0.000 C 
ATOM     24  C   UNL     1       1.205  14.670  20.941  0.00  0.00    +0.000 C 
ATOM     25  N   UNL     1       0.376  15.023  19.763  0.00  0.00    +0.000 NA
ATOM     26  C   UNL     1       1.223  15.787  18.813  0.00  0.00    +0.000 C 
ATOM     27  C   UNL     1       2.527  15.068  18.408  0.00  0.00    +0.000 C 
BRANCH  20  28
ATOM     28  O   UNL     1       5.096  15.756  18.900  0.00  0.00    +0.000 OA
BRANCH  28  30
ATOM     29  C   UNL     1       6.950  14.823  17.724  0.00  0.00    +0.000 C 
ATOM     30  C   UNL     1       6.527  15.763  18.840  0.00  0.00    +0.000 C 
ENDBRANCH  28  30
ENDBRANCH  20  28
ENDBRANCH  19  25
ENDBRANCH  18  19
ENDBRANCH  17  18
ENDBRANCH   1  17
TORSDOF 9
ENDMDL
MODEL 6
REMARK VINA RESULT:      -6.7      7.904     12.072
REMARK  Name = 
REMARK  10 active torsions:
REMARK  status: ('A' for Active; 'I' for Inactive)
REMARK    1  A    between atoms: C_1  and  C_2
REMARK    2  A    between atoms: C_2  and  O_3
REMARK    3  A    between atoms: O_3  and  C_4
REMARK    4  A    between atoms: N_9  and  C_10
REMARK    5  A    between atoms: C_10  and  C_11
REMARK    6  A    between atoms: C_11  and  C_12
REMARK    7  A    between atoms: C_12  and  O_13
REMARK    8  A    between atoms: O_13  and  C_14
REMARK    9  A    between atoms: C_17  and  C_18
REMARK   10  A    between atoms: C_21  and  N_22
REMARK                            x       y       z     vdW  Elec       q    Type
REMARK                         _______ _______ _______ _____ _____    ______ ____
ROOT
ATOM      1  O   UNL     1       8.632   9.248  17.596  0.00  0.00    +0.000 OA
ENDROOT
BRANCH   1   2
ATOM      2  C   UNL     1       8.944  10.281  18.437  0.00  0.00    +0.000 A 
ATOM      3  C   UNL     1       8.855  11.554  17.884  0.00  0.00    +0.000 A 
ATOM      4  C   UNL     1       9.173  12.681  18.649  0.00  0.00    +0.000 A 
ATOM      5  C   UNL     1       9.556  12.569  19.999  0.00  0.00    +0.000 A 
ATOM      6  C   UNL     1       9.604  11.274  20.544  0.00  0.00    +0.000 A 
ATOM      7  C   UNL     1       9.312  10.145  19.773  0.00  0.00    +0.000 A 
BRANCH   5   8
ATOM      8  C   UNL     1       9.880  13.755  20.826  0.00  0.00    +0.000 A 
ATOM      9  C   UNL     1       9.299  13.949  22.094  0.00  0.00    +0.000 A 
ATOM     10  C   UNL     1       9.619  15.058  22.886  0.00  0.00    +0.000 A 
ATOM     11  C   UNL     1      10.548  15.991  22.420  0.00  0.00    +0.000 A 
ATOM     12  C   UNL     1      11.142  15.831  21.165  0.00  0.00    +0.000 A 
ATOM     13  C   UNL     1      10.798  14.727  20.379  0.00  0.00    +0.000 A 
BRANCH  11  14
ATOM     14  N   UNL     1      10.908  17.145  23.253  0.00  0.00    +0.000 N 
ATOM     15  O   UNL     1      11.547  18.063  22.721  0.00  0.00    +0.000 OA
ATOM     16  O   UNL     1      10.550  17.133  24.440  0.00  0.00    +0.000 OA
ENDBRANCH  11  14
ENDBRANCH   5   8
ENDBRANCH   1   2
BRANCH   1  17
ATOM     17  C   UNL     1       8.152   8.075  18.253  0.00  0.00    +0.000 C 
BRANCH  17  18
ATOM     18  C   UNL     1       7.389   7.236  17.240  0.00  0.00    +0.000 C 
BRANCH  18  19
ATOM     19  C   UNL     1       6.713   6.036  17.905  0.00  0.00    +0.000 C 
BRANCH  19  25
ATOM     20  C   UNL     1       3.059   2.659  18.080  0.00  0.00    +0.000 C 
ATOM     21  O   UNL     1       2.384   2.372  17.099  0.00  0.00    +0.000 OA
ATOM     22  N   UNL     1       4.131   3.524  18.054  0.00  0.00    +0.000 N 
ATOM     23  C   UNL     1       4.452   4.224  16.812  0.00  0.00    +0.000 C 
ATOM     24  C   UNL     1       4.425   5.749  17.022  0.00  0.00    +0.000 C 
ATOM     25  N   UNL     1       5.269   6.220  18.147  0.00  0.00    +0.000 NA
ATOM     26  C   UNL     1       4.844   5.506  19.376  0.00  0.00    +0.000 C 
ATOM     27  C   UNL     1       4.853   3.967  19.250  0.00  0.00    +0.000 C 
BRANCH  20  28
ATOM     28  O   UNL     1       2.789   2.221  19.338  0.00  0.00    +0.000 OA
BRANCH  28  30
ATOM     29  C   UNL     1       1.221   3.658  20.419  0.00  0.00    +0.000 C 
ATOM     30  C   UNL     1       1.415   2.317  19.731  0.00  0.00    +0.000 C 
ENDBRANCH  28  30
ENDBRANCH  20  28
ENDBRANCH  19  25
ENDBRANCH  18  19
ENDBRANCH  17  18
ENDBRANCH   1  17
TORSDOF 9
ENDMDL
MODEL 7
REMARK VINA RESULT:      -6.7      2.801     11.397
REMARK  Name = 
REMARK  10 active torsions:
REMARK  status: ('A' for Active; 'I' for Inactive)
REMARK    1  A    between atoms: C_1  and  C_2
REMARK    2  A    between atoms: C_2  and  O_3
REMARK    3  A    between atoms: O_3  and  C_4
REMARK    4  A    between atoms: N_9  and  C_10
REMARK    5  A    between atoms: C_10  and  C_11
REMARK    6  A    between atoms: C_11  and  C_12
REMARK    7  A    between atoms: C_12  and  O_13
REMARK    8  A    between atoms: O_13  and  C_14
REMARK    9  A    between atoms: C_17  and  C_18
REMARK   10  A    between atoms: C_21  and  N_22
REMARK                            x       y       z     vdW  Elec       q    Type
REMARK                         _______ _______ _______ _____ _____    ______ ____
ROOT
ATOM      1  O   UNL     1       1.832   7.477  20.377  0.00  0.00    +0.000 OA
ENDROOT
BRANCH   1   2
ATOM      2  C   UNL     1       1.132   8.560  20.830  0.00  0.00    +0.000 A 
ATOM      3  C   UNL     1       0.875   8.580  22.197  0.00  0.00    +0.000 A 
ATOM      4  C   UNL     1       0.145   9.630  22.765  0.00  0.00    +0.000 A 
ATOM      5  C   UNL     1      -0.318  10.709  21.987  0.00  0.00    +0.000 A 
ATOM      6  C   UNL     1      -0.015  10.683  20.615  0.00  0.00    +0.000 A 
ATOM      7  C   UNL     1       0.691   9.620  20.042  0.00  0.00    +0.000 A 
BRANCH   5   8
ATOM      8  C   UNL     1      -1.077  11.836  22.578  0.00  0.00    +0.000 A 
ATOM      9  C   UNL     1      -0.580  13.153  22.549  0.00  0.00    +0.000 A 
ATOM     10  C   UNL     1      -1.304  14.222  23.087  0.00  0.00    +0.000 A 
ATOM     11  C   UNL     1      -2.559  13.988  23.655  0.00  0.00    +0.000 A 
ATOM     12  C   UNL     1      -3.081  12.692  23.703  0.00  0.00    +0.000 A 
ATOM     13  C   UNL     1      -2.337  11.632  23.176  0.00  0.00    +0.000 A 
BRANCH  11  14
ATOM     14  N   UNL     1      -3.337  15.106  24.201  0.00  0.00    +0.000 N 
ATOM     15  O   UNL     1      -4.125  15.685  23.440  0.00  0.00    +0.000 OA
ATOM     16  O   UNL     1      -3.160  15.406  25.390  0.00  0.00    +0.000 OA
ENDBRANCH  11  14
ENDBRANCH   5   8
ENDBRANCH   1   2
BRANCH   1  17
ATOM     17  C   UNL     1       1.295   6.216  20.776  0.00  0.00    +0.000 C 
BRANCH  17  18
ATOM     18  C   UNL     1       2.433   5.210  20.846  0.00  0.00    +0.000 C 
BRANCH  18  19
ATOM     19  C   UNL     1       2.586   4.448  19.528  0.00  0.00    +0.000 C 
BRANCH  19  25
ATOM     20  C   UNL     1       6.708   4.433  16.735  0.00  0.00    +0.000 C 
ATOM     21  O   UNL     1       7.669   5.152  16.980  0.00  0.00    +0.000 OA
ATOM     22  N   UNL     1       5.585   4.346  17.529  0.00  0.00    +0.000 N 
ATOM     23  C   UNL     1       5.468   5.219  18.696  0.00  0.00    +0.000 C 
ATOM     24  C   UNL     1       4.195   6.080  18.608  0.00  0.00    +0.000 C 
ATOM     25  N   UNL     1       2.952   5.302  18.382  0.00  0.00    +0.000 NA
ATOM     26  C   UNL     1       3.131   4.489  17.154  0.00  0.00    +0.000 C 
ATOM     27  C   UNL     1       4.384   3.587  17.167  0.00  0.00    +0.000 C 
BRANCH  20  28
ATOM     28  O   UNL     1       6.592   3.685  15.607  0.00  0.00    +0.000 OA
BRANCH  28  30
ATOM     29  C   UNL     1       5.780   3.684  13.364  0.00  0.00    +0.000 C 
ATOM     30  C   UNL     1       6.627   4.427  14.382  0.00  0.00    +0.000 C 
ENDBRANCH  28  30
ENDBRANCH  20  28
ENDBRANCH  19  25
ENDBRANCH  18  19
ENDBRANCH  17  18
ENDBRANCH   1  17
TORSDOF 9
ENDMDL
MODEL 8
REMARK VINA RESULT:      -6.7      3.889      5.144
REMARK  Name = 
REMARK  10 active torsions:
REMARK  status: ('A' for Active; 'I' for Inactive)
REMARK    1  A    between atoms: C_1  and  C_2
REMARK    2  A    between atoms: C_2  and  O_3
REMARK    3  A    between atoms: O_3  and  C_4
REMARK    4  A    between atoms: N_9  and  C_10
REMARK    5  A    between atoms: C_10  and  C_11
REMARK    6  A    between atoms: C_11  and  C_12
REMARK    7  A    between atoms: C_12  and  O_13
REMARK    8  A    between atoms: O_13  and  C_14
REMARK    9  A    between atoms: C_17  and  C_18
REMARK   10  A    between atoms: C_21  and  N_22
REMARK                            x       y       z     vdW  Elec       q    Type
REMARK                         _______ _______ _______ _____ _____    ______ ____
ROOT
ATOM      1  O   UNL     1       0.638   7.826  21.470  0.00  0.00    +0.000 OA
ENDROOT
BRANCH   1   2
ATOM      2  C   UNL     1       1.481   7.304  20.529  0.00  0.00    +0.000 A 
ATOM      3  C   UNL     1       1.811   8.156  19.480  0.00  0.00    +0.000 A 
ATOM      4  C   UNL     1       2.649   7.717  18.449  0.00  0.00    +0.000 A 
ATOM      5  C   UNL     1       3.209   6.426  18.456  0.00  0.00    +0.000 A 
ATOM      6  C   UNL     1       2.888   5.596  19.545  0.00  0.00    +0.000 A 
ATOM      7  C   UNL     1       2.029   6.025  20.562  0.00  0.00    +0.000 A 
BRANCH   5   8
ATOM      8  C   UNL     1       4.111   5.953  17.380  0.00  0.00    +0.000 A 
ATOM      9  C   UNL     1       4.391   4.585  17.202  0.00  0.00    +0.000 A 
ATOM     10  C   UNL     1       5.226   4.134  16.174  0.00  0.00    +0.000 A 
ATOM     11  C   UNL     1       5.787   5.057  15.288  0.00  0.00    +0.000 A 
ATOM     12  C   UNL     1       5.533   6.424  15.437  0.00  0.00    +0.000 A 
ATOM     13  C   UNL     1       4.711   6.858  16.481  0.00  0.00    +0.000 A 
BRANCH  11  14
ATOM     14  N   UNL     1       6.645   4.592  14.192  0.00  0.00    +0.000 N 
ATOM     15  O   UNL     1       6.281   3.590  13.561  0.00  0.00    +0.000 OA
ATOM     16  O   UNL     1       7.682   5.230  13.960  0.00  0.00    +0.000 OA
ENDBRANCH  11  14
ENDBRANCH   5   8
ENDBRANCH   1   2
BRANCH   1  17
ATOM     17  C   UNL     1       0.827   9.218  21.727  0.00  0.00    +0.000 C 
BRANCH  17  18
ATOM     18  C   UNL     1      -0.517   9.917  21.601  0.00  0.00    +0.000 C 
BRANCH  18  19
ATOM     19  C   UNL     1      -0.570  10.807  20.359  0.00  0.00    +0.000 C 
BRANCH  19  25
ATOM     20  C   UNL     1       1.731  15.161  19.628  0.00  0.00    +0.000 C 
ATOM     21  O   UNL     1       2.383  15.714  20.505  0.00  0.00    +0.000 OA
ATOM     22  N   UNL     1       1.151  13.919  19.762  0.00  0.00    +0.000 N 
ATOM     23  C   UNL     1       1.226  13.233  21.051  0.00  0.00    +0.000 C 
ATOM     24  C   UNL     1      -0.183  12.915  21.584  0.00  0.00    +0.000 C 
ATOM     25  N   UNL     1      -1.041  12.179  20.624  0.00  0.00    +0.000 NA
ATOM     26  C   UNL     1      -1.112  12.966  19.368  0.00  0.00    +0.000 C 
ATOM     27  C   UNL     1       0.264  13.318  18.762  0.00  0.00    +0.000 C 
BRANCH  20  28
ATOM     28  O   UNL     1       1.432  15.735  18.433  0.00  0.00    +0.000 OA
BRANCH  28  30
ATOM     29  C   UNL     1      -0.605  16.939  18.740  0.00  0.00    +0.000 C 
ATOM     30  C   UNL     1       0.893  17.060  18.517  0.00  0.00    +0.000 C 
ENDBRANCH  28  30
ENDBRANCH  20  28
ENDBRANCH  19  25
ENDBRANCH  18  19
ENDBRANCH  17  18
ENDBRANCH   1  17
TORSDOF 9
ENDMDL
MODEL 9
REMARK VINA RESULT:      -6.7      3.281     11.467
REMARK  Name = 
REMARK  10 active torsions:
REMARK  status: ('A' for Active; 'I' for Inactive)
REMARK    1  A    between atoms: C_1  and  C_2
REMARK    2  A    between atoms: C_2  and  O_3
REMARK    3  A    between atoms: O_3  and  C_4
REMARK    4  A    between atoms: N_9  and  C_10
REMARK    5  A    between atoms: C_10  and  C_11
REMARK    6  A    between atoms: C_11  and  C_12
REMARK    7  A    between atoms: C_12  and  O_13
REMARK    8  A    between atoms: O_13  and  C_14
REMARK    9  A    between atoms: C_17  and  C_18
REMARK   10  A    between atoms: C_21  and  N_22
REMARK                            x       y       z     vdW  Elec       q    Type
REMARK                         _______ _______ _______ _____ _____    ______ ____
ROOT
ATOM      1  O   UNL     1       2.138   6.819  19.744  0.00  0.00    +0.000 OA
ENDROOT
BRANCH   1   2
ATOM      2  C   UNL     1       1.561   7.972  20.200  0.00  0.00    +0.000 A 
ATOM      3  C   UNL     1       1.159   7.957  21.531  0.00  0.00    +0.000 A 
ATOM      4  C   UNL     1       0.536   9.075  22.096  0.00  0.00    +0.000 A 
ATOM      5  C   UNL     1       0.328  10.253  21.353  0.00  0.00    +0.000 A 
ATOM      6  C   UNL     1       0.774  10.255  20.021  0.00  0.00    +0.000 A 
ATOM      7  C   UNL     1       1.373   9.128  19.448  0.00  0.00    +0.000 A 
BRANCH   5   8
ATOM      8  C   UNL     1      -0.316  11.451  21.942  0.00  0.00    +0.000 A 
ATOM      9  C   UNL     1      -1.367  11.338  22.873  0.00  0.00    +0.000 A 
ATOM     10  C   UNL     1      -1.962  12.467  23.446  0.00  0.00    +0.000 A 
ATOM     11  C   UNL     1      -1.498  13.739  23.104  0.00  0.00    +0.000 A 
ATOM     12  C   UNL     1      -0.459  13.888  22.182  0.00  0.00    +0.000 A 
ATOM     13  C   UNL     1       0.114  12.750  21.605  0.00  0.00    +0.000 A 
BRANCH  11  14
ATOM     14  N   UNL     1      -2.101  14.928  23.718  0.00  0.00    +0.000 N 
ATOM     15  O   UNL     1      -2.066  15.020  24.953  0.00  0.00    +0.000 OA
ATOM     16  O   UNL     1      -2.608  15.773  22.966  0.00  0.00    +0.000 OA
ENDBRANCH  11  14
ENDBRANCH   5   8
ENDBRANCH   1   2
BRANCH   1  17
ATOM     17  C   UNL     1       2.127   5.742  20.681  0.00  0.00    +0.000 C 
BRANCH  17  18
ATOM     18  C   UNL     1       2.922   4.586  20.094  0.00  0.00    +0.000 C 
BRANCH  18  19
ATOM     19  C   UNL     1       4.160   5.083  19.345  0.00  0.00    +0.000 C 
BRANCH  19  25
ATOM     20  C   UNL     1       6.821   4.610  15.164  0.00  0.00    +0.000 C 
ATOM     21  O   UNL     1       7.631   5.454  14.803  0.00  0.00    +0.000 OA
ATOM     22  N   UNL     1       6.128   4.662  16.354  0.00  0.00    +0.000 N 
ATOM     23  C   UNL     1       6.283   5.830  17.218  0.00  0.00    +0.000 C 
ATOM     24  C   UNL     1       4.922   6.504  17.475  0.00  0.00    +0.000 C 
ATOM     25  N   UNL     1       3.878   5.582  17.986  0.00  0.00    +0.000 NA
ATOM     26  C   UNL     1       3.743   4.457  17.027  0.00  0.00    +0.000 C 
ATOM     27  C   UNL     1       5.066   3.722  16.723  0.00  0.00    +0.000 C 
BRANCH  20  28
ATOM     28  O   UNL     1       6.445   3.549  14.403  0.00  0.00    +0.000 OA
BRANCH  28  30
ATOM     29  C   UNL     1       6.664   3.364  12.035  0.00  0.00    +0.000 C 
ATOM     30  C   UNL     1       5.801   3.888  13.169  0.00  0.00    +0.000 C 
ENDBRANCH  28  30
ENDBRANCH  20  28
ENDBRANCH  19  25
ENDBRANCH  18  19
ENDBRANCH  17  18
ENDBRANCH   1  17
TORSDOF 9
ENDMDL
