MODEL 1
REMARK VINA RESULT:      -7.2      0.000      0.000
REMARK  Name = 
REMARK  6 active torsions:
REMARK  status: ('A' for Active; 'I' for Inactive)
REMARK    1  A    between atoms: C_1  and  S_2
REMARK    2  A    between atoms: S_2  and  N_5
REMARK    3  A    between atoms: C_8  and  N_9
REMARK    4  A    between atoms: C_10  and  C_12
REMARK    5  A    between atoms: C_12  and  O_13
REMARK    6  A    between atoms: O_13  and  C_14
REMARK                            x       y       z     vdW  Elec       q    Type
REMARK                         _______ _______ _______ _____ _____    ______ ____
ROOT
ATOM      1  N   UNL     1       5.614   5.253  18.577  0.00  0.00    +0.000 N 
ATOM      2  C   UNL     1       6.715   5.218  17.763  0.00  0.00    +0.000 C 
ATOM      3  O   UNL     1       7.702   4.574  18.136  0.00  0.00    +0.000 OA
ATOM      4  H   UNL     1       5.790   4.683  19.402  0.00  0.00    +0.000 HD
ENDROOT
BRANCH   1   8
ATOM      5  N   UNL     1       1.982   4.100  19.058  0.00  0.00    +0.000 NA
ATOM      6  C   UNL     1       2.675   4.794  20.196  0.00  0.00    +0.000 C 
ATOM      7  C   UNL     1       3.502   6.008  19.805  0.00  0.00    +0.000 C 
ATOM      8  C   UNL     1       4.289   5.885  18.506  0.00  0.00    +0.000 C 
ATOM      9  C   UNL     1       3.365   5.441  17.379  0.00  0.00    +0.000 C 
ATOM     10  C   UNL     1       2.516   4.213  17.661  0.00  0.00    +0.000 C 
BRANCH   5  12
ATOM     11  C   UNL     1       2.813   1.546  18.756  0.00  0.00    +0.000 C 
ATOM     12  S   UNL     1       1.479   2.475  19.469  0.00  0.00    +0.000 S 
ATOM     13  O   UNL     1       0.285   2.159  18.712  0.00  0.00    +0.000 OA
ATOM     14  O   UNL     1       1.534   2.318  20.906  0.00  0.00    +0.000 OA
ENDBRANCH   5  12
ENDBRANCH   1   8
BRANCH   2  15
ATOM     15  C   UNL     1       6.713   5.987  16.478  0.00  0.00    +0.000 C 
BRANCH  15  16
ATOM     16  O   UNL     1       7.631   5.542  15.505  0.00  0.00    +0.000 OA
BRANCH  16  17
ATOM     17  C   UNL     1       7.121   4.818  14.465  0.00  0.00    +0.000 A 
ATOM     18  C   UNL     1       6.013   3.978  14.601  0.00  0.00    +0.000 A 
ATOM     19  C   UNL     1       5.443   3.367  13.496  0.00  0.00    +0.000 A 
ATOM     20  C   UNL     1       5.954   3.604  12.226  0.00  0.00    +0.000 A 
ATOM     21  C   UNL     1       7.080   4.417  12.070  0.00  0.00    +0.000 A 
ATOM     22  C   UNL     1       7.672   5.007  13.189  0.00  0.00    +0.000 A 
ATOM     23 CL   UNL     1       9.091   5.967  12.941  0.00  0.00    +0.000 Cl
ENDBRANCH  16  17
ENDBRANCH  15  16
ENDBRANCH   2  15
TORSDOF 5
ENDMDL
MODEL 2
REMARK VINA RESULT:      -7.2      3.980      5.607
REMARK  Name = 
REMARK  6 active torsions:
REMARK  status: ('A' for Active; 'I' for Inactive)
REMARK    1  A    between atoms: C_1  and  S_2
REMARK    2  A    between atoms: S_2  and  N_5
REMARK    3  A    between atoms: C_8  and  N_9
REMARK    4  A    between atoms: C_10  and  C_12
REMARK    5  A    between atoms: C_12  and  O_13
REMARK    6  A    between atoms: O_13  and  C_14
REMARK                            x       y       z     vdW  Elec       q    Type
REMARK                         _______ _______ _______ _____ _____    ______ ____
ROOT
ATOM      1  N   UNL     1       1.938   5.643  18.130  0.00  0.00    +0.000 N 
ATOM      2  C   UNL     1       2.122   4.315  17.850  0.00  0.00    +0.000 C 
ATOM      3  O   UNL     1       1.187   3.686  17.343  0.00  0.00    +0.000 OA
ATOM      4  H   UNL     1       1.006   5.922  17.832  0.00  0.00    +0.000 HD
ENDROOT
BRANCH   1   8
ATOM      5  N   UNL     1       1.419   9.321  19.109  0.00  0.00    +0.000 NA
ATOM      6  C   UNL     1       1.330   8.270  20.180  0.00  0.00    +0.000 C 
ATOM      7  C   UNL     1       2.397   7.190  20.114  0.00  0.00    +0.000 C 
ATOM      8  C   UNL     1       2.768   6.706  18.717  0.00  0.00    +0.000 C 
ATOM      9  C   UNL     1       3.109   7.895  17.828  0.00  0.00    +0.000 C 
ATOM     10  C   UNL     1       2.086   9.018  17.801  0.00  0.00    +0.000 C 
BRANCH   5  12
ATOM     11  C   UNL     1       0.565  11.873  18.855  0.00  0.00    +0.000 C 
ATOM     12  S   UNL     1      -0.073  10.219  18.925  0.00  0.00    +0.000 S 
ATOM     13  O   UNL     1      -0.831  10.105  20.154  0.00  0.00    +0.000 OA
ATOM     14  O   UNL     1      -0.654   9.901  17.639  0.00  0.00    +0.000 OA
ENDBRANCH   5  12
ENDBRANCH   1   8
BRANCH   2  15
ATOM     15  C   UNL     1       3.421   3.655  18.200  0.00  0.00    +0.000 C 
BRANCH  15  16
ATOM     16  O   UNL     1       4.480   3.890  17.300  0.00  0.00    +0.000 OA
BRANCH  16  17
ATOM     17  C   UNL     1       5.450   4.761  17.708  0.00  0.00    +0.000 A 
ATOM     18  C   UNL     1       5.939   4.789  19.016  0.00  0.00    +0.000 A 
ATOM     19  C   UNL     1       7.016   5.591  19.357  0.00  0.00    +0.000 A 
ATOM     20  C   UNL     1       7.644   6.366  18.389  0.00  0.00    +0.000 A 
ATOM     21  C   UNL     1       7.152   6.377  17.081  0.00  0.00    +0.000 A 
ATOM     22  C   UNL     1       6.047   5.591  16.746  0.00  0.00    +0.000 A 
ATOM     23 CL   UNL     1       5.453   5.678  15.123  0.00  0.00    +0.000 Cl
ENDBRANCH  16  17
ENDBRANCH  15  16
ENDBRANCH   2  15
TORSDOF 5
ENDMDL
MODEL 3
REMARK VINA RESULT:      -7.0      4.028      7.859
REMARK  Name = 
REMARK  6 active torsions:
REMARK  status: ('A' for Active; 'I' for Inactive)
REMARK    1  A    between atoms: C_1  and  S_2
REMARK    2  A    between atoms: S_2  and  N_5
REMARK    3  A    between atoms: C_8  and  N_9
REMARK    4  A    between atoms: C_10  and  C_12
REMARK    5  A    between atoms: C_12  and  O_13
REMARK    6  A    between atoms: O_13  and  C_14
REMARK                            x       y       z     vdW  Elec       q    Type
REMARK                         _______ _______ _______ _____ _____    ______ ____
ROOT
ATOM      1  N   UNL     1       2.734   4.449  19.530  0.00  0.00    +0.000 N 
ATOM      2  C   UNL     1       2.145   4.966  20.653  0.00  0.00    +0.000 C 
ATOM      3  O   UNL     1       2.330   4.393  21.732  0.00  0.00    +0.000 OA
ATOM      4  H   UNL     1       3.288   3.635  19.789  0.00  0.00    +0.000 HD
ENDROOT
BRANCH   1   8
ATOM      5  N   UNL     1       5.454   5.120  16.902  0.00  0.00    +0.000 NA
ATOM      6  C   UNL     1       4.803   3.766  16.938  0.00  0.00    +0.000 C 
ATOM      7  C   UNL     1       3.295   3.778  17.127  0.00  0.00    +0.000 C 
ATOM      8  C   UNL     1       2.757   4.815  18.106  0.00  0.00    +0.000 C 
ATOM      9  C   UNL     1       3.297   6.195  17.751  0.00  0.00    +0.000 C 
ATOM     10  C   UNL     1       4.802   6.293  17.570  0.00  0.00    +0.000 C 
BRANCH   5  12
ATOM     11  C   UNL     1       7.538   6.768  17.397  0.00  0.00    +0.000 C 
ATOM     12  S   UNL     1       7.179   5.043  17.186  0.00  0.00    +0.000 S 
ATOM     13  O   UNL     1       7.827   4.618  15.961  0.00  0.00    +0.000 OA
ATOM     14  O   UNL     1       7.417   4.371  18.445  0.00  0.00    +0.000 OA
ENDBRANCH   5  12
ENDBRANCH   1   8
BRANCH   2  15
ATOM     15  C   UNL     1       1.265   6.174  20.541  0.00  0.00    +0.000 C 
BRANCH  15  16
ATOM     16  O   UNL     1       1.913   7.413  20.724  0.00  0.00    +0.000 OA
BRANCH  16  17
ATOM     17  C   UNL     1       1.115   8.489  20.988  0.00  0.00    +0.000 A 
ATOM     18  C   UNL     1       0.604   8.757  22.260  0.00  0.00    +0.000 A 
ATOM     19  C   UNL     1      -0.087   9.929  22.518  0.00  0.00    +0.000 A 
ATOM     20  C   UNL     1      -0.261  10.873  21.513  0.00  0.00    +0.000 A 
ATOM     21  C   UNL     1       0.215  10.612  20.225  0.00  0.00    +0.000 A 
ATOM     22  C   UNL     1       0.885   9.416  19.960  0.00  0.00    +0.000 A 
ATOM     23 CL   UNL     1       1.412   9.127  18.337  0.00  0.00    +0.000 Cl
ENDBRANCH  16  17
ENDBRANCH  15  16
ENDBRANCH   2  15
TORSDOF 5
ENDMDL
MODEL 4
REMARK VINA RESULT:      -7.0      5.104      8.518
REMARK  Name = 
REMARK  6 active torsions:
REMARK  status: ('A' for Active; 'I' for Inactive)
REMARK    1  A    between atoms: C_1  and  S_2
REMARK    2  A    between atoms: S_2  and  N_5
REMARK    3  A    between atoms: C_8  and  N_9
REMARK    4  A    between atoms: C_10  and  C_12
REMARK    5  A    between atoms: C_12  and  O_13
REMARK    6  A    between atoms: O_13  and  C_14
REMARK                            x       y       z     vdW  Elec       q    Type
REMARK                         _______ _______ _______ _____ _____    ______ ____
ROOT
ATOM      1  N   UNL     1       2.745   7.022  17.853  0.00  0.00    +0.000 N 
ATOM      2  C   UNL     1       2.076   8.126  18.310  0.00  0.00    +0.000 C 
ATOM      3  O   UNL     1       1.969   9.102  17.559  0.00  0.00    +0.000 OA
ATOM      4  H   UNL     1       3.045   7.186  16.894  0.00  0.00    +0.000 HD
ENDROOT
BRANCH   1   8
ATOM      5  N   UNL     1       5.738   4.623  17.641  0.00  0.00    +0.000 NA
ATOM      6  C   UNL     1       5.623   5.530  18.834  0.00  0.00    +0.000 C 
ATOM      7  C   UNL     1       4.227   5.650  19.422  0.00  0.00    +0.000 C 
ATOM      8  C   UNL     1       3.084   5.706  18.415  0.00  0.00    +0.000 C 
ATOM      9  C   UNL     1       3.192   4.539  17.441  0.00  0.00    +0.000 C 
ATOM     10  C   UNL     1       4.545   4.354  16.774  0.00  0.00    +0.000 C 
BRANCH   5  12
ATOM     11  C   UNL     1       6.741   4.178  15.171  0.00  0.00    +0.000 C 
ATOM     12  S   UNL     1       7.201   4.906  16.722  0.00  0.00    +0.000 S 
ATOM     13  O   UNL     1       8.259   4.088  17.281  0.00  0.00    +0.000 OA
ATOM     14  O   UNL     1       7.363   6.330  16.526  0.00  0.00    +0.000 OA
ENDBRANCH   5  12
ENDBRANCH   1   8
BRANCH   2  15
ATOM     15  C   UNL     1       1.535   8.141  19.707  0.00  0.00    +0.000 C 
BRANCH  15  16
ATOM     16  O   UNL     1       1.767   9.327  20.432  0.00  0.00    +0.000 OA
BRANCH  16  17
ATOM     17  C   UNL     1       0.753   9.762  21.237  0.00  0.00    +0.000 A 
ATOM     18  C   UNL     1       0.506   9.223  22.501  0.00  0.00    +0.000 A 
ATOM     19  C   UNL     1      -0.443   9.781  23.342  0.00  0.00    +0.000 A 
ATOM     20  C   UNL     1      -1.150  10.910  22.944  0.00  0.00    +0.000 A 
ATOM     21  C   UNL     1      -0.941  11.448  21.671  0.00  0.00    +0.000 A 
ATOM     22  C   UNL     1      -0.006  10.865  20.814  0.00  0.00    +0.000 A 
ATOM     23 CL   UNL     1       0.178  11.546  19.234  0.00  0.00    +0.000 Cl
ENDBRANCH  16  17
ENDBRANCH  15  16
ENDBRANCH   2  15
TORSDOF 5
ENDMDL
MODEL 5
REMARK VINA RESULT:      -6.8      4.331      7.713
REMARK  Name = 
REMARK  6 active torsions:
REMARK  status: ('A' for Active; 'I' for Inactive)
REMARK    1  A    between atoms: C_1  and  S_2
REMARK    2  A    between atoms: S_2  and  N_5
REMARK    3  A    between atoms: C_8  and  N_9
REMARK    4  A    between atoms: C_10  and  C_12
REMARK    5  A    between atoms: C_12  and  O_13
REMARK    6  A    between atoms: O_13  and  C_14
REMARK                            x       y       z     vdW  Elec       q    Type
REMARK                         _______ _______ _______ _____ _____    ______ ____
ROOT
ATOM      1  N   UNL     1       2.749   4.401  19.531  0.00  0.00    +0.000 N 
ATOM      2  C   UNL     1       2.143   4.929  20.639  0.00  0.00    +0.000 C 
ATOM      3  O   UNL     1       2.358   4.400  21.735  0.00  0.00    +0.000 OA
ATOM      4  H   UNL     1       3.339   3.621  19.812  0.00  0.00    +0.000 HD
ENDROOT
BRANCH   1   8
ATOM      5  N   UNL     1       5.426   5.065  16.857  0.00  0.00    +0.000 NA
ATOM      6  C   UNL     1       4.817   3.694  16.943  0.00  0.00    +0.000 C 
ATOM      7  C   UNL     1       3.311   3.669  17.146  0.00  0.00    +0.000 C 
ATOM      8  C   UNL     1       2.750   4.721  18.095  0.00  0.00    +0.000 C 
ATOM      9  C   UNL     1       3.245   6.104  17.690  0.00  0.00    +0.000 C 
ATOM     10  C   UNL     1       4.745   6.240  17.493  0.00  0.00    +0.000 C 
BRANCH   5  12
ATOM     11  C   UNL     1       7.452   6.782  17.365  0.00  0.00    +0.000 C 
ATOM     12  S   UNL     1       7.156   5.048  17.128  0.00  0.00    +0.000 S 
ATOM     13  O   UNL     1       7.809   4.668  15.892  0.00  0.00    +0.000 OA
ATOM     14  O   UNL     1       7.428   4.366  18.374  0.00  0.00    +0.000 OA
ENDBRANCH   5  12
ENDBRANCH   1   8
BRANCH   2  15
ATOM     15  C   UNL     1       1.211   6.093  20.493  0.00  0.00    +0.000 C 
BRANCH  15  16
ATOM     16  O   UNL     1       1.612   7.275  21.147  0.00  0.00    +0.000 OA
BRANCH  16  17
ATOM     17  C   UNL     1       1.336   8.452  20.510  0.00  0.00    +0.000 A 
ATOM     18  C   UNL     1       1.604   8.660  19.156  0.00  0.00    +0.000 A 
ATOM     19  C   UNL     1       1.186   9.815  18.516  0.00  0.00    +0.000 A 
ATOM     20  C   UNL     1       0.466  10.778  19.213  0.00  0.00    +0.000 A 
ATOM     21  C   UNL     1       0.212  10.604  20.576  0.00  0.00    +0.000 A 
ATOM     22  C   UNL     1       0.662   9.453  21.227  0.00  0.00    +0.000 A 
ATOM     23 CL   UNL     1       0.359   9.313  22.924  0.00  0.00    +0.000 Cl
ENDBRANCH  16  17
ENDBRANCH  15  16
ENDBRANCH   2  15
TORSDOF 5
ENDMDL
MODEL 6
REMARK VINA RESULT:      -6.8      1.141      1.875
REMARK  Name = 
REMARK  6 active torsions:
REMARK  status: ('A' for Active; 'I' for Inactive)
REMARK    1  A    between atoms: C_1  and  S_2
REMARK    2  A    between atoms: S_2  and  N_5
REMARK    3  A    between atoms: C_8  and  N_9
REMARK    4  A    between atoms: C_10  and  C_12
REMARK    5  A    between atoms: C_12  and  O_13
REMARK    6  A    between atoms: O_13  and  C_14
REMARK                            x       y       z     vdW  Elec       q    Type
REMARK                         _______ _______ _______ _____ _____    ______ ____
ROOT
ATOM      1  N   UNL     1       5.682   3.737  17.875  0.00  0.00    +0.000 N 
ATOM      2  C   UNL     1       6.644   4.675  17.609  0.00  0.00    +0.000 C 
ATOM      3  O   UNL     1       7.608   4.762  18.377  0.00  0.00    +0.000 OA
ATOM      4  H   UNL     1       5.948   3.211  18.704  0.00  0.00    +0.000 HD
ENDROOT
BRANCH   1   8
ATOM      5  N   UNL     1       2.022   3.369  18.982  0.00  0.00    +0.000 NA
ATOM      6  C   UNL     1       2.434   4.620  18.257  0.00  0.00    +0.000 C 
ATOM      7  C   UNL     1       3.349   4.401  17.063  0.00  0.00    +0.000 C 
ATOM      8  C   UNL     1       4.422   3.332  17.235  0.00  0.00    +0.000 C 
ATOM      9  C   UNL     1       3.787   2.030  17.708  0.00  0.00    +0.000 C 
ATOM     10  C   UNL     1       2.876   2.139  18.920  0.00  0.00    +0.000 C 
BRANCH   5  12
ATOM     11  C   UNL     1       2.819   4.512  21.298  0.00  0.00    +0.000 C 
ATOM     12  S   UNL     1       1.411   3.698  20.589  0.00  0.00    +0.000 S 
ATOM     13  O   UNL     1       1.250   2.437  21.285  0.00  0.00    +0.000 OA
ATOM     14  O   UNL     1       0.333   4.657  20.493  0.00  0.00    +0.000 OA
ENDBRANCH   5  12
ENDBRANCH   1   8
BRANCH   2  15
ATOM     15  C   UNL     1       6.485   5.590  16.434  0.00  0.00    +0.000 C 
BRANCH  15  16
ATOM     16  O   UNL     1       7.448   5.438  15.415  0.00  0.00    +0.000 OA
BRANCH  16  17
ATOM     17  C   UNL     1       7.053   4.765  14.294  0.00  0.00    +0.000 A 
ATOM     18  C   UNL     1       5.949   3.909  14.275  0.00  0.00    +0.000 A 
ATOM     19  C   UNL     1       5.499   3.352  13.090  0.00  0.00    +0.000 A 
ATOM     20  C   UNL     1       6.131   3.659  11.890  0.00  0.00    +0.000 A 
ATOM     21  C   UNL     1       7.256   4.488  11.889  0.00  0.00    +0.000 A 
ATOM     22  C   UNL     1       7.726   5.024  13.090  0.00  0.00    +0.000 A 
ATOM     23 CL   UNL     1       9.149   6.008  13.035  0.00  0.00    +0.000 Cl
ENDBRANCH  16  17
ENDBRANCH  15  16
ENDBRANCH   2  15
TORSDOF 5
ENDMDL
MODEL 7
REMARK VINA RESULT:      -6.6      5.764      8.041
REMARK  Name = 
REMARK  6 active torsions:
REMARK  status: ('A' for Active; 'I' for Inactive)
REMARK    1  A    between atoms: C_1  and  S_2
REMARK    2  A    between atoms: S_2  and  N_5
REMARK    3  A    between atoms: C_8  and  N_9
REMARK    4  A    between atoms: C_10  and  C_12
REMARK    5  A    between atoms: C_12  and  O_13
REMARK    6  A    between atoms: O_13  and  C_14
REMARK                            x       y       z     vdW  Elec       q    Type
REMARK                         _______ _______ _______ _____ _____    ______ ____
ROOT
ATOM      1  N   UNL     1       2.361   7.084  19.969  0.00  0.00    +0.000 N 
ATOM      2  C   UNL     1       1.605   8.158  20.359  0.00  0.00    +0.000 C 
ATOM      3  O   UNL     1       1.258   8.234  21.543  0.00  0.00    +0.000 OA
ATOM      4  H   UNL     1       2.549   6.497  20.778  0.00  0.00    +0.000 HD
ENDROOT
BRANCH   1   8
ATOM      5  N   UNL     1       3.758   3.781  18.594  0.00  0.00    +0.000 NA
ATOM      6  C   UNL     1       2.349   4.170  18.244  0.00  0.00    +0.000 C 
ATOM      7  C   UNL     1       2.156   5.632  17.875  0.00  0.00    +0.000 C 
ATOM      8  C   UNL     1       2.952   6.636  18.700  0.00  0.00    +0.000 C 
ATOM      9  C   UNL     1       4.424   6.245  18.716  0.00  0.00    +0.000 C 
ATOM     10  C   UNL     1       4.725   4.807  19.104  0.00  0.00    +0.000 C 
BRANCH   5  12
ATOM     11  C   UNL     1       2.479   2.488  20.594  0.00  0.00    +0.000 C 
ATOM     12  S   UNL     1       3.838   2.269  19.473  0.00  0.00    +0.000 S 
ATOM     13  O   UNL     1       5.050   2.263  20.266  0.00  0.00    +0.000 OA
ATOM     14  O   UNL     1       3.513   1.187  18.571  0.00  0.00    +0.000 OA
ENDBRANCH   5  12
ENDBRANCH   1   8
BRANCH   2  15
ATOM     15  C   UNL     1       1.185   9.178  19.346  0.00  0.00    +0.000 C 
BRANCH  15  16
ATOM     16  O   UNL     1       0.398  10.236  19.844  0.00  0.00    +0.000 OA
BRANCH  16  17
ATOM     17  C   UNL     1      -0.668  10.620  19.081  0.00  0.00    +0.000 A 
ATOM     18  C   UNL     1      -0.950  10.052  17.836  0.00  0.00    +0.000 A 
ATOM     19  C   UNL     1      -2.114  10.370  17.155  0.00  0.00    +0.000 A 
ATOM     20  C   UNL     1      -3.034  11.247  17.717  0.00  0.00    +0.000 A 
ATOM     21  C   UNL     1      -2.758  11.851  18.947  0.00  0.00    +0.000 A 
ATOM     22  C   UNL     1      -1.570  11.552  19.617  0.00  0.00    +0.000 A 
ATOM     23 CL   UNL     1      -1.259  12.363  21.114  0.00  0.00    +0.000 Cl
ENDBRANCH  16  17
ENDBRANCH  15  16
ENDBRANCH   2  15
TORSDOF 5
ENDMDL
MODEL 8
REMARK VINA RESULT:      -6.5      5.463      8.666
REMARK  Name = 
REMARK  6 active torsions:
REMARK  status: ('A' for Active; 'I' for Inactive)
REMARK    1  A    between atoms: C_1  and  S_2
REMARK    2  A    between atoms: S_2  and  N_5
REMARK    3  A    between atoms: C_8  and  N_9
REMARK    4  A    between atoms: C_10  and  C_12
REMARK    5  A    between atoms: C_12  and  O_13
REMARK    6  A    between atoms: O_13  and  C_14
REMARK                            x       y       z     vdW  Elec       q    Type
REMARK                         _______ _______ _______ _____ _____    ______ ____
ROOT
ATOM      1  N   UNL     1       2.880   7.378  17.808  0.00  0.00    +0.000 N 
ATOM      2  C   UNL     1       2.231   8.518  18.199  0.00  0.00    +0.000 C 
ATOM      3  O   UNL     1       2.202   9.476  17.418  0.00  0.00    +0.000 OA
ATOM      4  H   UNL     1       3.236   7.503  16.863  0.00  0.00    +0.000 HD
ENDROOT
BRANCH   1   8
ATOM      5  N   UNL     1       5.681   4.755  17.632  0.00  0.00    +0.000 NA
ATOM      6  C   UNL     1       5.667   5.720  18.785  0.00  0.00    +0.000 C 
ATOM      7  C   UNL     1       4.301   5.970  19.401  0.00  0.00    +0.000 C 
ATOM      8  C   UNL     1       3.137   6.066  18.421  0.00  0.00    +0.000 C 
ATOM      9  C   UNL     1       3.132   4.853  17.500  0.00  0.00    +0.000 C 
ATOM     10  C   UNL     1       4.447   4.537  16.810  0.00  0.00    +0.000 C 
BRANCH   5  12
ATOM     11  C   UNL     1       6.615   4.026  15.203  0.00  0.00    +0.000 C 
ATOM     12  S   UNL     1       7.135   4.887  16.665  0.00  0.00    +0.000 S 
ATOM     13  O   UNL     1       8.172   4.088  17.286  0.00  0.00    +0.000 OA
ATOM     14  O   UNL     1       7.345   6.276  16.324  0.00  0.00    +0.000 OA
ENDBRANCH   5  12
ENDBRANCH   1   8
BRANCH   2  15
ATOM     15  C   UNL     1       1.616   8.593  19.563  0.00  0.00    +0.000 C 
BRANCH  15  16
ATOM     16  O   UNL     1       0.348   9.205  19.622  0.00  0.00    +0.000 OA
BRANCH  16  17
ATOM     17  C   UNL     1       0.248  10.336  20.383  0.00  0.00    +0.000 A 
ATOM     18  C   UNL     1       0.558  11.606  19.893  0.00  0.00    +0.000 A 
ATOM     19  C   UNL     1       0.314  12.741  20.649  0.00  0.00    +0.000 A 
ATOM     20  C   UNL     1      -0.270  12.630  21.905  0.00  0.00    +0.000 A 
ATOM     21  C   UNL     1      -0.561  11.367  22.428  0.00  0.00    +0.000 A 
ATOM     22  C   UNL     1      -0.286  10.223  21.676  0.00  0.00    +0.000 A 
ATOM     23 CL   UNL     1      -0.624   8.684  22.391  0.00  0.00    +0.000 Cl
ENDBRANCH  16  17
ENDBRANCH  15  16
ENDBRANCH   2  15
TORSDOF 5
ENDMDL
MODEL 9
REMARK VINA RESULT:      -6.5      2.921      4.215
REMARK  Name = 
REMARK  6 active torsions:
REMARK  status: ('A' for Active; 'I' for Inactive)
REMARK    1  A    between atoms: C_1  and  S_2
REMARK    2  A    between atoms: S_2  and  N_5
REMARK    3  A    between atoms: C_8  and  N_9
REMARK    4  A    between atoms: C_10  and  C_12
REMARK    5  A    between atoms: C_12  and  O_13
REMARK    6  A    between atoms: O_13  and  C_14
REMARK                            x       y       z     vdW  Elec       q    Type
REMARK                         _______ _______ _______ _____ _____    ______ ____
ROOT
ATOM      1  N   UNL     1       2.998   2.034  19.957  0.00  0.00    +0.000 N 
ATOM      2  C   UNL     1       4.289   2.489  20.002  0.00  0.00    +0.000 C 
ATOM      3  O   UNL     1       5.146   1.776  20.534  0.00  0.00    +0.000 OA
ATOM      4  H   UNL     1       2.956   1.107  20.374  0.00  0.00    +0.000 HD
ENDROOT
BRANCH   1   8
ATOM      5  N   UNL     1       1.639   5.496  18.996  0.00  0.00    +0.000 NA
ATOM      6  C   UNL     1       2.154   4.595  17.908  0.00  0.00    +0.000 C 
ATOM      7  C   UNL     1       1.737   3.138  18.025  0.00  0.00    +0.000 C 
ATOM      8  C   UNL     1       1.728   2.561  19.436  0.00  0.00    +0.000 C 
ATOM      9  C   UNL     1       0.916   3.460  20.360  0.00  0.00    +0.000 C 
ATOM     10  C   UNL     1       1.279   4.935  20.338  0.00  0.00    +0.000 C 
BRANCH   5  12
ATOM     11  C   UNL     1       1.710   7.935  17.833  0.00  0.00    +0.000 C 
ATOM     12  S   UNL     1       2.530   7.000  19.098  0.00  0.00    +0.000 S 
ATOM     13  O   UNL     1       3.885   6.761  18.644  0.00  0.00    +0.000 OA
ATOM     14  O   UNL     1       2.253   7.621  20.375  0.00  0.00    +0.000 OA
ENDBRANCH   5  12
ENDBRANCH   1   8
BRANCH   2  15
ATOM     15  C   UNL     1       4.619   3.843  19.452  0.00  0.00    +0.000 C 
BRANCH  15  16
ATOM     16  O   UNL     1       5.938   4.000  18.982  0.00  0.00    +0.000 OA
BRANCH  16  17
ATOM     17  C   UNL     1       6.084   4.363  17.673  0.00  0.00    +0.000 A 
ATOM     18  C   UNL     1       5.391   3.738  16.633  0.00  0.00    +0.000 A 
ATOM     19  C   UNL     1       5.460   4.222  15.338  0.00  0.00    +0.000 A 
ATOM     20  C   UNL     1       6.207   5.360  15.057  0.00  0.00    +0.000 A 
ATOM     21  C   UNL     1       6.933   5.984  16.076  0.00  0.00    +0.000 A 
ATOM     22  C   UNL     1       6.886   5.475  17.375  0.00  0.00    +0.000 A 
ATOM     23 CL   UNL     1       7.840   6.261  18.587  0.00  0.00    +0.000 Cl
ENDBRANCH  16  17
ENDBRANCH  15  16
ENDBRANCH   2  15
TORSDOF 5
ENDMDL
