MODEL 1
REMARK VINA RESULT:      -8.9      0.000      0.000
REMARK  Name = 
REMARK  3 active torsions:
REMARK  status: ('A' for Active; 'I' for Inactive)
REMARK    1  A    between atoms: C_5  and  C_6
REMARK    2  A    between atoms: C_6  and  N_7
REMARK    3  A    between atoms: N_7  and  C_8
REMARK                            x       y       z     vdW  Elec       q    Type
REMARK                         _______ _______ _______ _____ _____    ______ ____
ROOT
ATOM      1  C   UNL     1       2.855   5.957  19.348  0.00  0.00    +0.000 A 
ATOM      2  N   UNL     1       3.672   6.036  18.282  0.00  0.00    +0.000 NA
ATOM      3  C   UNL     1       4.059   4.919  17.654  0.00  0.00    +0.000 A 
ATOM      4  N   UNL     1       4.869   5.022  16.549  0.00  0.00    +0.000 N 
ATOM      5  C   UNL     1       5.203   3.854  15.748  0.00  0.00    +0.000 C 
ATOM      6  C   UNL     1       6.708   3.871  15.476  0.00  0.00    +0.000 C 
ATOM      7  C   UNL     1       7.160   5.200  14.866  0.00  0.00    +0.000 C 
ATOM      8  C   UNL     1       6.670   6.393  15.690  0.00  0.00    +0.000 C 
ATOM      9  C   UNL     1       5.165   6.316  15.955  0.00  0.00    +0.000 C 
ATOM     10  N   UNL     1       3.716   3.706  18.095  0.00  0.00    +0.000 NA
ATOM     11  C   UNL     1       2.893   3.613  19.141  0.00  0.00    +0.000 A 
ATOM     12  C   UNL     1       2.557   2.339  19.591  0.00  0.00    +0.000 A 
ATOM     13  C   UNL     1       1.669   2.134  20.649  0.00  0.00    +0.000 A 
ATOM     14  C   UNL     1       1.061   3.225  21.248  0.00  0.00    +0.000 A 
ATOM     15  C   UNL     1       1.386   4.507  20.813  0.00  0.00    +0.000 A 
ATOM     16  C   UNL     1       2.356   4.726  19.798  0.00  0.00    +0.000 A 
ENDROOT
BRANCH   1  17
ATOM     17  N   UNL     1       2.585   7.199  19.864  0.00  0.00    +0.000 N 
ATOM     18  H   UNL     1       2.463   7.100  20.867  0.00  0.00    +0.000 HD
BRANCH  17  19
ATOM     19  C   UNL     1       1.843   8.293  19.263  0.00  0.00    +0.000 C 
BRANCH  19  24
ATOM     20  C   UNL     1      -1.712  12.206  19.488  0.00  0.00    +0.000 A 
ATOM     21  C   UNL     1      -1.136  11.519  18.429  0.00  0.00    +0.000 A 
ATOM     22  C   UNL     1      -0.253  10.460  18.676  0.00  0.00    +0.000 A 
ATOM     23  C   UNL     1       0.085  10.057  19.993  0.00  0.00    +0.000 A 
ATOM     24  C   UNL     1       1.021   9.027  20.316  0.00  0.00    +0.000 A 
ATOM     25  C   UNL     1       1.191   8.660  21.670  0.00  0.00    +0.000 A 
ATOM     26  C   UNL     1       0.522   9.322  22.691  0.00  0.00    +0.000 A 
ATOM     27  C   UNL     1      -0.335  10.370  22.386  0.00  0.00    +0.000 A 
ATOM     28  C   UNL     1      -0.562  10.746  21.057  0.00  0.00    +0.000 A 
ATOM     29  C   UNL     1      -1.433  11.814  20.793  0.00  0.00    +0.000 A 
ENDBRANCH  19  24
ENDBRANCH  17  19
ENDBRANCH   1  17
TORSDOF 3
ENDMDL
MODEL 2
REMARK VINA RESULT:      -8.8      0.943      1.938
REMARK  Name = 
REMARK  3 active torsions:
REMARK  status: ('A' for Active; 'I' for Inactive)
REMARK    1  A    between atoms: C_5  and  C_6
REMARK    2  A    between atoms: C_6  and  N_7
REMARK    3  A    between atoms: N_7  and  C_8
REMARK                            x       y       z     vdW  Elec       q    Type
REMARK                         _______ _______ _______ _____ _____    ______ ____
ROOT
ATOM      1  C   UNL     1       2.806   5.581  19.293  0.00  0.00    +0.000 A 
ATOM      2  N   UNL     1       3.756   5.806  18.369  0.00  0.00    +0.000 NA
ATOM      3  C   UNL     1       4.022   4.875  17.444  0.00  0.00    +0.000 A 
ATOM      4  N   UNL     1       4.975   5.136  16.489  0.00  0.00    +0.000 N 
ATOM      5  C   UNL     1       5.201   4.220  15.382  0.00  0.00    +0.000 C 
ATOM      6  C   UNL     1       6.709   4.008  15.234  0.00  0.00    +0.000 C 
ATOM      7  C   UNL     1       7.461   5.336  15.115  0.00  0.00    +0.000 C 
ATOM      8  C   UNL     1       7.083   6.300  16.241  0.00  0.00    +0.000 C 
ATOM      9  C   UNL     1       5.566   6.459  16.363  0.00  0.00    +0.000 C 
ATOM     10  N   UNL     1       3.419   3.683  17.450  0.00  0.00    +0.000 NA
ATOM     11  C   UNL     1       2.463   3.452  18.351  0.00  0.00    +0.000 A 
ATOM     12  C   UNL     1       1.855   2.200  18.345  0.00  0.00    +0.000 A 
ATOM     13  C   UNL     1       0.815   1.874  19.218  0.00  0.00    +0.000 A 
ATOM     14  C   UNL     1       0.333   2.834  20.091  0.00  0.00    +0.000 A 
ATOM     15  C   UNL     1       0.929   4.092  20.112  0.00  0.00    +0.000 A 
ATOM     16  C   UNL     1       2.047   4.402  19.291  0.00  0.00    +0.000 A 
ENDROOT
BRANCH   1  17
ATOM     17  N   UNL     1       2.691   6.638  20.160  0.00  0.00    +0.000 N 
ATOM     18  H   UNL     1       3.541   6.682  20.713  0.00  0.00    +0.000 HD
BRANCH  17  19
ATOM     19  C   UNL     1       1.503   7.145  20.825  0.00  0.00    +0.000 C 
BRANCH  19  24
ATOM     20  C   UNL     1      -1.166  11.424  22.425  0.00  0.00    +0.000 A 
ATOM     21  C   UNL     1      -0.776  10.262  23.075  0.00  0.00    +0.000 A 
ATOM     22  C   UNL     1      -0.002   9.307  22.403  0.00  0.00    +0.000 A 
ATOM     23  C   UNL     1       0.402   9.484  21.055  0.00  0.00    +0.000 A 
ATOM     24  C   UNL     1       1.139   8.526  20.292  0.00  0.00    +0.000 A 
ATOM     25  C   UNL     1       1.563   8.872  18.989  0.00  0.00    +0.000 A 
ATOM     26  C   UNL     1       1.220  10.088  18.413  0.00  0.00    +0.000 A 
ATOM     27  C   UNL     1       0.443  10.992  19.125  0.00  0.00    +0.000 A 
ATOM     28  C   UNL     1       0.031  10.709  20.432  0.00  0.00    +0.000 A 
ATOM     29  C   UNL     1      -0.756  11.649  21.115  0.00  0.00    +0.000 A 
ENDBRANCH  19  24
ENDBRANCH  17  19
ENDBRANCH   1  17
TORSDOF 3
ENDMDL
MODEL 3
REMARK VINA RESULT:      -8.5      3.036      5.528
REMARK  Name = 
REMARK  3 active torsions:
REMARK  status: ('A' for Active; 'I' for Inactive)
REMARK    1  A    between atoms: C_5  and  C_6
REMARK    2  A    between atoms: C_6  and  N_7
REMARK    3  A    between atoms: N_7  and  C_8
REMARK                            x       y       z     vdW  Elec       q    Type
REMARK                         _______ _______ _______ _____ _____    ______ ____
ROOT
ATOM      1  C   UNL     1       5.463   3.767  16.778  0.00  0.00    +0.000 A 
ATOM      2  N   UNL     1       5.722   3.679  15.462  0.00  0.00    +0.000 NA
ATOM      3  C   UNL     1       6.670   4.450  14.915  0.00  0.00    +0.000 A 
ATOM      4  N   UNL     1       6.942   4.323  13.574  0.00  0.00    +0.000 N 
ATOM      5  C   UNL     1       8.054   5.033  12.961  0.00  0.00    +0.000 C 
ATOM      6  C   UNL     1       7.558   5.677  11.664  0.00  0.00    +0.000 C 
ATOM      7  C   UNL     1       6.882   4.655  10.746  0.00  0.00    +0.000 C 
ATOM      8  C   UNL     1       5.807   3.857  11.487  0.00  0.00    +0.000 C 
ATOM      9  C   UNL     1       6.346   3.255  12.787  0.00  0.00    +0.000 C 
ATOM     10  N   UNL     1       7.329   5.369  15.626  0.00  0.00    +0.000 NA
ATOM     11  C   UNL     1       7.093   5.457  16.937  0.00  0.00    +0.000 A 
ATOM     12  C   UNL     1       7.784   6.428  17.656  0.00  0.00    +0.000 A 
ATOM     13  C   UNL     1       7.641   6.572  19.038  0.00  0.00    +0.000 A 
ATOM     14  C   UNL     1       6.825   5.696  19.732  0.00  0.00    +0.000 A 
ATOM     15  C   UNL     1       6.125   4.718  19.029  0.00  0.00    +0.000 A 
ATOM     16  C   UNL     1       6.195   4.624  17.613  0.00  0.00    +0.000 A 
ENDROOT
BRANCH   1  17
ATOM     17  N   UNL     1       4.453   2.916  17.148  0.00  0.00    +0.000 N 
ATOM     18  H   UNL     1       4.778   1.965  17.005  0.00  0.00    +0.000 HD
BRANCH  17  19
ATOM     19  C   UNL     1       3.017   3.096  17.018  0.00  0.00    +0.000 C 
BRANCH  19  24
ATOM     20  C   UNL     1       2.140   7.440  19.909  0.00  0.00    +0.000 A 
ATOM     21  C   UNL     1       2.590   7.250  18.610  0.00  0.00    +0.000 A 
ATOM     22  C   UNL     1       2.664   5.958  18.074  0.00  0.00    +0.000 A 
ATOM     23  C   UNL     1       2.293   4.813  18.824  0.00  0.00    +0.000 A 
ATOM     24  C   UNL     1       2.399   3.465  18.361  0.00  0.00    +0.000 A 
ATOM     25  C   UNL     1       1.901   2.423  19.176  0.00  0.00    +0.000 A 
ATOM     26  C   UNL     1       1.377   2.674  20.437  0.00  0.00    +0.000 A 
ATOM     27  C   UNL     1       1.338   3.976  20.918  0.00  0.00    +0.000 A 
ATOM     28  C   UNL     1       1.786   5.044  20.134  0.00  0.00    +0.000 A 
ATOM     29  C   UNL     1       1.732   6.344  20.661  0.00  0.00    +0.000 A 
ENDBRANCH  19  24
ENDBRANCH  17  19
ENDBRANCH   1  17
TORSDOF 3
ENDMDL
MODEL 4
REMARK VINA RESULT:      -8.5      3.114      9.383
REMARK  Name = 
REMARK  3 active torsions:
REMARK  status: ('A' for Active; 'I' for Inactive)
REMARK    1  A    between atoms: C_5  and  C_6
REMARK    2  A    between atoms: C_6  and  N_7
REMARK    3  A    between atoms: N_7  and  C_8
REMARK                            x       y       z     vdW  Elec       q    Type
REMARK                         _______ _______ _______ _____ _____    ______ ____
ROOT
ATOM      1  C   UNL     1      -0.626  10.706  19.483  0.00  0.00    +0.000 A 
ATOM      2  N   UNL     1      -0.879  11.422  20.593  0.00  0.00    +0.000 NA
ATOM      3  C   UNL     1      -2.030  12.095  20.705  0.00  0.00    +0.000 A 
ATOM      4  N   UNL     1      -2.284  12.796  21.859  0.00  0.00    +0.000 N 
ATOM      5  C   UNL     1      -3.575  13.427  22.089  0.00  0.00    +0.000 C 
ATOM      6  C   UNL     1      -3.332  14.850  22.598  0.00  0.00    +0.000 C 
ATOM      7  C   UNL     1      -2.399  14.867  23.811  0.00  0.00    +0.000 C 
ATOM      8  C   UNL     1      -1.114  14.081  23.545  0.00  0.00    +0.000 C 
ATOM      9  C   UNL     1      -1.410  12.676  23.016  0.00  0.00    +0.000 C 
ATOM     10  N   UNL     1      -2.920  12.142  19.710  0.00  0.00    +0.000 NA
ATOM     11  C   UNL     1      -2.690  11.423  18.609  0.00  0.00    +0.000 A 
ATOM     12  C   UNL     1      -3.625  11.493  17.581  0.00  0.00    +0.000 A 
ATOM     13  C   UNL     1      -3.499  10.746  16.408  0.00  0.00    +0.000 A 
ATOM     14  C   UNL     1      -2.437   9.869  16.271  0.00  0.00    +0.000 A 
ATOM     15  C   UNL     1      -1.490   9.786  17.289  0.00  0.00    +0.000 A 
ATOM     16  C   UNL     1      -1.563  10.608  18.445  0.00  0.00    +0.000 A 
ENDROOT
BRANCH   1  17
ATOM     17  N   UNL     1       0.605  10.103  19.546  0.00  0.00    +0.000 N 
ATOM     18  H   UNL     1       1.074  10.256  18.659  0.00  0.00    +0.000 HD
BRANCH  17  19
ATOM     19  C   UNL     1       0.987   8.884  20.237  0.00  0.00    +0.000 C 
BRANCH  19  24
ATOM     20  C   UNL     1       3.008   3.994  20.209  0.00  0.00    +0.000 A 
ATOM     21  C   UNL     1       2.059   4.614  21.009  0.00  0.00    +0.000 A 
ATOM     22  C   UNL     1       1.662   5.930  20.736  0.00  0.00    +0.000 A 
ATOM     23  C   UNL     1       2.208   6.669  19.656  0.00  0.00    +0.000 A 
ATOM     24  C   UNL     1       1.894   8.031  19.358  0.00  0.00    +0.000 A 
ATOM     25  C   UNL     1       2.435   8.617  18.191  0.00  0.00    +0.000 A 
ATOM     26  C   UNL     1       3.316   7.922  17.372  0.00  0.00    +0.000 A 
ATOM     27  C   UNL     1       3.679   6.623  17.697  0.00  0.00    +0.000 A 
ATOM     28  C   UNL     1       3.140   5.989  18.822  0.00  0.00    +0.000 A 
ATOM     29  C   UNL     1       3.537   4.675  19.117  0.00  0.00    +0.000 A 
ENDBRANCH  19  24
ENDBRANCH  17  19
ENDBRANCH   1  17
TORSDOF 3
ENDMDL
MODEL 5
REMARK VINA RESULT:      -8.3      3.099      8.093
REMARK  Name = 
REMARK  3 active torsions:
REMARK  status: ('A' for Active; 'I' for Inactive)
REMARK    1  A    between atoms: C_5  and  C_6
REMARK    2  A    between atoms: C_6  and  N_7
REMARK    3  A    between atoms: N_7  and  C_8
REMARK                            x       y       z     vdW  Elec       q    Type
REMARK                         _______ _______ _______ _____ _____    ______ ____
ROOT
ATOM      1  C   UNL     1       1.185  10.247  19.422  0.00  0.00    +0.000 A 
ATOM      2  N   UNL     1       1.742  11.423  19.083  0.00  0.00    +0.000 NA
ATOM      3  C   UNL     1       1.646  12.471  19.911  0.00  0.00    +0.000 A 
ATOM      4  N   UNL     1       2.247  13.656  19.561  0.00  0.00    +0.000 N 
ATOM      5  C   UNL     1       2.292  14.778  20.485  0.00  0.00    +0.000 C 
ATOM      6  C   UNL     1       1.889  16.044  19.726  0.00  0.00    +0.000 C 
ATOM      7  C   UNL     1       2.726  16.238  18.459  0.00  0.00    +0.000 C 
ATOM      8  C   UNL     1       2.737  14.977  17.593  0.00  0.00    +0.000 C 
ATOM      9  C   UNL     1       3.123  13.738  18.403  0.00  0.00    +0.000 C 
ATOM     10  N   UNL     1       0.945  12.410  21.047  0.00  0.00    +0.000 NA
ATOM     11  C   UNL     1       0.402  11.244  21.404  0.00  0.00    +0.000 A 
ATOM     12  C   UNL     1      -0.331  11.206  22.586  0.00  0.00    +0.000 A 
ATOM     13  C   UNL     1      -0.902  10.027  23.070  0.00  0.00    +0.000 A 
ATOM     14  C   UNL     1      -0.701   8.842  22.383  0.00  0.00    +0.000 A 
ATOM     15  C   UNL     1       0.030   8.861  21.197  0.00  0.00    +0.000 A 
ATOM     16  C   UNL     1       0.537  10.071  20.653  0.00  0.00    +0.000 A 
ENDROOT
BRANCH   1  17
ATOM     17  N   UNL     1       1.374   9.304  18.443  0.00  0.00    +0.000 N 
ATOM     18  H   UNL     1       0.648   8.602  18.543  0.00  0.00    +0.000 HD
BRANCH  17  19
ATOM     19  C   UNL     1       2.619   8.820  17.873  0.00  0.00    +0.000 C 
BRANCH  19  24
ATOM     20  C   UNL     1       5.368   4.623  16.192  0.00  0.00    +0.000 A 
ATOM     21  C   UNL     1       5.322   5.945  15.775  0.00  0.00    +0.000 A 
ATOM     22  C   UNL     1       4.532   6.873  16.465  0.00  0.00    +0.000 A 
ATOM     23  C   UNL     1       3.758   6.505  17.596  0.00  0.00    +0.000 A 
ATOM     24  C   UNL     1       2.886   7.384  18.309  0.00  0.00    +0.000 A 
ATOM     25  C   UNL     1       2.249   6.913  19.479  0.00  0.00    +0.000 A 
ATOM     26  C   UNL     1       2.397   5.600  19.907  0.00  0.00    +0.000 A 
ATOM     27  C   UNL     1       3.187   4.723  19.176  0.00  0.00    +0.000 A 
ATOM     28  C   UNL     1       3.867   5.154  18.032  0.00  0.00    +0.000 A 
ATOM     29  C   UNL     1       4.652   4.234  17.320  0.00  0.00    +0.000 A 
ENDBRANCH  19  24
ENDBRANCH  17  19
ENDBRANCH   1  17
TORSDOF 3
ENDMDL
MODEL 6
REMARK VINA RESULT:      -8.2      2.373      5.505
REMARK  Name = 
REMARK  3 active torsions:
REMARK  status: ('A' for Active; 'I' for Inactive)
REMARK    1  A    between atoms: C_5  and  C_6
REMARK    2  A    between atoms: C_6  and  N_7
REMARK    3  A    between atoms: N_7  and  C_8
REMARK                            x       y       z     vdW  Elec       q    Type
REMARK                         _______ _______ _______ _____ _____    ______ ____
ROOT
ATOM      1  C   UNL     1       0.612  10.349  19.377  0.00  0.00    +0.000 A 
ATOM      2  N   UNL     1       1.347   9.366  18.828  0.00  0.00    +0.000 NA
ATOM      3  C   UNL     1       1.684   8.296  19.559  0.00  0.00    +0.000 A 
ATOM      4  N   UNL     1       2.409   7.288  18.971  0.00  0.00    +0.000 N 
ATOM      5  C   UNL     1       2.679   6.044  19.677  0.00  0.00    +0.000 C 
ATOM      6  C   UNL     1       4.160   5.702  19.500  0.00  0.00    +0.000 C 
ATOM      7  C   UNL     1       4.567   5.688  18.024  0.00  0.00    +0.000 C 
ATOM      8  C   UNL     1       4.143   6.973  17.311  0.00  0.00    +0.000 C 
ATOM      9  C   UNL     1       2.662   7.284  17.539  0.00  0.00    +0.000 C 
ATOM     10  N   UNL     1       1.373   8.201  20.854  0.00  0.00    +0.000 NA
ATOM     11  C   UNL     1       0.631   9.161  21.408  0.00  0.00    +0.000 A 
ATOM     12  C   UNL     1       0.327   9.046  22.762  0.00  0.00    +0.000 A 
ATOM     13  C   UNL     1      -0.480   9.974  23.424  0.00  0.00    +0.000 A 
ATOM     14  C   UNL     1      -1.038  11.021  22.712  0.00  0.00    +0.000 A 
ATOM     15  C   UNL     1      -0.745  11.153  21.357  0.00  0.00    +0.000 A 
ATOM     16  C   UNL     1       0.147  10.265  20.697  0.00  0.00    +0.000 A 
ENDROOT
BRANCH   1  17
ATOM     17  N   UNL     1       0.385  11.363  18.481  0.00  0.00    +0.000 N 
ATOM     18  H   UNL     1       1.284  11.734  18.194  0.00  0.00    +0.000 HD
BRANCH  17  19
ATOM     19  C   UNL     1      -0.709  12.318  18.447  0.00  0.00    +0.000 C 
BRANCH  19  24
ATOM     20  C   UNL     1      -5.800  11.923  19.835  0.00  0.00    +0.000 A 
ATOM     21  C   UNL     1      -4.750  12.691  20.319  0.00  0.00    +0.000 A 
ATOM     22  C   UNL     1      -3.495  12.636  19.699  0.00  0.00    +0.000 A 
ATOM     23  C   UNL     1      -3.250  11.807  18.575  0.00  0.00    +0.000 A 
ATOM     24  C   UNL     1      -1.983  11.657  17.932  0.00  0.00    +0.000 A 
ATOM     25  C   UNL     1      -1.900  10.872  16.760  0.00  0.00    +0.000 A 
ATOM     26  C   UNL     1      -3.004  10.192  16.263  0.00  0.00    +0.000 A 
ATOM     27  C   UNL     1      -4.221  10.277  16.926  0.00  0.00    +0.000 A 
ATOM     28  C   UNL     1      -4.359  11.071  18.069  0.00  0.00    +0.000 A 
ATOM     29  C   UNL     1      -5.607  11.126  18.711  0.00  0.00    +0.000 A 
ENDBRANCH  19  24
ENDBRANCH  17  19
ENDBRANCH   1  17
TORSDOF 3
ENDMDL
MODEL 7
REMARK VINA RESULT:      -8.2      4.405     10.023
REMARK  Name = 
REMARK  3 active torsions:
REMARK  status: ('A' for Active; 'I' for Inactive)
REMARK    1  A    between atoms: C_5  and  C_6
REMARK    2  A    between atoms: C_6  and  N_7
REMARK    3  A    between atoms: N_7  and  C_8
REMARK                            x       y       z     vdW  Elec       q    Type
REMARK                         _______ _______ _______ _____ _____    ______ ____
ROOT
ATOM      1  C   UNL     1      -2.213  12.171  19.374  0.00  0.00    +0.000 A 
ATOM      2  N   UNL     1      -3.007  12.536  20.396  0.00  0.00    +0.000 NA
ATOM      3  C   UNL     1      -4.336  12.431  20.278  0.00  0.00    +0.000 A 
ATOM      4  N   UNL     1      -5.130  12.780  21.344  0.00  0.00    +0.000 N 
ATOM      5  C   UNL     1      -6.567  12.553  21.319  0.00  0.00    +0.000 C 
ATOM      6  C   UNL     1      -7.264  13.822  21.813  0.00  0.00    +0.000 C 
ATOM      7  C   UNL     1      -6.723  14.275  23.171  0.00  0.00    +0.000 C 
ATOM      8  C   UNL     1      -5.196  14.374  23.164  0.00  0.00    +0.000 C 
ATOM      9  C   UNL     1      -4.549  13.090  22.641  0.00  0.00    +0.000 C 
ATOM     10  N   UNL     1      -4.915  12.039  19.140  0.00  0.00    +0.000 NA
ATOM     11  C   UNL     1      -4.139  11.658  18.123  0.00  0.00    +0.000 A 
ATOM     12  C   UNL     1      -4.763  11.262  16.944  0.00  0.00    +0.000 A 
ATOM     13  C   UNL     1      -4.043  10.804  15.839  0.00  0.00    +0.000 A 
ATOM     14  C   UNL     1      -2.665  10.693  15.923  0.00  0.00    +0.000 A 
ATOM     15  C   UNL     1      -2.023  11.085  17.095  0.00  0.00    +0.000 A 
ATOM     16  C   UNL     1      -2.741  11.636  18.190  0.00  0.00    +0.000 A 
ENDROOT
BRANCH   1  17
ATOM     17  N   UNL     1      -0.888  12.366  19.675  0.00  0.00    +0.000 N 
ATOM     18  H   UNL     1      -0.760  13.348  19.896  0.00  0.00    +0.000 HD
BRANCH  17  19
ATOM     19  C   UNL     1       0.279  11.708  19.116  0.00  0.00    +0.000 C 
BRANCH  19  24
ATOM     20  C   UNL     1       2.672   7.042  18.409  0.00  0.00    +0.000 A 
ATOM     21  C   UNL     1       2.523   8.155  17.594  0.00  0.00    +0.000 A 
ATOM     22  C   UNL     1       1.883   9.302  18.081  0.00  0.00    +0.000 A 
ATOM     23  C   UNL     1       1.366   9.368  19.400  0.00  0.00    +0.000 A 
ATOM     24  C   UNL     1       0.650  10.481  19.940  0.00  0.00    +0.000 A 
ATOM     25  C   UNL     1       0.275  10.454  21.303  0.00  0.00    +0.000 A 
ATOM     26  C   UNL     1       0.526   9.348  22.103  0.00  0.00    +0.000 A 
ATOM     27  C   UNL     1       1.158   8.236  21.562  0.00  0.00    +0.000 A 
ATOM     28  C   UNL     1       1.579   8.230  20.228  0.00  0.00    +0.000 A 
ATOM     29  C   UNL     1       2.211   7.084  19.720  0.00  0.00    +0.000 A 
ENDBRANCH  19  24
ENDBRANCH  17  19
ENDBRANCH   1  17
TORSDOF 3
ENDMDL
MODEL 8
REMARK VINA RESULT:      -8.1      1.586      7.144
REMARK  Name = 
REMARK  3 active torsions:
REMARK  status: ('A' for Active; 'I' for Inactive)
REMARK    1  A    between atoms: C_5  and  C_6
REMARK    2  A    between atoms: C_6  and  N_7
REMARK    3  A    between atoms: N_7  and  C_8
REMARK                            x       y       z     vdW  Elec       q    Type
REMARK                         _______ _______ _______ _____ _____    ______ ____
ROOT
ATOM      1  C   UNL     1       2.520   4.476  18.262  0.00  0.00    +0.000 A 
ATOM      2  N   UNL     1       2.378   5.813  18.249  0.00  0.00    +0.000 NA
ATOM      3  C   UNL     1       2.042   6.460  19.371  0.00  0.00    +0.000 A 
ATOM      4  N   UNL     1       1.931   7.829  19.345  0.00  0.00    +0.000 N 
ATOM      5  C   UNL     1       1.708   8.590  20.565  0.00  0.00    +0.000 C 
ATOM      6  C   UNL     1       0.596   9.608  20.300  0.00  0.00    +0.000 C 
ATOM      7  C   UNL     1       0.894  10.467  19.069  0.00  0.00    +0.000 C 
ATOM      8  C   UNL     1       1.242   9.607  17.853  0.00  0.00    +0.000 C 
ATOM      9  C   UNL     1       2.341   8.591  18.176  0.00  0.00    +0.000 C 
ATOM     10  N   UNL     1       1.767   5.810  20.505  0.00  0.00    +0.000 NA
ATOM     11  C   UNL     1       1.920   4.484  20.538  0.00  0.00    +0.000 A 
ATOM     12  C   UNL     1       1.619   3.826  21.727  0.00  0.00    +0.000 A 
ATOM     13  C   UNL     1       1.788   2.448  21.877  0.00  0.00    +0.000 A 
ATOM     14  C   UNL     1       2.313   1.709  20.831  0.00  0.00    +0.000 A 
ATOM     15  C   UNL     1       2.619   2.350  19.633  0.00  0.00    +0.000 A 
ATOM     16  C   UNL     1       2.366   3.735  19.443  0.00  0.00    +0.000 A 
ENDROOT
BRANCH   1  17
ATOM     17  N   UNL     1       2.849   3.995  17.020  0.00  0.00    +0.000 N 
ATOM     18  H   UNL     1       1.986   3.810  16.519  0.00  0.00    +0.000 HD
BRANCH  17  19
ATOM     19  C   UNL     1       3.971   3.156  16.636  0.00  0.00    +0.000 C 
BRANCH  19  24
ATOM     20  C   UNL     1       7.626   6.284  18.841  0.00  0.00    +0.000 A 
ATOM     21  C   UNL     1       6.672   5.430  19.377  0.00  0.00    +0.000 A 
ATOM     22  C   UNL     1       5.864   4.659  18.530  0.00  0.00    +0.000 A 
ATOM     23  C   UNL     1       5.984   4.721  17.119  0.00  0.00    +0.000 A 
ATOM     24  C   UNL     1       5.154   4.010  16.198  0.00  0.00    +0.000 A 
ATOM     25  C   UNL     1       5.446   4.087  14.817  0.00  0.00    +0.000 A 
ATOM     26  C   UNL     1       6.471   4.890  14.335  0.00  0.00    +0.000 A 
ATOM     27  C   UNL     1       7.233   5.639  15.222  0.00  0.00    +0.000 A 
ATOM     28  C   UNL     1       7.005   5.566  16.600  0.00  0.00    +0.000 A 
ATOM     29  C   UNL     1       7.796   6.343  17.462  0.00  0.00    +0.000 A 
ENDBRANCH  19  24
ENDBRANCH  17  19
ENDBRANCH   1  17
TORSDOF 3
ENDMDL
MODEL 9
REMARK VINA RESULT:      -8.1      1.312      2.184
REMARK  Name = 
REMARK  3 active torsions:
REMARK  status: ('A' for Active; 'I' for Inactive)
REMARK    1  A    between atoms: C_5  and  C_6
REMARK    2  A    between atoms: C_6  and  N_7
REMARK    3  A    between atoms: N_7  and  C_8
REMARK                            x       y       z     vdW  Elec       q    Type
REMARK                         _______ _______ _______ _____ _____    ______ ____
ROOT
ATOM      1  C   UNL     1       2.311   5.806  19.873  0.00  0.00    +0.000 A 
ATOM      2  N   UNL     1       3.331   6.167  19.075  0.00  0.00    +0.000 NA
ATOM      3  C   UNL     1       4.305   5.291  18.798  0.00  0.00    +0.000 A 
ATOM      4  N   UNL     1       5.323   5.670  17.956  0.00  0.00    +0.000 N 
ATOM      5  C   UNL     1       6.326   4.714  17.512  0.00  0.00    +0.000 C 
ATOM      6  C   UNL     1       7.705   5.361  17.661  0.00  0.00    +0.000 C 
ATOM      7  C   UNL     1       7.775   6.719  16.957  0.00  0.00    +0.000 C 
ATOM      8  C   UNL     1       6.620   7.630  17.377  0.00  0.00    +0.000 C 
ATOM      9  C   UNL     1       5.267   6.930  17.232  0.00  0.00    +0.000 C 
ATOM     10  N   UNL     1       4.339   4.076  19.350  0.00  0.00    +0.000 NA
ATOM     11  C   UNL     1       3.324   3.697  20.131  0.00  0.00    +0.000 A 
ATOM     12  C   UNL     1       3.385   2.430  20.704  0.00  0.00    +0.000 A 
ATOM     13  C   UNL     1       2.355   1.924  21.500  0.00  0.00    +0.000 A 
ATOM     14  C   UNL     1       1.212   2.680  21.695  0.00  0.00    +0.000 A 
ATOM     15  C   UNL     1       1.133   3.951  21.130  0.00  0.00    +0.000 A 
ATOM     16  C   UNL     1       2.214   4.507  20.395  0.00  0.00    +0.000 A 
ENDROOT
BRANCH   1  17
ATOM     17  N   UNL     1       1.426   6.838  20.053  0.00  0.00    +0.000 N 
ATOM     18  H   UNL     1       1.051   7.090  19.144  0.00  0.00    +0.000 HD
BRANCH  17  19
ATOM     19  C   UNL     1       1.479   7.926  21.014  0.00  0.00    +0.000 C 
BRANCH  19  24
ATOM     20  C   UNL     1      -1.777  11.813  22.526  0.00  0.00    +0.000 A 
ATOM     21  C   UNL     1      -1.169  10.774  23.216  0.00  0.00    +0.000 A 
ATOM     22  C   UNL     1      -0.282   9.915  22.554  0.00  0.00    +0.000 A 
ATOM     23  C   UNL     1       0.020  10.066  21.177  0.00  0.00    +0.000 A 
ATOM     24  C   UNL     1       0.866   9.192  20.427  0.00  0.00    +0.000 A 
ATOM     25  C   UNL     1       1.162   9.515  19.084  0.00  0.00    +0.000 A 
ATOM     26  C   UNL     1       0.595  10.619  18.461  0.00  0.00    +0.000 A 
ATOM     27  C   UNL     1      -0.284  11.431  19.166  0.00  0.00    +0.000 A 
ATOM     28  C   UNL     1      -0.578  11.171  20.509  0.00  0.00    +0.000 A 
ATOM     29  C   UNL     1      -1.475  12.014  21.183  0.00  0.00    +0.000 A 
ENDBRANCH  19  24
ENDBRANCH  17  19
ENDBRANCH   1  17
TORSDOF 3
ENDMDL
