MODEL 1
REMARK VINA RESULT:      -8.3      0.000      0.000
REMARK  Name = 
REMARK  9 active torsions:
REMARK  status: ('A' for Active; 'I' for Inactive)
REMARK    1  A    between atoms: C_2  and  C_4
REMARK    2  A    between atoms: N_7  and  C_8
REMARK    3  A    between atoms: C_12  and  O_13
REMARK    4  A    between atoms: O_13  and  C_14
REMARK    5  A    between atoms: N_16  and  C_17
REMARK    6  A    between atoms: C_17  and  C_18
REMARK    7  A    between atoms: C_18  and  C_19
REMARK    8  A    between atoms: C_19  and  N_20
REMARK    9  A    between atoms: N_23  and  C_24
REMARK                            x       y       z     vdW  Elec       q    Type
REMARK                         _______ _______ _______ _____ _____    ______ ____
ROOT
ATOM      1  C   UNL     1       7.058   6.377  16.894  0.00  0.00    +0.000 C 
ATOM      2  O   UNL     1       7.764   5.444  17.236  0.00  0.00    +0.000 OA
ATOM      3  N   UNL     1       7.234   7.676  17.270  0.00  0.00    +0.000 N 
ATOM      4  H   UNL     1       6.566   8.351  16.927  0.00  0.00    +0.000 HD
ENDROOT
BRANCH   1   5
ATOM      5  O   UNL     1       5.915   6.290  16.121  0.00  0.00    +0.000 OA
BRANCH   5  10
ATOM      6  C   UNL     1       2.859   6.732  18.155  0.00  0.00    +0.000 A 
ATOM      7  C   UNL     1       2.396   5.410  18.195  0.00  0.00    +0.000 A 
ATOM      8  C   UNL     1       3.106   4.398  17.535  0.00  0.00    +0.000 A 
ATOM      9  C   UNL     1       4.295   4.691  16.868  0.00  0.00    +0.000 A 
ATOM     10  C   UNL     1       4.762   6.000  16.862  0.00  0.00    +0.000 A 
ATOM     11  C   UNL     1       4.035   7.028  17.465  0.00  0.00    +0.000 A 
BRANCH   6  15
ATOM     12  C   UNL     1       1.033   9.708  19.171  0.00  0.00    +0.000 A 
ATOM     13  C   UNL     1       1.091   8.968  20.384  0.00  0.00    +0.000 A 
ATOM     14  C   UNL     1       1.757   7.791  20.128  0.00  0.00    +0.000 A 
ATOM     15  N   UNL     1       2.151   7.776  18.805  0.00  0.00    +0.000 N 
ATOM     16  C   UNL     1       1.715   8.948  18.231  0.00  0.00    +0.000 A 
BRANCH  12  18
ATOM     17  N   UNL     1       1.208  11.923  18.303  0.00  0.00    +0.000 N 
ATOM     18  C   UNL     1       0.402  10.985  18.877  0.00  0.00    +0.000 C 
ATOM     19  O   UNL     1      -0.777  11.231  19.109  0.00  0.00    +0.000 OA
ATOM     20  H   UNL     1       0.782  12.802  18.047  0.00  0.00    +0.000 HD
ATOM     21  H   UNL     1       2.152  11.731  18.008  0.00  0.00    +0.000 HD
ENDBRANCH  12  18
ENDBRANCH   6  15
ENDBRANCH   5  10
ENDBRANCH   1   5
BRANCH   3  22
ATOM     22  C   UNL     1       8.287   8.109  18.157  0.00  0.00    +0.000 C 
BRANCH  22  23
ATOM     23  C   UNL     1       8.533   9.607  18.031  0.00  0.00    +0.000 C 
BRANCH  23  24
ATOM     24  C   UNL     1       9.142  10.224  19.299  0.00  0.00    +0.000 C 
BRANCH  24  25
ATOM     25  N   UNL     1      10.375  10.988  19.049  0.00  0.00    +0.000 NA
ATOM     26  C   UNL     1      10.347  11.717  17.754  0.00  0.00    +0.000 C 
ATOM     27  C   UNL     1       9.353  12.902  17.686  0.00  0.00    +0.000 C 
ATOM     28  N   UNL     1       9.625  13.818  18.798  0.00  0.00    +0.000 N 
ATOM     29  C   UNL     1       9.652  13.196  20.130  0.00  0.00    +0.000 C 
ATOM     30  C   UNL     1      10.614  11.984  20.128  0.00  0.00    +0.000 C 
BRANCH  28  31
ATOM     31  C   UNL     1       9.611  15.187  18.644  0.00  0.00    +0.000 A 
ATOM     32  C   UNL     1      10.785  15.953  18.623  0.00  0.00    +0.000 A 
ATOM     33  C   UNL     1      10.749  17.347  18.501  0.00  0.00    +0.000 A 
ATOM     34  C   UNL     1       9.530  18.009  18.407  0.00  0.00    +0.000 A 
ATOM     35  C   UNL     1       8.351  17.276  18.433  0.00  0.00    +0.000 A 
ATOM     36  C   UNL     1       8.397  15.885  18.550  0.00  0.00    +0.000 A 
ENDBRANCH  28  31
ENDBRANCH  24  25
ENDBRANCH  23  24
ENDBRANCH  22  23
ENDBRANCH   3  22
TORSDOF 9
ENDMDL
MODEL 2
REMARK VINA RESULT:      -8.1      3.595      5.021
REMARK  Name = 
REMARK  9 active torsions:
REMARK  status: ('A' for Active; 'I' for Inactive)
REMARK    1  A    between atoms: C_2  and  C_4
REMARK    2  A    between atoms: N_7  and  C_8
REMARK    3  A    between atoms: C_12  and  O_13
REMARK    4  A    between atoms: O_13  and  C_14
REMARK    5  A    between atoms: N_16  and  C_17
REMARK    6  A    between atoms: C_17  and  C_18
REMARK    7  A    between atoms: C_18  and  C_19
REMARK    8  A    between atoms: C_19  and  N_20
REMARK    9  A    between atoms: N_23  and  C_24
REMARK                            x       y       z     vdW  Elec       q    Type
REMARK                         _______ _______ _______ _____ _____    ______ ____
ROOT
ATOM      1  C   UNL     1       7.470   7.561  17.412  0.00  0.00    +0.000 C 
ATOM      2  O   UNL     1       6.470   7.927  16.817  0.00  0.00    +0.000 OA
ATOM      3  N   UNL     1       8.315   8.376  18.106  0.00  0.00    +0.000 N 
ATOM      4  H   UNL     1       9.118   7.945  18.542  0.00  0.00    +0.000 HD
ENDROOT
BRANCH   1   5
ATOM      5  O   UNL     1       7.970   6.273  17.443  0.00  0.00    +0.000 OA
BRANCH   5  10
ATOM      6  C   UNL     1       5.137   3.907  17.219  0.00  0.00    +0.000 A 
ATOM      7  C   UNL     1       5.234   3.534  15.871  0.00  0.00    +0.000 A 
ATOM      8  C   UNL     1       6.235   4.085  15.061  0.00  0.00    +0.000 A 
ATOM      9  C   UNL     1       7.164   4.978  15.596  0.00  0.00    +0.000 A 
ATOM     10  C   UNL     1       7.078   5.316  16.941  0.00  0.00    +0.000 A 
ATOM     11  C   UNL     1       6.052   4.819  17.747  0.00  0.00    +0.000 A 
BRANCH   6  15
ATOM     12  C   UNL     1       2.558   3.180  19.676  0.00  0.00    +0.000 A 
ATOM     13  C   UNL     1       2.607   1.969  18.932  0.00  0.00    +0.000 A 
ATOM     14  C   UNL     1       3.553   2.120  17.943  0.00  0.00    +0.000 A 
ATOM     15  N   UNL     1       4.126   3.371  18.057  0.00  0.00    +0.000 N 
ATOM     16  C   UNL     1       3.522   4.007  19.117  0.00  0.00    +0.000 A 
BRANCH  12  18
ATOM     17  N   UNL     1       1.886   2.871  21.944  0.00  0.00    +0.000 N 
ATOM     18  C   UNL     1       1.702   3.568  20.787  0.00  0.00    +0.000 C 
ATOM     19  O   UNL     1       0.867   4.464  20.722  0.00  0.00    +0.000 OA
ATOM     20  H   UNL     1       1.337   3.153  22.743  0.00  0.00    +0.000 HD
ATOM     21  H   UNL     1       2.624   2.197  22.068  0.00  0.00    +0.000 HD
ENDBRANCH  12  18
ENDBRANCH   6  15
ENDBRANCH   5  10
ENDBRANCH   1   5
BRANCH   3  22
ATOM     22  C   UNL     1       8.138   9.805  18.201  0.00  0.00    +0.000 C 
BRANCH  22  23
ATOM     23  C   UNL     1       9.447  10.541  17.943  0.00  0.00    +0.000 C 
BRANCH  23  24
ATOM     24  C   UNL     1       9.346  12.053  18.192  0.00  0.00    +0.000 C 
BRANCH  24  25
ATOM     25  N   UNL     1      10.350  12.564  19.139  0.00  0.00    +0.000 NA
ATOM     26  C   UNL     1       9.986  13.890  19.703  0.00  0.00    +0.000 C 
ATOM     27  C   UNL     1       8.775  13.888  20.668  0.00  0.00    +0.000 C 
ATOM     28  N   UNL     1       9.018  12.912  21.735  0.00  0.00    +0.000 N 
ATOM     29  C   UNL     1       9.364  11.558  21.280  0.00  0.00    +0.000 C 
ATOM     30  C   UNL     1      10.539  11.622  20.275  0.00  0.00    +0.000 C 
BRANCH  28  31
ATOM     31  C   UNL     1       8.707  13.171  23.052  0.00  0.00    +0.000 A 
ATOM     32  C   UNL     1       8.697  14.469  23.581  0.00  0.00    +0.000 A 
ATOM     33  C   UNL     1       8.413  14.709  24.931  0.00  0.00    +0.000 A 
ATOM     34  C   UNL     1       8.140  13.647  25.786  0.00  0.00    +0.000 A 
ATOM     35  C   UNL     1       8.150  12.350  25.291  0.00  0.00    +0.000 A 
ATOM     36  C   UNL     1       8.429  12.121  23.942  0.00  0.00    +0.000 A 
ENDBRANCH  28  31
ENDBRANCH  24  25
ENDBRANCH  23  24
ENDBRANCH  22  23
ENDBRANCH   3  22
TORSDOF 9
ENDMDL
MODEL 3
REMARK VINA RESULT:      -8.0      5.577      8.149
REMARK  Name = 
REMARK  9 active torsions:
REMARK  status: ('A' for Active; 'I' for Inactive)
REMARK    1  A    between atoms: C_2  and  C_4
REMARK    2  A    between atoms: N_7  and  C_8
REMARK    3  A    between atoms: C_12  and  O_13
REMARK    4  A    between atoms: O_13  and  C_14
REMARK    5  A    between atoms: N_16  and  C_17
REMARK    6  A    between atoms: C_17  and  C_18
REMARK    7  A    between atoms: C_18  and  C_19
REMARK    8  A    between atoms: C_19  and  N_20
REMARK    9  A    between atoms: N_23  and  C_24
REMARK                            x       y       z     vdW  Elec       q    Type
REMARK                         _______ _______ _______ _____ _____    ______ ____
ROOT
ATOM      1  C   UNL     1       2.070   5.867  20.019  0.00  0.00    +0.000 C 
ATOM      2  O   UNL     1       2.315   6.093  21.193  0.00  0.00    +0.000 OA
ATOM      3  N   UNL     1       1.398   4.778  19.551  0.00  0.00    +0.000 N 
ATOM      4  H   UNL     1       1.276   4.705  18.551  0.00  0.00    +0.000 HD
ENDROOT
BRANCH   1   5
ATOM      5  O   UNL     1       2.482   6.631  18.943  0.00  0.00    +0.000 OA
BRANCH   5  10
ATOM      6  C   UNL     1       0.820   9.726  20.098  0.00  0.00    +0.000 A 
ATOM      7  C   UNL     1       1.103  10.575  19.019  0.00  0.00    +0.000 A 
ATOM      8  C   UNL     1       1.850  10.103  17.933  0.00  0.00    +0.000 A 
ATOM      9  C   UNL     1       2.285   8.778  17.898  0.00  0.00    +0.000 A 
ATOM     10  C   UNL     1       1.971   7.936  18.958  0.00  0.00    +0.000 A 
ATOM     11  C   UNL     1       1.277   8.408  20.074  0.00  0.00    +0.000 A 
BRANCH   6  15
ATOM     12  C   UNL     1      -1.378  11.360  22.490  0.00  0.00    +0.000 A 
ATOM     13  C   UNL     1      -0.760  10.361  23.291  0.00  0.00    +0.000 A 
ATOM     14  C   UNL     1       0.102   9.649  22.487  0.00  0.00    +0.000 A 
ATOM     15  N   UNL     1       0.075  10.185  21.215  0.00  0.00    +0.000 N 
ATOM     16  C   UNL     1      -0.821  11.229  21.226  0.00  0.00    +0.000 A 
BRANCH  12  18
ATOM     17  N   UNL     1      -1.956  13.446  23.491  0.00  0.00    +0.000 N 
ATOM     18  C   UNL     1      -2.399  12.340  22.828  0.00  0.00    +0.000 C 
ATOM     19  O   UNL     1      -3.585  12.213  22.544  0.00  0.00    +0.000 OA
ATOM     20  H   UNL     1      -2.638  14.162  23.696  0.00  0.00    +0.000 HD
ATOM     21  H   UNL     1      -0.981  13.634  23.657  0.00  0.00    +0.000 HD
ENDBRANCH  12  18
ENDBRANCH   6  15
ENDBRANCH   5  10
ENDBRANCH   1   5
BRANCH   3  22
ATOM     22  C   UNL     1       0.904   3.724  20.404  0.00  0.00    +0.000 C 
BRANCH  22  23
ATOM     23  C   UNL     1       1.753   2.466  20.274  0.00  0.00    +0.000 C 
BRANCH  23  24
ATOM     24  C   UNL     1       2.002   2.058  18.814  0.00  0.00    +0.000 C 
BRANCH  24  25
ATOM     25  N   UNL     1       3.404   1.712  18.529  0.00  0.00    +0.000 NA
ATOM     26  C   UNL     1       3.894   2.299  17.255  0.00  0.00    +0.000 C 
ATOM     27  C   UNL     1       4.057   3.839  17.256  0.00  0.00    +0.000 C 
ATOM     28  N   UNL     1       4.920   4.225  18.378  0.00  0.00    +0.000 N 
ATOM     29  C   UNL     1       4.507   3.712  19.692  0.00  0.00    +0.000 C 
ATOM     30  C   UNL     1       4.301   2.180  19.620  0.00  0.00    +0.000 C 
BRANCH  28  31
ATOM     31  C   UNL     1       5.894   5.192  18.257  0.00  0.00    +0.000 A 
ATOM     32  C   UNL     1       7.007   5.247  19.108  0.00  0.00    +0.000 A 
ATOM     33  C   UNL     1       7.969   6.258  18.992  0.00  0.00    +0.000 A 
ATOM     34  C   UNL     1       7.831   7.245  18.023  0.00  0.00    +0.000 A 
ATOM     35  C   UNL     1       6.735   7.220  17.171  0.00  0.00    +0.000 A 
ATOM     36  C   UNL     1       5.783   6.204  17.291  0.00  0.00    +0.000 A 
ENDBRANCH  28  31
ENDBRANCH  24  25
ENDBRANCH  23  24
ENDBRANCH  22  23
ENDBRANCH   3  22
TORSDOF 9
ENDMDL
MODEL 4
REMARK VINA RESULT:      -8.0      4.955      7.869
REMARK  Name = 
REMARK  9 active torsions:
REMARK  status: ('A' for Active; 'I' for Inactive)
REMARK    1  A    between atoms: C_2  and  C_4
REMARK    2  A    between atoms: N_7  and  C_8
REMARK    3  A    between atoms: C_12  and  O_13
REMARK    4  A    between atoms: O_13  and  C_14
REMARK    5  A    between atoms: N_16  and  C_17
REMARK    6  A    between atoms: C_17  and  C_18
REMARK    7  A    between atoms: C_18  and  C_19
REMARK    8  A    between atoms: C_19  and  N_20
REMARK    9  A    between atoms: N_23  and  C_24
REMARK                            x       y       z     vdW  Elec       q    Type
REMARK                         _______ _______ _______ _____ _____    ______ ____
ROOT
ATOM      1  C   UNL     1       1.831   7.480  20.531  0.00  0.00    +0.000 C 
ATOM      2  O   UNL     1       2.053   7.905  19.409  0.00  0.00    +0.000 OA
ATOM      3  N   UNL     1       1.469   8.241  21.603  0.00  0.00    +0.000 N 
ATOM      4  H   UNL     1       1.330   7.764  22.483  0.00  0.00    +0.000 HD
ENDROOT
BRANCH   1   5
ATOM      5  O   UNL     1       1.965   6.168  20.943  0.00  0.00    +0.000 OA
BRANCH   5  10
ATOM      6  C   UNL     1       3.708   4.383  18.213  0.00  0.00    +0.000 A 
ATOM      7  C   UNL     1       2.756   3.399  17.915  0.00  0.00    +0.000 A 
ATOM      8  C   UNL     1       1.556   3.342  18.636  0.00  0.00    +0.000 A 
ATOM      9  C   UNL     1       1.284   4.285  19.628  0.00  0.00    +0.000 A 
ATOM     10  C   UNL     1       2.221   5.277  19.892  0.00  0.00    +0.000 A 
ATOM     11  C   UNL     1       3.445   5.311  19.222  0.00  0.00    +0.000 A 
BRANCH   6  15
ATOM     12  C   UNL     1       6.436   4.539  15.815  0.00  0.00    +0.000 A 
ATOM     13  C   UNL     1       7.127   4.632  17.054  0.00  0.00    +0.000 A 
ATOM     14  C   UNL     1       6.190   4.599  18.062  0.00  0.00    +0.000 A 
ATOM     15  N   UNL     1       4.935   4.453  17.505  0.00  0.00    +0.000 N 
ATOM     16  C   UNL     1       5.093   4.409  16.139  0.00  0.00    +0.000 A 
BRANCH  12  18
ATOM     17  N   UNL     1       6.502   3.583  13.630  0.00  0.00    +0.000 N 
ATOM     18  C   UNL     1       6.940   4.579  14.451  0.00  0.00    +0.000 C 
ATOM     19  O   UNL     1       7.703   5.444  14.033  0.00  0.00    +0.000 OA
ATOM     20  H   UNL     1       6.801   3.616  12.666  0.00  0.00    +0.000 HD
ATOM     21  H   UNL     1       5.802   2.913  13.904  0.00  0.00    +0.000 HD
ENDBRANCH  12  18
ENDBRANCH   6  15
ENDBRANCH   5  10
ENDBRANCH   1   5
BRANCH   3  22
ATOM     22  C   UNL     1       1.327   9.676  21.545  0.00  0.00    +0.000 C 
BRANCH  22  23
ATOM     23  C   UNL     1      -0.090  10.074  21.150  0.00  0.00    +0.000 C 
BRANCH  23  24
ATOM     24  C   UNL     1      -0.524  11.421  21.748  0.00  0.00    +0.000 C 
BRANCH  24  25
ATOM     25  N   UNL     1      -1.189  12.308  20.780  0.00  0.00    +0.000 NA
ATOM     26  C   UNL     1      -1.008  13.748  21.102  0.00  0.00    +0.000 C 
ATOM     27  C   UNL     1       0.431  14.289  20.921  0.00  0.00    +0.000 C 
ATOM     28  N   UNL     1       0.884  13.994  19.558  0.00  0.00    +0.000 N 
ATOM     29  C   UNL     1       0.766  12.587  19.148  0.00  0.00    +0.000 C 
ATOM     30  C   UNL     1      -0.673  12.080  19.404  0.00  0.00    +0.000 C 
BRANCH  28  31
ATOM     31  C   UNL     1       1.591  14.905  18.804  0.00  0.00    +0.000 A 
ATOM     32  C   UNL     1       2.783  14.572  18.145  0.00  0.00    +0.000 A 
ATOM     33  C   UNL     1       3.506  15.522  17.413  0.00  0.00    +0.000 A 
ATOM     34  C   UNL     1       3.054  16.834  17.334  0.00  0.00    +0.000 A 
ATOM     35  C   UNL     1       1.881  17.194  17.983  0.00  0.00    +0.000 A 
ATOM     36  C   UNL     1       1.163  16.239  18.706  0.00  0.00    +0.000 A 
ENDBRANCH  28  31
ENDBRANCH  24  25
ENDBRANCH  23  24
ENDBRANCH  22  23
ENDBRANCH   3  22
TORSDOF 9
ENDMDL
MODEL 5
REMARK VINA RESULT:      -7.9      5.349      7.943
REMARK  Name = 
REMARK  9 active torsions:
REMARK  status: ('A' for Active; 'I' for Inactive)
REMARK    1  A    between atoms: C_2  and  C_4
REMARK    2  A    between atoms: N_7  and  C_8
REMARK    3  A    between atoms: C_12  and  O_13
REMARK    4  A    between atoms: O_13  and  C_14
REMARK    5  A    between atoms: N_16  and  C_17
REMARK    6  A    between atoms: C_17  and  C_18
REMARK    7  A    between atoms: C_18  and  C_19
REMARK    8  A    between atoms: C_19  and  N_20
REMARK    9  A    between atoms: N_23  and  C_24
REMARK                            x       y       z     vdW  Elec       q    Type
REMARK                         _______ _______ _______ _____ _____    ______ ____
ROOT
ATOM      1  C   UNL     1       1.759   7.390  20.492  0.00  0.00    +0.000 C 
ATOM      2  O   UNL     1       2.034   7.959  19.449  0.00  0.00    +0.000 OA
ATOM      3  N   UNL     1       1.305   7.998  21.625  0.00  0.00    +0.000 N 
ATOM      4  H   UNL     1       1.130   7.409  22.427  0.00  0.00    +0.000 HD
ENDROOT
BRANCH   1   5
ATOM      5  O   UNL     1       1.916   6.040  20.745  0.00  0.00    +0.000 OA
BRANCH   5  10
ATOM      6  C   UNL     1       3.722   4.678  17.820  0.00  0.00    +0.000 A 
ATOM      7  C   UNL     1       2.825   3.676  17.421  0.00  0.00    +0.000 A 
ATOM      8  C   UNL     1       1.642   3.468  18.141  0.00  0.00    +0.000 A 
ATOM      9  C   UNL     1       1.328   4.277  19.234  0.00  0.00    +0.000 A 
ATOM     10  C   UNL     1       2.208   5.288  19.600  0.00  0.00    +0.000 A 
ATOM     11  C   UNL     1       3.418   5.471  18.928  0.00  0.00    +0.000 A 
BRANCH   6  15
ATOM     12  C   UNL     1       6.473   4.953  15.459  0.00  0.00    +0.000 A 
ATOM     13  C   UNL     1       7.018   5.567  16.620  0.00  0.00    +0.000 A 
ATOM     14  C   UNL     1       6.054   5.540  17.603  0.00  0.00    +0.000 A 
ATOM     15  N   UNL     1       4.932   4.901  17.114  0.00  0.00    +0.000 N 
ATOM     16  C   UNL     1       5.197   4.539  15.813  0.00  0.00    +0.000 A 
BRANCH  12  18
ATOM     17  N   UNL     1       6.520   3.747  13.401  0.00  0.00    +0.000 N 
ATOM     18  C   UNL     1       7.047   4.768  14.135  0.00  0.00    +0.000 C 
ATOM     19  O   UNL     1       7.940   5.472  13.676  0.00  0.00    +0.000 OA
ATOM     20  H   UNL     1       6.869   3.628  12.461  0.00  0.00    +0.000 HD
ATOM     21  H   UNL     1       5.723   3.209  13.701  0.00  0.00    +0.000 HD
ENDBRANCH  12  18
ENDBRANCH   6  15
ENDBRANCH   5  10
ENDBRANCH   1   5
BRANCH   3  22
ATOM     22  C   UNL     1       1.115   9.424  21.737  0.00  0.00    +0.000 C 
BRANCH  22  23
ATOM     23  C   UNL     1      -0.050   9.895  20.875  0.00  0.00    +0.000 C 
BRANCH  23  24
ATOM     24  C   UNL     1      -0.366  11.387  21.055  0.00  0.00    +0.000 C 
BRANCH  24  25
ATOM     25  N   UNL     1       0.832  12.236  21.156  0.00  0.00    +0.000 NA
ATOM     26  C   UNL     1       1.506  12.435  19.846  0.00  0.00    +0.000 C 
ATOM     27  C   UNL     1       0.725  13.300  18.826  0.00  0.00    +0.000 C 
ATOM     28  N   UNL     1       0.393  14.586  19.447  0.00  0.00    +0.000 N 
ATOM     29  C   UNL     1      -0.299  14.498  20.742  0.00  0.00    +0.000 C 
ATOM     30  C   UNL     1       0.491  13.576  21.701  0.00  0.00    +0.000 C 
BRANCH  28  31
ATOM     31  C   UNL     1       0.494  15.780  18.766  0.00  0.00    +0.000 A 
ATOM     32  C   UNL     1       1.721  16.281  18.307  0.00  0.00    +0.000 A 
ATOM     33  C   UNL     1       1.808  17.513  17.648  0.00  0.00    +0.000 A 
ATOM     34  C   UNL     1       0.666  18.278  17.442  0.00  0.00    +0.000 A 
ATOM     35  C   UNL     1      -0.561  17.809  17.893  0.00  0.00    +0.000 A 
ATOM     36  C   UNL     1      -0.640  16.577  18.545  0.00  0.00    +0.000 A 
ENDBRANCH  28  31
ENDBRANCH  24  25
ENDBRANCH  23  24
ENDBRANCH  22  23
ENDBRANCH   3  22
TORSDOF 9
ENDMDL
MODEL 6
REMARK VINA RESULT:      -7.9      6.444      8.446
REMARK  Name = 
REMARK  9 active torsions:
REMARK  status: ('A' for Active; 'I' for Inactive)
REMARK    1  A    between atoms: C_2  and  C_4
REMARK    2  A    between atoms: N_7  and  C_8
REMARK    3  A    between atoms: C_12  and  O_13
REMARK    4  A    between atoms: O_13  and  C_14
REMARK    5  A    between atoms: N_16  and  C_17
REMARK    6  A    between atoms: C_17  and  C_18
REMARK    7  A    between atoms: C_18  and  C_19
REMARK    8  A    between atoms: C_19  and  N_20
REMARK    9  A    between atoms: N_23  and  C_24
REMARK                            x       y       z     vdW  Elec       q    Type
REMARK                         _______ _______ _______ _____ _____    ______ ____
ROOT
ATOM      1  C   UNL     1       1.707   4.945  20.641  0.00  0.00    +0.000 C 
ATOM      2  O   UNL     1       0.611   4.519  20.316  0.00  0.00    +0.000 OA
ATOM      3  N   UNL     1       2.880   4.259  20.536  0.00  0.00    +0.000 N 
ATOM      4  H   UNL     1       3.717   4.724  20.857  0.00  0.00    +0.000 HD
ENDROOT
BRANCH   1   5
ATOM      5  O   UNL     1       1.959   6.168  21.235  0.00  0.00    +0.000 OA
BRANCH   5  10
ATOM      6  C   UNL     1       1.022   9.522  19.992  0.00  0.00    +0.000 A 
ATOM      7  C   UNL     1       1.528   9.451  18.686  0.00  0.00    +0.000 A 
ATOM      8  C   UNL     1       2.180   8.291  18.249  0.00  0.00    +0.000 A 
ATOM      9  C   UNL     1       2.297   7.186  19.093  0.00  0.00    +0.000 A 
ATOM     10  C   UNL     1       1.763   7.256  20.374  0.00  0.00    +0.000 A 
ATOM     11  C   UNL     1       1.162   8.425  20.843  0.00  0.00    +0.000 A 
BRANCH   6  15
ATOM     12  C   UNL     1      -0.777  12.124  21.783  0.00  0.00    +0.000 A 
ATOM     13  C   UNL     1      -0.416  12.790  20.580  0.00  0.00    +0.000 A 
ATOM     14  C   UNL     1       0.296  11.902  19.804  0.00  0.00    +0.000 A 
ATOM     15  N   UNL     1       0.368  10.690  20.461  0.00  0.00    +0.000 N 
ATOM     16  C   UNL     1      -0.293  10.830  21.660  0.00  0.00    +0.000 A 
BRANCH  12  18
ATOM     17  N   UNL     1      -2.524  11.846  23.384  0.00  0.00    +0.000 N 
ATOM     18  C   UNL     1      -1.484  12.617  22.955  0.00  0.00    +0.000 C 
ATOM     19  O   UNL     1      -1.184  13.648  23.547  0.00  0.00    +0.000 OA
ATOM     20  H   UNL     1      -3.000  12.143  24.223  0.00  0.00    +0.000 HD
ATOM     21  H   UNL     1      -2.741  10.947  22.987  0.00  0.00    +0.000 HD
ENDBRANCH  12  18
ENDBRANCH   6  15
ENDBRANCH   5  10
ENDBRANCH   1   5
BRANCH   3  22
ATOM     22  C   UNL     1       2.966   2.907  20.039  0.00  0.00    +0.000 C 
BRANCH  22  23
ATOM     23  C   UNL     1       4.383   2.575  19.588  0.00  0.00    +0.000 C 
BRANCH  23  24
ATOM     24  C   UNL     1       5.189   3.817  19.179  0.00  0.00    +0.000 C 
BRANCH  24  25
ATOM     25  N   UNL     1       4.528   4.637  18.152  0.00  0.00    +0.000 NA
ATOM     26  C   UNL     1       5.418   5.689  17.595  0.00  0.00    +0.000 C 
ATOM     27  C   UNL     1       6.588   5.171  16.723  0.00  0.00    +0.000 C 
ATOM     28  N   UNL     1       6.047   4.322  15.656  0.00  0.00    +0.000 N 
ATOM     29  C   UNL     1       5.168   3.233  16.106  0.00  0.00    +0.000 C 
ATOM     30  C   UNL     1       4.054   3.796  17.021  0.00  0.00    +0.000 C 
BRANCH  28  31
ATOM     31  C   UNL     1       6.516   4.380  14.362  0.00  0.00    +0.000 A 
ATOM     32  C   UNL     1       7.503   5.290  13.960  0.00  0.00    +0.000 A 
ATOM     33  C   UNL     1       7.941   5.357  12.631  0.00  0.00    +0.000 A 
ATOM     34  C   UNL     1       7.390   4.517  11.671  0.00  0.00    +0.000 A 
ATOM     35  C   UNL     1       6.405   3.610  12.039  0.00  0.00    +0.000 A 
ATOM     36  C   UNL     1       5.978   3.546  13.368  0.00  0.00    +0.000 A 
ENDBRANCH  28  31
ENDBRANCH  24  25
ENDBRANCH  23  24
ENDBRANCH  22  23
ENDBRANCH   3  22
TORSDOF 9
ENDMDL
MODEL 7
REMARK VINA RESULT:      -7.9      5.536      8.521
REMARK  Name = 
REMARK  9 active torsions:
REMARK  status: ('A' for Active; 'I' for Inactive)
REMARK    1  A    between atoms: C_2  and  C_4
REMARK    2  A    between atoms: N_7  and  C_8
REMARK    3  A    between atoms: C_12  and  O_13
REMARK    4  A    between atoms: O_13  and  C_14
REMARK    5  A    between atoms: N_16  and  C_17
REMARK    6  A    between atoms: C_17  and  C_18
REMARK    7  A    between atoms: C_18  and  C_19
REMARK    8  A    between atoms: C_19  and  N_20
REMARK    9  A    between atoms: N_23  and  C_24
REMARK                            x       y       z     vdW  Elec       q    Type
REMARK                         _______ _______ _______ _____ _____    ______ ____
ROOT
ATOM      1  C   UNL     1       4.406   3.112  19.007  0.00  0.00    +0.000 C 
ATOM      2  O   UNL     1       4.110   1.932  18.930  0.00  0.00    +0.000 OA
ATOM      3  N   UNL     1       3.595   4.151  18.659  0.00  0.00    +0.000 N 
ATOM      4  H   UNL     1       3.971   5.084  18.758  0.00  0.00    +0.000 HD
ENDROOT
BRANCH   1   5
ATOM      5  O   UNL     1       5.633   3.617  19.395  0.00  0.00    +0.000 OA
BRANCH   5  10
ATOM      6  C   UNL     1       6.712   4.992  16.137  0.00  0.00    +0.000 A 
ATOM      7  C   UNL     1       7.255   6.216  16.553  0.00  0.00    +0.000 A 
ATOM      8  C   UNL     1       7.241   6.563  17.910  0.00  0.00    +0.000 A 
ATOM      9  C   UNL     1       6.724   5.681  18.859  0.00  0.00    +0.000 A 
ATOM     10  C   UNL     1       6.219   4.457  18.439  0.00  0.00    +0.000 A 
ATOM     11  C   UNL     1       6.173   4.121  17.084  0.00  0.00    +0.000 A 
BRANCH   6  15
ATOM     12  C   UNL     1       6.115   3.658  12.808  0.00  0.00    +0.000 A 
ATOM     13  C   UNL     1       7.230   4.513  12.588  0.00  0.00    +0.000 A 
ATOM     14  C   UNL     1       7.554   5.102  13.790  0.00  0.00    +0.000 A 
ATOM     15  N   UNL     1       6.704   4.623  14.767  0.00  0.00    +0.000 N 
ATOM     16  C   UNL     1       5.837   3.740  14.164  0.00  0.00    +0.000 A 
BRANCH  12  18
ATOM     17  N   UNL     1       5.928   1.666  11.509  0.00  0.00    +0.000 N 
ATOM     18  C   UNL     1       5.352   2.847  11.871  0.00  0.00    +0.000 C 
ATOM     19  O   UNL     1       4.257   3.172  11.426  0.00  0.00    +0.000 OA
ATOM     20  H   UNL     1       5.397   1.064  10.897  0.00  0.00    +0.000 HD
ATOM     21  H   UNL     1       6.777   1.318  11.924  0.00  0.00    +0.000 HD
ENDBRANCH  12  18
ENDBRANCH   6  15
ENDBRANCH   5  10
ENDBRANCH   1   5
BRANCH   3  22
ATOM     22  C   UNL     1       2.267   3.976  18.123  0.00  0.00    +0.000 C 
BRANCH  22  23
ATOM     23  C   UNL     1       1.581   5.318  17.898  0.00  0.00    +0.000 C 
BRANCH  23  24
ATOM     24  C   UNL     1       1.374   6.111  19.197  0.00  0.00    +0.000 C 
BRANCH  24  25
ATOM     25  N   UNL     1       2.385   7.157  19.418  0.00  0.00    +0.000 NA
ATOM     26  C   UNL     1       2.611   8.001  18.215  0.00  0.00    +0.000 C 
ATOM     27  C   UNL     1       1.433   8.930  17.830  0.00  0.00    +0.000 C 
ATOM     28  N   UNL     1       1.077   9.753  18.991  0.00  0.00    +0.000 N 
ATOM     29  C   UNL     1       0.811   9.009  20.230  0.00  0.00    +0.000 C 
ATOM     30  C   UNL     1       1.990   8.054  20.536  0.00  0.00    +0.000 C 
BRANCH  28  31
ATOM     31  C   UNL     1       0.772  11.092  18.877  0.00  0.00    +0.000 A 
ATOM     32  C   UNL     1      -0.546  11.568  18.916  0.00  0.00    +0.000 A 
ATOM     33  C   UNL     1      -0.839  12.929  18.763  0.00  0.00    +0.000 A 
ATOM     34  C   UNL     1       0.187  13.845  18.556  0.00  0.00    +0.000 A 
ATOM     35  C   UNL     1       1.501  13.400  18.505  0.00  0.00    +0.000 A 
ATOM     36  C   UNL     1       1.784  12.042  18.665  0.00  0.00    +0.000 A 
ENDBRANCH  28  31
ENDBRANCH  24  25
ENDBRANCH  23  24
ENDBRANCH  22  23
ENDBRANCH   3  22
TORSDOF 9
ENDMDL
MODEL 8
REMARK VINA RESULT:      -7.8      3.024      4.348
REMARK  Name = 
REMARK  9 active torsions:
REMARK  status: ('A' for Active; 'I' for Inactive)
REMARK    1  A    between atoms: C_2  and  C_4
REMARK    2  A    between atoms: N_7  and  C_8
REMARK    3  A    between atoms: C_12  and  O_13
REMARK    4  A    between atoms: O_13  and  C_14
REMARK    5  A    between atoms: N_16  and  C_17
REMARK    6  A    between atoms: C_17  and  C_18
REMARK    7  A    between atoms: C_18  and  C_19
REMARK    8  A    between atoms: C_19  and  N_20
REMARK    9  A    between atoms: N_23  and  C_24
REMARK                            x       y       z     vdW  Elec       q    Type
REMARK                         _______ _______ _______ _____ _____    ______ ____
ROOT
ATOM      1  C   UNL     1       7.997   8.097  17.938  0.00  0.00    +0.000 C 
ATOM      2  O   UNL     1       8.375   7.285  18.766  0.00  0.00    +0.000 OA
ATOM      3  N   UNL     1       8.278   9.430  17.957  0.00  0.00    +0.000 N 
ATOM      4  H   UNL     1       7.889   9.996  17.216  0.00  0.00    +0.000 HD
ENDROOT
BRANCH   1   5
ATOM      5  O   UNL     1       7.165   7.834  16.866  0.00  0.00    +0.000 OA
BRANCH   5  10
ATOM      6  C   UNL     1       4.751   5.169  17.730  0.00  0.00    +0.000 A 
ATOM      7  C   UNL     1       5.244   4.124  16.937  0.00  0.00    +0.000 A 
ATOM      8  C   UNL     1       6.365   4.330  16.122  0.00  0.00    +0.000 A 
ATOM      9  C   UNL     1       7.020   5.562  16.122  0.00  0.00    +0.000 A 
ATOM     10  C   UNL     1       6.542   6.581  16.937  0.00  0.00    +0.000 A 
ATOM     11  C   UNL     1       5.393   6.408  17.710  0.00  0.00    +0.000 A 
BRANCH   6  15
ATOM     12  C   UNL     1       1.854   4.028  19.607  0.00  0.00    +0.000 A 
ATOM     13  C   UNL     1       1.963   5.382  20.027  0.00  0.00    +0.000 A 
ATOM     14  C   UNL     1       3.050   5.935  19.388  0.00  0.00    +0.000 A 
ATOM     15  N   UNL     1       3.611   4.988  18.555  0.00  0.00    +0.000 N 
ATOM     16  C   UNL     1       2.874   3.834  18.687  0.00  0.00    +0.000 A 
BRANCH  12  18
ATOM     17  N   UNL     1       0.894   2.709  21.348  0.00  0.00    +0.000 N 
ATOM     18  C   UNL     1       0.920   2.990  20.014  0.00  0.00    +0.000 C 
ATOM     19  O   UNL     1       0.184   2.394  19.234  0.00  0.00    +0.000 OA
ATOM     20  H   UNL     1       0.220   2.025  21.660  0.00  0.00    +0.000 HD
ATOM     21  H   UNL     1       1.408   3.240  22.031  0.00  0.00    +0.000 HD
ENDBRANCH  12  18
ENDBRANCH   6  15
ENDBRANCH   5  10
ENDBRANCH   1   5
BRANCH   3  22
ATOM     22  C   UNL     1       9.054  10.062  18.998  0.00  0.00    +0.000 C 
BRANCH  22  23
ATOM     23  C   UNL     1       9.900  11.200  18.441  0.00  0.00    +0.000 C 
BRANCH  23  24
ATOM     24  C   UNL     1       9.065  12.415  18.011  0.00  0.00    +0.000 C 
BRANCH  24  25
ATOM     25  N   UNL     1       9.747  13.703  18.218  0.00  0.00    +0.000 NA
ATOM     26  C   UNL     1       8.803  14.811  18.519  0.00  0.00    +0.000 C 
ATOM     27  C   UNL     1       8.101  14.726  19.896  0.00  0.00    +0.000 C 
ATOM     28  N   UNL     1       9.120  14.604  20.944  0.00  0.00    +0.000 N 
ATOM     29  C   UNL     1      10.093  13.519  20.751  0.00  0.00    +0.000 C 
ATOM     30  C   UNL     1      10.720  13.616  19.340  0.00  0.00    +0.000 C 
BRANCH  28  31
ATOM     31  C   UNL     1       9.032  15.287  22.138  0.00  0.00    +0.000 A 
ATOM     32  C   UNL     1       7.803  15.608  22.731  0.00  0.00    +0.000 A 
ATOM     33  C   UNL     1       7.734  16.334  23.927  0.00  0.00    +0.000 A 
ATOM     34  C   UNL     1       8.899  16.763  24.551  0.00  0.00    +0.000 A 
ATOM     35  C   UNL     1      10.130  16.466  23.982  0.00  0.00    +0.000 A 
ATOM     36  C   UNL     1      10.190  15.737  22.792  0.00  0.00    +0.000 A 
ENDBRANCH  28  31
ENDBRANCH  24  25
ENDBRANCH  23  24
ENDBRANCH  22  23
ENDBRANCH   3  22
TORSDOF 9
ENDMDL
MODEL 9
REMARK VINA RESULT:      -7.8      6.007      9.197
REMARK  Name = 
REMARK  9 active torsions:
REMARK  status: ('A' for Active; 'I' for Inactive)
REMARK    1  A    between atoms: C_2  and  C_4
REMARK    2  A    between atoms: N_7  and  C_8
REMARK    3  A    between atoms: C_12  and  O_13
REMARK    4  A    between atoms: O_13  and  C_14
REMARK    5  A    between atoms: N_16  and  C_17
REMARK    6  A    between atoms: C_17  and  C_18
REMARK    7  A    between atoms: C_18  and  C_19
REMARK    8  A    between atoms: C_19  and  N_20
REMARK    9  A    between atoms: N_23  and  C_24
REMARK                            x       y       z     vdW  Elec       q    Type
REMARK                         _______ _______ _______ _____ _____    ______ ____
ROOT
ATOM      1  C   UNL     1       7.316   5.315  19.410  0.00  0.00    +0.000 C 
ATOM      2  O   UNL     1       7.759   5.221  20.543  0.00  0.00    +0.000 OA
ATOM      3  N   UNL     1       6.232   4.641  18.931  0.00  0.00    +0.000 N 
ATOM      4  H   UNL     1       5.979   4.798  17.966  0.00  0.00    +0.000 HD
ENDROOT
BRANCH   1   5
ATOM      5  O   UNL     1       7.861   6.064  18.385  0.00  0.00    +0.000 OA
BRANCH   5  10
ATOM      6  C   UNL     1       6.267   5.555  15.087  0.00  0.00    +0.000 A 
ATOM      7  C   UNL     1       5.189   6.445  15.194  0.00  0.00    +0.000 A 
ATOM      8  C   UNL     1       5.009   7.189  16.367  0.00  0.00    +0.000 A 
ATOM      9  C   UNL     1       5.918   7.080  17.420  0.00  0.00    +0.000 A 
ATOM     10  C   UNL     1       7.002   6.220  17.289  0.00  0.00    +0.000 A 
ATOM     11  C   UNL     1       7.163   5.429  16.150  0.00  0.00    +0.000 A 
BRANCH   6  15
ATOM     12  C   UNL     1       6.147   3.275  12.258  0.00  0.00    +0.000 A 
ATOM     13  C   UNL     1       7.348   3.993  12.007  0.00  0.00    +0.000 A 
ATOM     14  C   UNL     1       7.506   4.915  13.017  0.00  0.00    +0.000 A 
ATOM     15  N   UNL     1       6.465   4.782  13.914  0.00  0.00    +0.000 N 
ATOM     16  C   UNL     1       5.647   3.778  13.450  0.00  0.00    +0.000 A 
BRANCH  12  18
ATOM     17  N   UNL     1       6.242   1.120  11.238  0.00  0.00    +0.000 N 
ATOM     18  C   UNL     1       5.493   2.234  11.480  0.00  0.00    +0.000 C 
ATOM     19  O   UNL     1       4.343   2.318  11.062  0.00  0.00    +0.000 OA
ATOM     20  H   UNL     1       5.794   0.365  10.741  0.00  0.00    +0.000 HD
ATOM     21  H   UNL     1       7.151   0.971  11.644  0.00  0.00    +0.000 HD
ENDBRANCH  12  18
ENDBRANCH   6  15
ENDBRANCH   5  10
ENDBRANCH   1   5
BRANCH   3  22
ATOM     22  C   UNL     1       5.476   3.695  19.716  0.00  0.00    +0.000 C 
BRANCH  22  23
ATOM     23  C   UNL     1       4.214   3.254  18.983  0.00  0.00    +0.000 C 
BRANCH  23  24
ATOM     24  C   UNL     1       3.094   2.804  19.934  0.00  0.00    +0.000 C 
BRANCH  24  25
ATOM     25  N   UNL     1       1.768   3.330  19.573  0.00  0.00    +0.000 NA
ATOM     26  C   UNL     1       1.219   4.257  20.597  0.00  0.00    +0.000 C 
ATOM     27  C   UNL     1       1.953   5.615  20.721  0.00  0.00    +0.000 C 
ATOM     28  N   UNL     1       1.996   6.255  19.403  0.00  0.00    +0.000 N 
ATOM     29  C   UNL     1       2.545   5.426  18.320  0.00  0.00    +0.000 C 
ATOM     30  C   UNL     1       1.819   4.061  18.278  0.00  0.00    +0.000 C 
BRANCH  28  31
ATOM     31  C   UNL     1       1.773   7.604  19.233  0.00  0.00    +0.000 A 
ATOM     32  C   UNL     1       2.099   8.277  18.047  0.00  0.00    +0.000 A 
ATOM     33  C   UNL     1       1.898   9.655  17.906  0.00  0.00    +0.000 A 
ATOM     34  C   UNL     1       1.371  10.395  18.959  0.00  0.00    +0.000 A 
ATOM     35  C   UNL     1       1.045   9.756  20.148  0.00  0.00    +0.000 A 
ATOM     36  C   UNL     1       1.245   8.380  20.277  0.00  0.00    +0.000 A 
ENDBRANCH  28  31
ENDBRANCH  24  25
ENDBRANCH  23  24
ENDBRANCH  22  23
ENDBRANCH   3  22
TORSDOF 9
ENDMDL
