MODEL 1
REMARK VINA RESULT:      -6.9      0.000      0.000
REMARK  Name = 
REMARK  8 active torsions:
REMARK  status: ('A' for Active; 'I' for Inactive)
REMARK    1  A    between atoms: C_1  and  C_2
REMARK    2  A    between atoms: N_5  and  C_6
REMARK    3  A    between atoms: C_6  and  C_7
REMARK    4  A    between atoms: C_7  and  N_8
REMARK    5  A    between atoms: N_8  and  C_9
REMARK    6  A    between atoms: C_9  and  C_10
REMARK    7  A    between atoms: C_11  and  C_12
REMARK    8  A    between atoms: N_14  and  C_15
REMARK                            x       y       z     vdW  Elec       q    Type
REMARK                         _______ _______ _______ _____ _____    ______ ____
ROOT
ATOM      1  N   UNL     1       6.459   4.160  18.723  0.00  0.00    +0.000 NA
ATOM      2  H   UNL     1       7.082   3.836  19.461  0.00  0.00    +0.000 HD
ENDROOT
BRANCH   1   3
ATOM      3  C   UNL     1       7.246   4.718  17.608  0.00  0.00    +0.000 C 
BRANCH   3   4
ATOM      4  C   UNL     1       6.443   5.585  16.629  0.00  0.00    +0.000 C 
BRANCH   4   9
ATOM      5  C   UNL     1       5.769   3.158  12.298  0.00  0.00    +0.000 C 
ATOM      6  C   UNL     1       6.280   4.030  13.379  0.00  0.00    +0.000 A 
ATOM      7  C   UNL     1       7.434   4.846  13.367  0.00  0.00    +0.000 A 
ATOM      8  N   UNL     1       7.602   5.509  14.513  0.00  0.00    +0.000 NA
ATOM      9  N   UNL     1       6.560   5.112  15.265  0.00  0.00    +0.000 N 
ATOM     10  C   UNL     1       5.741   4.228  14.630  0.00  0.00    +0.000 A 
ENDBRANCH   4   9
ENDBRANCH   3   4
ENDBRANCH   1   3
BRANCH   1  11
ATOM     11  C   UNL     1       5.532   5.147  19.269  0.00  0.00    +0.000 C 
BRANCH  11  12
ATOM     12  C   UNL     1       4.143   4.776  18.901  0.00  0.00    +0.000 A 
ATOM     13  C   UNL     1       3.122   5.586  18.321  0.00  0.00    +0.000 A 
ATOM     14  C   UNL     1       3.191   7.001  17.880  0.00  0.00    +0.000 C 
ATOM     15  N   UNL     1       1.956   4.925  18.210  0.00  0.00    +0.000 NA
ATOM     16  N   UNL     1       2.222   3.700  18.708  0.00  0.00    +0.000 N 
ATOM     17  C   UNL     1       1.163   2.727  18.800  0.00  0.00    +0.000 C 
ATOM     18  C   UNL     1       3.517   3.573  19.112  0.00  0.00    +0.000 A 
ATOM     19 CL   UNL     1       4.087   2.115  19.783  0.00  0.00    +0.000 Cl
ENDBRANCH  11  12
ENDBRANCH   1  11
TORSDOF 5
ENDMDL
MODEL 2
REMARK VINA RESULT:      -6.6      1.402      1.404
REMARK  Name = 
REMARK  8 active torsions:
REMARK  status: ('A' for Active; 'I' for Inactive)
REMARK    1  A    between atoms: C_1  and  C_2
REMARK    2  A    between atoms: N_5  and  C_6
REMARK    3  A    between atoms: C_6  and  C_7
REMARK    4  A    between atoms: C_7  and  N_8
REMARK    5  A    between atoms: N_8  and  C_9
REMARK    6  A    between atoms: C_9  and  C_10
REMARK    7  A    between atoms: C_11  and  C_12
REMARK    8  A    between atoms: N_14  and  C_15
REMARK                            x       y       z     vdW  Elec       q    Type
REMARK                         _______ _______ _______ _____ _____    ______ ____
ROOT
ATOM      1  N   UNL     1       4.842   4.742  17.515  0.00  0.00    +0.000 NA
ATOM      2  H   UNL     1       4.286   3.890  17.582  0.00  0.00    +0.000 HD
ENDROOT
BRANCH   1   3
ATOM      3  C   UNL     1       6.238   4.407  17.180  0.00  0.00    +0.000 C 
BRANCH   3   4
ATOM      4  C   UNL     1       6.926   5.401  16.236  0.00  0.00    +0.000 C 
BRANCH   4   9
ATOM      5  C   UNL     1       5.841   2.966  11.993  0.00  0.00    +0.000 C 
ATOM      6  C   UNL     1       6.415   3.880  13.005  0.00  0.00    +0.000 A 
ATOM      7  C   UNL     1       7.446   4.832  12.834  0.00  0.00    +0.000 A 
ATOM      8  N   UNL     1       7.721   5.496  13.958  0.00  0.00    +0.000 NA
ATOM      9  N   UNL     1       6.872   4.964  14.856  0.00  0.00    +0.000 N 
ATOM     10  C   UNL     1       6.071   3.994  14.333  0.00  0.00    +0.000 A 
ENDBRANCH   4   9
ENDBRANCH   3   4
ENDBRANCH   1   3
BRANCH   1  11
ATOM     11  C   UNL     1       4.757   5.478  18.773  0.00  0.00    +0.000 C 
BRANCH  11  12
ATOM     12  C   UNL     1       3.545   5.049  19.513  0.00  0.00    +0.000 A 
ATOM     13  C   UNL     1       2.430   5.831  19.941  0.00  0.00    +0.000 A 
ATOM     14  C   UNL     1       2.159   7.272  19.713  0.00  0.00    +0.000 C 
ATOM     15  N   UNL     1       1.557   5.110  20.667  0.00  0.00    +0.000 NA
ATOM     16  N   UNL     1       2.098   3.875  20.705  0.00  0.00    +0.000 N 
ATOM     17  C   UNL     1       1.446   2.838  21.463  0.00  0.00    +0.000 C 
ATOM     18  C   UNL     1       3.271   3.801  20.015  0.00  0.00    +0.000 A 
ATOM     19 CL   UNL     1       4.144   2.341  19.926  0.00  0.00    +0.000 Cl
ENDBRANCH  11  12
ENDBRANCH   1  11
TORSDOF 5
ENDMDL
MODEL 3
REMARK VINA RESULT:      -6.5      2.466      3.162
REMARK  Name = 
REMARK  8 active torsions:
REMARK  status: ('A' for Active; 'I' for Inactive)
REMARK    1  A    between atoms: C_1  and  C_2
REMARK    2  A    between atoms: N_5  and  C_6
REMARK    3  A    between atoms: C_6  and  C_7
REMARK    4  A    between atoms: C_7  and  N_8
REMARK    5  A    between atoms: N_8  and  C_9
REMARK    6  A    between atoms: C_9  and  C_10
REMARK    7  A    between atoms: C_11  and  C_12
REMARK    8  A    between atoms: N_14  and  C_15
REMARK                            x       y       z     vdW  Elec       q    Type
REMARK                         _______ _______ _______ _____ _____    ______ ____
ROOT
ATOM      1  N   UNL     1       4.743   6.252  17.298  0.00  0.00    +0.000 NA
ATOM      2  H   UNL     1       4.925   6.174  16.298  0.00  0.00    +0.000 HD
ENDROOT
BRANCH   1   3
ATOM      3  C   UNL     1       5.900   5.748  18.062  0.00  0.00    +0.000 C 
BRANCH   3   4
ATOM      4  C   UNL     1       6.546   4.484  17.483  0.00  0.00    +0.000 C 
BRANCH   4   9
ATOM      5  C   UNL     1       5.946   3.429  12.623  0.00  0.00    +0.000 C 
ATOM      6  C   UNL     1       6.353   4.034  13.910  0.00  0.00    +0.000 A 
ATOM      7  C   UNL     1       7.239   5.115  14.124  0.00  0.00    +0.000 A 
ATOM      8  N   UNL     1       7.383   5.409  15.417  0.00  0.00    +0.000 NA
ATOM      9  N   UNL     1       6.595   4.513  16.036  0.00  0.00    +0.000 N 
ATOM     10  C   UNL     1       5.958   3.669  15.177  0.00  0.00    +0.000 A 
ENDBRANCH   4   9
ENDBRANCH   3   4
ENDBRANCH   1   3
BRANCH   1  11
ATOM     11  C   UNL     1       3.524   5.518  17.628  0.00  0.00    +0.000 C 
BRANCH  11  12
ATOM     12  C   UNL     1       2.861   6.161  18.789  0.00  0.00    +0.000 A 
ATOM     13  C   UNL     1       2.445   5.577  20.022  0.00  0.00    +0.000 A 
ATOM     14  C   UNL     1       2.613   4.181  20.497  0.00  0.00    +0.000 C 
ATOM     15  N   UNL     1       1.796   6.457  20.804  0.00  0.00    +0.000 NA
ATOM     16  N   UNL     1       1.795   7.599  20.087  0.00  0.00    +0.000 N 
ATOM     17  C   UNL     1       1.120   8.762  20.604  0.00  0.00    +0.000 C 
ATOM     18  C   UNL     1       2.435   7.462  18.891  0.00  0.00    +0.000 A 
ATOM     19 CL   UNL     1       2.558   8.770  17.808  0.00  0.00    +0.000 Cl
ENDBRANCH  11  12
ENDBRANCH   1  11
TORSDOF 5
ENDMDL
MODEL 4
REMARK VINA RESULT:      -6.5      1.539      2.368
REMARK  Name = 
REMARK  8 active torsions:
REMARK  status: ('A' for Active; 'I' for Inactive)
REMARK    1  A    between atoms: C_1  and  C_2
REMARK    2  A    between atoms: N_5  and  C_6
REMARK    3  A    between atoms: C_6  and  C_7
REMARK    4  A    between atoms: C_7  and  N_8
REMARK    5  A    between atoms: N_8  and  C_9
REMARK    6  A    between atoms: C_9  and  C_10
REMARK    7  A    between atoms: C_11  and  C_12
REMARK    8  A    between atoms: N_14  and  C_15
REMARK                            x       y       z     vdW  Elec       q    Type
REMARK                         _______ _______ _______ _____ _____    ______ ____
ROOT
ATOM      1  N   UNL     1       6.376   4.086  18.436  0.00  0.00    +0.000 NA
ATOM      2  H   UNL     1       6.753   3.286  18.941  0.00  0.00    +0.000 HD
ENDROOT
BRANCH   1   3
ATOM      3  C   UNL     1       7.468   4.999  18.051  0.00  0.00    +0.000 C 
BRANCH   3   4
ATOM      4  C   UNL     1       7.141   5.928  16.875  0.00  0.00    +0.000 C 
BRANCH   4   9
ATOM      5  C   UNL     1       6.396   3.567  12.519  0.00  0.00    +0.000 C 
ATOM      6  C   UNL     1       6.222   4.199  13.846  0.00  0.00    +0.000 A 
ATOM      7  C   UNL     1       5.025   4.376  14.577  0.00  0.00    +0.000 A 
ATOM      8  N   UNL     1       5.226   4.986  15.746  0.00  0.00    +0.000 NA
ATOM      9  N   UNL     1       6.552   5.209  15.764  0.00  0.00    +0.000 N 
ATOM     10  C   UNL     1       7.191   4.757  14.649  0.00  0.00    +0.000 A 
ENDBRANCH   4   9
ENDBRANCH   3   4
ENDBRANCH   1   3
BRANCH   1  11
ATOM     11  C   UNL     1       5.383   4.761  19.267  0.00  0.00    +0.000 C 
BRANCH  11  12
ATOM     12  C   UNL     1       4.156   3.929  19.342  0.00  0.00    +0.000 A 
ATOM     13  C   UNL     1       3.989   2.626  19.900  0.00  0.00    +0.000 A 
ATOM     14  C   UNL     1       4.982   1.777  20.602  0.00  0.00    +0.000 C 
ATOM     15  N   UNL     1       2.746   2.150  19.705  0.00  0.00    +0.000 NA
ATOM     16  N   UNL     1       2.116   3.136  19.033  0.00  0.00    +0.000 N 
ATOM     17  C   UNL     1       0.756   2.941  18.600  0.00  0.00    +0.000 C 
ATOM     18  C   UNL     1       2.921   4.213  18.816  0.00  0.00    +0.000 A 
ATOM     19 CL   UNL     1       2.346   5.581  17.980  0.00  0.00    +0.000 Cl
ENDBRANCH  11  12
ENDBRANCH   1  11
TORSDOF 5
ENDMDL
MODEL 5
REMARK VINA RESULT:      -6.5      2.577      4.198
REMARK  Name = 
REMARK  8 active torsions:
REMARK  status: ('A' for Active; 'I' for Inactive)
REMARK    1  A    between atoms: C_1  and  C_2
REMARK    2  A    between atoms: N_5  and  C_6
REMARK    3  A    between atoms: C_6  and  C_7
REMARK    4  A    between atoms: C_7  and  N_8
REMARK    5  A    between atoms: N_8  and  C_9
REMARK    6  A    between atoms: C_9  and  C_10
REMARK    7  A    between atoms: C_11  and  C_12
REMARK    8  A    between atoms: N_14  and  C_15
REMARK                            x       y       z     vdW  Elec       q    Type
REMARK                         _______ _______ _______ _____ _____    ______ ____
ROOT
ATOM      1  N   UNL     1       4.030   4.742  17.165  0.00  0.00    +0.000 NA
ATOM      2  H   UNL     1       3.776   5.349  16.387  0.00  0.00    +0.000 HD
ENDROOT
BRANCH   1   3
ATOM      3  C   UNL     1       4.909   3.657  16.691  0.00  0.00    +0.000 C 
BRANCH   3   4
ATOM      4  C   UNL     1       6.292   4.116  16.215  0.00  0.00    +0.000 C 
BRANCH   4   9
ATOM      5  C   UNL     1       8.141   8.411  18.014  0.00  0.00    +0.000 C 
ATOM      6  C   UNL     1       7.683   7.013  17.853  0.00  0.00    +0.000 A 
ATOM      7  C   UNL     1       7.758   5.957  18.789  0.00  0.00    +0.000 A 
ATOM      8  N   UNL     1       7.247   4.819  18.317  0.00  0.00    +0.000 NA
ATOM      9  N   UNL     1       6.850   5.140  17.074  0.00  0.00    +0.000 N 
ATOM     10  C   UNL     1       7.089   6.442  16.750  0.00  0.00    +0.000 A 
ENDBRANCH   4   9
ENDBRANCH   3   4
ENDBRANCH   1   3
BRANCH   1  11
ATOM     11  C   UNL     1       2.817   4.215  17.785  0.00  0.00    +0.000 C 
BRANCH  11  12
ATOM     12  C   UNL     1       2.414   5.098  18.907  0.00  0.00    +0.000 A 
ATOM     13  C   UNL     1       1.817   4.748  20.155  0.00  0.00    +0.000 A 
ATOM     14  C   UNL     1       1.489   3.402  20.687  0.00  0.00    +0.000 C 
ATOM     15  N   UNL     1       1.510   5.831  20.889  0.00  0.00    +0.000 NA
ATOM     16  N   UNL     1       1.908   6.871  20.127  0.00  0.00    +0.000 N 
ATOM     17  C   UNL     1       1.676   8.217  20.586  0.00  0.00    +0.000 C 
ATOM     18  C   UNL     1       2.464   6.469  18.950  0.00  0.00    +0.000 A 
ATOM     19 CL   UNL     1       3.037   7.605  17.818  0.00  0.00    +0.000 Cl
ENDBRANCH  11  12
ENDBRANCH   1  11
TORSDOF 5
ENDMDL
MODEL 6
REMARK VINA RESULT:      -6.4      1.466      2.156
REMARK  Name = 
REMARK  8 active torsions:
REMARK  status: ('A' for Active; 'I' for Inactive)
REMARK    1  A    between atoms: C_1  and  C_2
REMARK    2  A    between atoms: N_5  and  C_6
REMARK    3  A    between atoms: C_6  and  C_7
REMARK    4  A    between atoms: C_7  and  N_8
REMARK    5  A    between atoms: N_8  and  C_9
REMARK    6  A    between atoms: C_9  and  C_10
REMARK    7  A    between atoms: C_11  and  C_12
REMARK    8  A    between atoms: N_14  and  C_15
REMARK                            x       y       z     vdW  Elec       q    Type
REMARK                         _______ _______ _______ _____ _____    ______ ____
ROOT
ATOM      1  N   UNL     1       6.349   4.276  18.719  0.00  0.00    +0.000 NA
ATOM      2  H   UNL     1       7.211   4.795  18.880  0.00  0.00    +0.000 HD
ENDROOT
BRANCH   1   3
ATOM      3  C   UNL     1       6.073   4.193  17.273  0.00  0.00    +0.000 C 
BRANCH   3   4
ATOM      4  C   UNL     1       6.814   5.229  16.420  0.00  0.00    +0.000 C 
BRANCH   4   9
ATOM      5  C   UNL     1       5.874   3.068  11.999  0.00  0.00    +0.000 C 
ATOM      6  C   UNL     1       6.414   3.915  13.085  0.00  0.00    +0.000 A 
ATOM      7  C   UNL     1       7.454   4.870  13.010  0.00  0.00    +0.000 A 
ATOM      8  N   UNL     1       7.690   5.460  14.183  0.00  0.00    +0.000 NA
ATOM      9  N   UNL     1       6.808   4.879  15.014  0.00  0.00    +0.000 N 
ATOM     10  C   UNL     1       6.023   3.948  14.404  0.00  0.00    +0.000 A 
ENDBRANCH   4   9
ENDBRANCH   3   4
ENDBRANCH   1   3
BRANCH   1  11
ATOM     11  C   UNL     1       5.252   4.921  19.435  0.00  0.00    +0.000 C 
BRANCH  11  12
ATOM     12  C   UNL     1       4.070   4.025  19.436  0.00  0.00    +0.000 A 
ATOM     13  C   UNL     1       3.956   2.690  19.926  0.00  0.00    +0.000 A 
ATOM     14  C   UNL     1       4.975   1.859  20.616  0.00  0.00    +0.000 C 
ATOM     15  N   UNL     1       2.746   2.161  19.674  0.00  0.00    +0.000 NA
ATOM     16  N   UNL     1       2.083   3.144  19.032  0.00  0.00    +0.000 N 
ATOM     17  C   UNL     1       0.746   2.901  18.551  0.00  0.00    +0.000 C 
ATOM     18  C   UNL     1       2.835   4.270  18.888  0.00  0.00    +0.000 A 
ATOM     19 CL   UNL     1       2.212   5.646  18.102  0.00  0.00    +0.000 Cl
ENDBRANCH  11  12
ENDBRANCH   1  11
TORSDOF 5
ENDMDL
MODEL 7
REMARK VINA RESULT:      -6.4      2.017      3.483
REMARK  Name = 
REMARK  8 active torsions:
REMARK  status: ('A' for Active; 'I' for Inactive)
REMARK    1  A    between atoms: C_1  and  C_2
REMARK    2  A    between atoms: N_5  and  C_6
REMARK    3  A    between atoms: C_6  and  C_7
REMARK    4  A    between atoms: C_7  and  N_8
REMARK    5  A    between atoms: N_8  and  C_9
REMARK    6  A    between atoms: C_9  and  C_10
REMARK    7  A    between atoms: C_11  and  C_12
REMARK    8  A    between atoms: N_14  and  C_15
REMARK                            x       y       z     vdW  Elec       q    Type
REMARK                         _______ _______ _______ _____ _____    ______ ____
ROOT
ATOM      1  N   UNL     1       4.996   3.315  17.051  0.00  0.00    +0.000 NA
ATOM      2  H   UNL     1       5.345   3.503  17.989  0.00  0.00    +0.000 HD
ENDROOT
BRANCH   1   3
ATOM      3  C   UNL     1       5.954   3.814  16.047  0.00  0.00    +0.000 C 
BRANCH   3   4
ATOM      4  C   UNL     1       5.932   5.333  15.840  0.00  0.00    +0.000 C 
BRANCH   4   9
ATOM      5  C   UNL     1       8.460   8.781  18.452  0.00  0.00    +0.000 C 
ATOM      6  C   UNL     1       7.807   7.533  17.996  0.00  0.00    +0.000 A 
ATOM      7  C   UNL     1       7.804   6.270  18.630  0.00  0.00    +0.000 A 
ATOM      8  N   UNL     1       7.113   5.357  17.945  0.00  0.00    +0.000 NA
ATOM      9  N   UNL     1       6.679   6.031  16.866  0.00  0.00    +0.000 N 
ATOM     10  C   UNL     1       7.069   7.337  16.851  0.00  0.00    +0.000 A 
ENDBRANCH   4   9
ENDBRANCH   3   4
ENDBRANCH   1   3
BRANCH   1  11
ATOM     11  C   UNL     1       3.683   3.934  16.888  0.00  0.00    +0.000 C 
BRANCH  11  12
ATOM     12  C   UNL     1       3.136   4.286  18.222  0.00  0.00    +0.000 A 
ATOM     13  C   UNL     1       3.021   5.570  18.833  0.00  0.00    +0.000 A 
ATOM     14  C   UNL     1       3.366   6.903  18.278  0.00  0.00    +0.000 C 
ATOM     15  N   UNL     1       2.554   5.490  20.092  0.00  0.00    +0.000 NA
ATOM     16  N   UNL     1       2.366   4.169  20.291  0.00  0.00    +0.000 N 
ATOM     17  C   UNL     1       1.918   3.702  21.578  0.00  0.00    +0.000 C 
ATOM     18  C   UNL     1       2.687   3.428  19.194  0.00  0.00    +0.000 A 
ATOM     19 CL   UNL     1       2.536   1.731  19.208  0.00  0.00    +0.000 Cl
ENDBRANCH  11  12
ENDBRANCH   1  11
TORSDOF 5
ENDMDL
MODEL 8
REMARK VINA RESULT:      -6.3      1.708      1.994
REMARK  Name = 
REMARK  8 active torsions:
REMARK  status: ('A' for Active; 'I' for Inactive)
REMARK    1  A    between atoms: C_1  and  C_2
REMARK    2  A    between atoms: N_5  and  C_6
REMARK    3  A    between atoms: C_6  and  C_7
REMARK    4  A    between atoms: C_7  and  N_8
REMARK    5  A    between atoms: N_8  and  C_9
REMARK    6  A    between atoms: C_9  and  C_10
REMARK    7  A    between atoms: C_11  and  C_12
REMARK    8  A    between atoms: N_14  and  C_15
REMARK                            x       y       z     vdW  Elec       q    Type
REMARK                         _______ _______ _______ _____ _____    ______ ____
ROOT
ATOM      1  N   UNL     1       4.056   5.557  17.588  0.00  0.00    +0.000 NA
ATOM      2  H   UNL     1       4.206   6.198  16.810  0.00  0.00    +0.000 HD
ENDROOT
BRANCH   1   3
ATOM      3  C   UNL     1       5.002   4.429  17.501  0.00  0.00    +0.000 C 
BRANCH   3   4
ATOM      4  C   UNL     1       6.421   4.815  17.070  0.00  0.00    +0.000 C 
BRANCH   4   9
ATOM      5  C   UNL     1       6.112   3.297  12.305  0.00  0.00    +0.000 C 
ATOM      6  C   UNL     1       6.498   3.974  13.563  0.00  0.00    +0.000 A 
ATOM      7  C   UNL     1       7.547   4.897  13.769  0.00  0.00    +0.000 A 
ATOM      8  N   UNL     1       7.617   5.318  15.034  0.00  0.00    +0.000 NA
ATOM      9  N   UNL     1       6.616   4.658  15.643  0.00  0.00    +0.000 N 
ATOM     10  C   UNL     1       5.918   3.841  14.805  0.00  0.00    +0.000 A 
ENDBRANCH   4   9
ENDBRANCH   3   4
ENDBRANCH   1   3
BRANCH   1  11
ATOM     11  C   UNL     1       2.671   5.095  17.578  0.00  0.00    +0.000 C 
BRANCH  11  12
ATOM     12  C   UNL     1       2.236   4.810  18.967  0.00  0.00    +0.000 A 
ATOM     13  C   UNL     1       2.020   5.721  20.044  0.00  0.00    +0.000 A 
ATOM     14  C   UNL     1       2.118   7.202  20.048  0.00  0.00    +0.000 C 
ATOM     15  N   UNL     1       1.713   5.086  21.189  0.00  0.00    +0.000 NA
ATOM     16  N   UNL     1       1.728   3.779  20.856  0.00  0.00    +0.000 N 
ATOM     17  C   UNL     1       1.495   2.785  21.873  0.00  0.00    +0.000 C 
ATOM     18  C   UNL     1       2.019   3.582  19.539  0.00  0.00    +0.000 A 
ATOM     19 CL   UNL     1       2.100   2.011  18.886  0.00  0.00    +0.000 Cl
ENDBRANCH  11  12
ENDBRANCH   1  11
TORSDOF 5
ENDMDL
MODEL 9
REMARK VINA RESULT:      -6.2      1.907      2.568
REMARK  Name = 
REMARK  8 active torsions:
REMARK  status: ('A' for Active; 'I' for Inactive)
REMARK    1  A    between atoms: C_1  and  C_2
REMARK    2  A    between atoms: N_5  and  C_6
REMARK    3  A    between atoms: C_6  and  C_7
REMARK    4  A    between atoms: C_7  and  N_8
REMARK    5  A    between atoms: N_8  and  C_9
REMARK    6  A    between atoms: C_9  and  C_10
REMARK    7  A    between atoms: C_11  and  C_12
REMARK    8  A    between atoms: N_14  and  C_15
REMARK                            x       y       z     vdW  Elec       q    Type
REMARK                         _______ _______ _______ _____ _____    ______ ____
ROOT
ATOM      1  N   UNL     1       5.295   4.696  19.228  0.00  0.00    +0.000 NA
ATOM      2  H   UNL     1       5.080   5.160  20.110  0.00  0.00    +0.000 HD
ENDROOT
BRANCH   1   3
ATOM      3  C   UNL     1       6.398   5.397  18.545  0.00  0.00    +0.000 C 
BRANCH   3   4
ATOM      4  C   UNL     1       7.311   4.493  17.709  0.00  0.00    +0.000 C 
BRANCH   4   9
ATOM      5  C   UNL     1       5.568   3.545  13.109  0.00  0.00    +0.000 C 
ATOM      6  C   UNL     1       6.256   4.133  14.279  0.00  0.00    +0.000 A 
ATOM      7  C   UNL     1       7.124   5.249  14.309  0.00  0.00    +0.000 A 
ATOM      8  N   UNL     1       7.572   5.514  15.538  0.00  0.00    +0.000 NA
ATOM      9  N   UNL     1       6.998   4.564  16.297  0.00  0.00    +0.000 N 
ATOM     10  C   UNL     1       6.203   3.714  15.589  0.00  0.00    +0.000 A 
ENDBRANCH   4   9
ENDBRANCH   3   4
ENDBRANCH   1   3
BRANCH   1  11
ATOM     11  C   UNL     1       4.095   4.652  18.397  0.00  0.00    +0.000 C 
BRANCH  11  12
ATOM     12  C   UNL     1       3.431   5.979  18.421  0.00  0.00    +0.000 A 
ATOM     13  C   UNL     1       3.612   7.088  17.542  0.00  0.00    +0.000 A 
ATOM     14  C   UNL     1       4.471   7.193  16.336  0.00  0.00    +0.000 C 
ATOM     15  N   UNL     1       2.899   8.160  17.929  0.00  0.00    +0.000 NA
ATOM     16  N   UNL     1       2.260   7.748  19.044  0.00  0.00    +0.000 N 
ATOM     17  C   UNL     1       1.435   8.677  19.773  0.00  0.00    +0.000 C 
ATOM     18  C   UNL     1       2.542   6.452  19.354  0.00  0.00    +0.000 A 
ATOM     19 CL   UNL     1       1.857   5.710  20.725  0.00  0.00    +0.000 Cl
ENDBRANCH  11  12
ENDBRANCH   1  11
TORSDOF 5
ENDMDL
