MODEL 1
REMARK VINA RESULT:      -8.2      0.000      0.000
REMARK  Name = 
REMARK  8 active torsions:
REMARK  status: ('A' for Active; 'I' for Inactive)
REMARK    1  A    between atoms: C_1  and  C_2
REMARK    2  A    between atoms: C_2  and  N_3
REMARK    3  A    between atoms: N_3  and  C_4
REMARK    4  A    between atoms: C_4  and  C_5
REMARK    5  A    between atoms: C_10  and  C_11
REMARK    6  A    between atoms: C_15  and  N_16
REMARK    7  A    between atoms: N_19  and  C_20
REMARK    8  A    between atoms: C_23  and  C_24
REMARK                            x       y       z     vdW  Elec       q    Type
REMARK                         _______ _______ _______ _____ _____    ______ ____
ROOT
ATOM      1  C   UNL     1       2.310   7.554  18.988  0.00  0.00    +0.000 A 
ATOM      2  C   UNL     1       2.210   8.337  17.824  0.00  0.00    +0.000 A 
ATOM      3  C   UNL     1       1.521   9.546  17.825  0.00  0.00    +0.000 A 
ATOM      4  C   UNL     1       0.913  10.003  18.993  0.00  0.00    +0.000 A 
ATOM      5  C   UNL     1       0.971   9.252  20.170  0.00  0.00    +0.000 A 
ATOM      6  C   UNL     1       1.681   8.041  20.158  0.00  0.00    +0.000 A 
ENDROOT
BRANCH   1  12
ATOM      7  N   UNL     1       5.806   4.842  17.236  0.00  0.00    +0.000 N 
ATOM      8  C   UNL     1       4.730   4.979  18.104  0.00  0.00    +0.000 A 
ATOM      9  C   UNL     1       4.470   3.996  19.040  0.00  0.00    +0.000 A 
ATOM     10  C   UNL     1       3.431   4.221  19.908  0.00  0.00    +0.000 A 
ATOM     11  N   UNL     1       2.700   5.345  19.904  0.00  0.00    +0.000 NA
ATOM     12  C   UNL     1       3.017   6.255  18.962  0.00  0.00    +0.000 A 
ATOM     13  N   UNL     1       3.980   6.092  18.038  0.00  0.00    +0.000 NA
BRANCH   7  15
ATOM     14  C   UNL     1       6.596   4.804  14.845  0.00  0.00    +0.000 C 
ATOM     15  C   UNL     1       5.677   5.411  15.893  0.00  0.00    +0.000 C 
ENDBRANCH   7  15
BRANCH   7  16
ATOM     16  C   UNL     1       7.137   4.663  17.825  0.00  0.00    +0.000 C 
ATOM     17  C   UNL     1       7.643   5.899  18.565  0.00  0.00    +0.000 C 
ENDBRANCH   7  16
ENDBRANCH   1  12
BRANCH   5  18
ATOM     18  N   UNL     1       0.363   9.685  21.379  0.00  0.00    +0.000 N 
ATOM     19  C   UNL     1      -0.486  10.771  21.489  0.00  0.00    +0.000 C 
ATOM     20  O   UNL     1      -0.951  11.399  20.538  0.00  0.00    +0.000 OA
ATOM     21  N   UNL     1      -0.748  11.104  22.813  0.00  0.00    +0.000 N 
ATOM     22  H   UNL     1       0.349   9.024  22.144  0.00  0.00    +0.000 HD
ATOM     23  H   UNL     1       0.028  10.941  23.438  0.00  0.00    +0.000 HD
BRANCH  21  24
ATOM     24  C   UNL     1      -1.618  12.175  23.138  0.00  0.00    +0.000 A 
ATOM     25  C   UNL     1      -1.167  13.500  23.163  0.00  0.00    +0.000 A 
ATOM     26  C   UNL     1      -2.035  14.544  23.502  0.00  0.00    +0.000 A 
ATOM     27  C   UNL     1      -3.364  14.273  23.840  0.00  0.00    +0.000 A 
ATOM     28  C   UNL     1      -3.815  12.945  23.823  0.00  0.00    +0.000 A 
ATOM     29  C   UNL     1      -2.952  11.903  23.450  0.00  0.00    +0.000 A 
BRANCH  27  30
ATOM     30  C   UNL     1      -4.257  15.336  24.199  0.00  0.00    +0.000 C 
ATOM     31  N   UNL     1      -4.988  16.197  24.480  0.00  0.00    +0.000 NA
ENDBRANCH  27  30
ENDBRANCH  21  24
ENDBRANCH   5  18
TORSDOF 6
ENDMDL
MODEL 2
REMARK VINA RESULT:      -7.8      1.157      2.799
REMARK  Name = 
REMARK  8 active torsions:
REMARK  status: ('A' for Active; 'I' for Inactive)
REMARK    1  A    between atoms: C_1  and  C_2
REMARK    2  A    between atoms: C_2  and  N_3
REMARK    3  A    between atoms: N_3  and  C_4
REMARK    4  A    between atoms: C_4  and  C_5
REMARK    5  A    between atoms: C_10  and  C_11
REMARK    6  A    between atoms: C_15  and  N_16
REMARK    7  A    between atoms: N_19  and  C_20
REMARK    8  A    between atoms: C_23  and  C_24
REMARK                            x       y       z     vdW  Elec       q    Type
REMARK                         _______ _______ _______ _____ _____    ______ ____
ROOT
ATOM      1  C   UNL     1       2.586   7.526  18.845  0.00  0.00    +0.000 A 
ATOM      2  C   UNL     1       2.324   8.225  17.653  0.00  0.00    +0.000 A 
ATOM      3  C   UNL     1       1.458   9.314  17.630  0.00  0.00    +0.000 A 
ATOM      4  C   UNL     1       0.829   9.731  18.802  0.00  0.00    +0.000 A 
ATOM      5  C   UNL     1       1.044   9.058  20.007  0.00  0.00    +0.000 A 
ATOM      6  C   UNL     1       1.930   7.970  20.018  0.00  0.00    +0.000 A 
ENDROOT
BRANCH   1  12
ATOM      7  N   UNL     1       3.333   2.960  19.958  0.00  0.00    +0.000 N 
ATOM      8  C   UNL     1       3.802   4.136  19.384  0.00  0.00    +0.000 A 
ATOM      9  C   UNL     1       4.986   4.131  18.673  0.00  0.00    +0.000 A 
ATOM     10  C   UNL     1       5.362   5.309  18.079  0.00  0.00    +0.000 A 
ATOM     11  N   UNL     1       4.624   6.428  18.134  0.00  0.00    +0.000 NA
ATOM     12  C   UNL     1       3.483   6.351  18.846  0.00  0.00    +0.000 A 
ATOM     13  N   UNL     1       3.068   5.254  19.505  0.00  0.00    +0.000 NA
BRANCH   7  15
ATOM     14  C   UNL     1       1.079   2.878  21.077  0.00  0.00    +0.000 C 
ATOM     15  C   UNL     1       2.581   3.063  21.209  0.00  0.00    +0.000 C 
ENDBRANCH   7  15
BRANCH   7  16
ATOM     16  C   UNL     1       3.118   1.810  19.073  0.00  0.00    +0.000 C 
ATOM     17  C   UNL     1       2.391   2.169  17.780  0.00  0.00    +0.000 C 
ENDBRANCH   7  16
ENDBRANCH   1  12
BRANCH   5  18
ATOM     18  N   UNL     1       0.420   9.453  21.221  0.00  0.00    +0.000 N 
ATOM     19  C   UNL     1      -0.338  10.599  21.381  0.00  0.00    +0.000 C 
ATOM     20  O   UNL     1      -0.704  11.334  20.463  0.00  0.00    +0.000 OA
ATOM     21  N   UNL     1      -0.632  10.855  22.715  0.00  0.00    +0.000 N 
ATOM     22  H   UNL     1       0.314   8.742  21.931  0.00  0.00    +0.000 HD
ATOM     23  H   UNL     1       0.098  10.579  23.356  0.00  0.00    +0.000 HD
BRANCH  21  24
ATOM     24  C   UNL     1      -1.421  11.973  23.087  0.00  0.00    +0.000 A 
ATOM     25  C   UNL     1      -0.890  13.267  23.108  0.00  0.00    +0.000 A 
ATOM     26  C   UNL     1      -1.678  14.358  23.493  0.00  0.00    +0.000 A 
ATOM     27  C   UNL     1      -3.006  14.163  23.882  0.00  0.00    +0.000 A 
ATOM     28  C   UNL     1      -3.538  12.865  23.870  0.00  0.00    +0.000 A 
ATOM     29  C   UNL     1      -2.756  11.777  23.450  0.00  0.00    +0.000 A 
BRANCH  27  30
ATOM     30  C   UNL     1      -3.819  15.273  24.289  0.00  0.00    +0.000 C 
ATOM     31  N   UNL     1      -4.476  16.170  24.630  0.00  0.00    +0.000 NA
ENDBRANCH  27  30
ENDBRANCH  21  24
ENDBRANCH   5  18
TORSDOF 6
ENDMDL
MODEL 3
REMARK VINA RESULT:      -7.8      4.043     11.005
REMARK  Name = 
REMARK  8 active torsions:
REMARK  status: ('A' for Active; 'I' for Inactive)
REMARK    1  A    between atoms: C_1  and  C_2
REMARK    2  A    between atoms: C_2  and  N_3
REMARK    3  A    between atoms: N_3  and  C_4
REMARK    4  A    between atoms: C_4  and  C_5
REMARK    5  A    between atoms: C_10  and  C_11
REMARK    6  A    between atoms: C_15  and  N_16
REMARK    7  A    between atoms: N_19  and  C_20
REMARK    8  A    between atoms: C_23  and  C_24
REMARK                            x       y       z     vdW  Elec       q    Type
REMARK                         _______ _______ _______ _____ _____    ______ ____
ROOT
ATOM      1  C   UNL     1      -1.470  11.189  18.647  0.00  0.00    +0.000 A 
ATOM      2  C   UNL     1      -1.189  12.337  19.409  0.00  0.00    +0.000 A 
ATOM      3  C   UNL     1      -0.084  12.390  20.254  0.00  0.00    +0.000 A 
ATOM      4  C   UNL     1       0.769  11.293  20.357  0.00  0.00    +0.000 A 
ATOM      5  C   UNL     1       0.522  10.124  19.633  0.00  0.00    +0.000 A 
ATOM      6  C   UNL     1      -0.588  10.090  18.775  0.00  0.00    +0.000 A 
ENDROOT
BRANCH   1  12
ATOM      7  N   UNL     1      -6.190  11.567  18.174  0.00  0.00    +0.000 N 
ATOM      8  C   UNL     1      -4.951  11.344  17.586  0.00  0.00    +0.000 A 
ATOM      9  C   UNL     1      -4.843  11.273  16.210  0.00  0.00    +0.000 A 
ATOM     10  C   UNL     1      -3.583  11.114  15.691  0.00  0.00    +0.000 A 
ATOM     11  N   UNL     1      -2.478  11.059  16.447  0.00  0.00    +0.000 NA
ATOM     12  C   UNL     1      -2.666  11.137  17.780  0.00  0.00    +0.000 A 
ATOM     13  N   UNL     1      -3.868  11.237  18.374  0.00  0.00    +0.000 NA
BRANCH   7  15
ATOM     14  C   UNL     1      -7.082   9.579  19.435  0.00  0.00    +0.000 C 
ATOM     15  C   UNL     1      -6.446  10.959  19.480  0.00  0.00    +0.000 C 
ENDBRANCH   7  15
BRANCH   7  16
ATOM     16  C   UNL     1      -6.923  12.773  17.777  0.00  0.00    +0.000 C 
ATOM     17  C   UNL     1      -6.490  14.023  18.539  0.00  0.00    +0.000 C 
ENDBRANCH   7  16
ENDBRANCH   1  12
BRANCH   5  18
ATOM     18  N   UNL     1       1.368   8.986  19.714  0.00  0.00    +0.000 N 
ATOM     19  C   UNL     1       2.039   8.424  18.643  0.00  0.00    +0.000 C 
ATOM     20  O   UNL     1       2.122   8.928  17.523  0.00  0.00    +0.000 OA
ATOM     21  N   UNL     1       2.605   7.195  18.960  0.00  0.00    +0.000 N 
ATOM     22  H   UNL     1       1.694   8.725  20.635  0.00  0.00    +0.000 HD
ATOM     23  H   UNL     1       2.066   6.654  19.622  0.00  0.00    +0.000 HD
BRANCH  21  24
ATOM     24  C   UNL     1       3.357   6.468  18.004  0.00  0.00    +0.000 A 
ATOM     25  C   UNL     1       3.107   5.114  17.753  0.00  0.00    +0.000 A 
ATOM     26  C   UNL     1       3.870   4.408  16.816  0.00  0.00    +0.000 A 
ATOM     27  C   UNL     1       4.909   5.044  16.131  0.00  0.00    +0.000 A 
ATOM     28  C   UNL     1       5.166   6.399  16.387  0.00  0.00    +0.000 A 
ATOM     29  C   UNL     1       4.377   7.115  17.302  0.00  0.00    +0.000 A 
BRANCH  27  30
ATOM     30  C   UNL     1       5.703   4.325  15.177  0.00  0.00    +0.000 C 
ATOM     31  N   UNL     1       6.354   3.752  14.401  0.00  0.00    +0.000 NA
ENDBRANCH  27  30
ENDBRANCH  21  24
ENDBRANCH   5  18
TORSDOF 6
ENDMDL
MODEL 4
REMARK VINA RESULT:      -7.6      3.800     10.714
REMARK  Name = 
REMARK  8 active torsions:
REMARK  status: ('A' for Active; 'I' for Inactive)
REMARK    1  A    between atoms: C_1  and  C_2
REMARK    2  A    between atoms: C_2  and  N_3
REMARK    3  A    between atoms: N_3  and  C_4
REMARK    4  A    between atoms: C_4  and  C_5
REMARK    5  A    between atoms: C_10  and  C_11
REMARK    6  A    between atoms: C_15  and  N_16
REMARK    7  A    between atoms: N_19  and  C_20
REMARK    8  A    between atoms: C_23  and  C_24
REMARK                            x       y       z     vdW  Elec       q    Type
REMARK                         _______ _______ _______ _____ _____    ______ ____
ROOT
ATOM      1  C   UNL     1      -1.308  11.612  18.715  0.00  0.00    +0.000 A 
ATOM      2  C   UNL     1      -0.525  12.779  18.654  0.00  0.00    +0.000 A 
ATOM      3  C   UNL     1       0.745  12.827  19.220  0.00  0.00    +0.000 A 
ATOM      4  C   UNL     1       1.266  11.706  19.864  0.00  0.00    +0.000 A 
ATOM      5  C   UNL     1       0.519  10.529  19.966  0.00  0.00    +0.000 A 
ATOM      6  C   UNL     1      -0.755  10.490  19.379  0.00  0.00    +0.000 A 
ENDROOT
BRANCH   1  12
ATOM      7  N   UNL     1      -5.917  12.742  19.075  0.00  0.00    +0.000 N 
ATOM      8  C   UNL     1      -4.888  12.166  18.339  0.00  0.00    +0.000 A 
ATOM      9  C   UNL     1      -5.112  11.769  17.035  0.00  0.00    +0.000 A 
ATOM     10  C   UNL     1      -4.039  11.265  16.343  0.00  0.00    +0.000 A 
ATOM     11  N   UNL     1      -2.806  11.179  16.861  0.00  0.00    +0.000 NA
ATOM     12  C   UNL     1      -2.668  11.588  18.138  0.00  0.00    +0.000 A 
ATOM     13  N   UNL     1      -3.676  12.041  18.905  0.00  0.00    +0.000 NA
BRANCH   7  15
ATOM     14  C   UNL     1      -6.908  11.422  20.976  0.00  0.00    +0.000 C 
ATOM     15  C   UNL     1      -5.941  12.502  20.518  0.00  0.00    +0.000 C 
ENDBRANCH   7  15
BRANCH   7  16
ATOM     16  C   UNL     1      -6.556  13.942  18.526  0.00  0.00    +0.000 C 
ATOM     17  C   UNL     1      -6.544  15.128  19.488  0.00  0.00    +0.000 C 
ENDBRANCH   7  16
ENDBRANCH   1  12
BRANCH   5  18
ATOM     18  N   UNL     1       1.015   9.368  20.616  0.00  0.00    +0.000 N 
ATOM     19  C   UNL     1       1.457   8.229  19.967  0.00  0.00    +0.000 C 
ATOM     20  O   UNL     1       1.631   8.135  18.752  0.00  0.00    +0.000 OA
ATOM     21  N   UNL     1       1.669   7.170  20.843  0.00  0.00    +0.000 N 
ATOM     22  H   UNL     1       1.293   9.470  21.583  0.00  0.00    +0.000 HD
ATOM     23  H   UNL     1       1.028   7.150  21.624  0.00  0.00    +0.000 HD
BRANCH  21  24
ATOM     24  C   UNL     1       2.148   5.921  20.376  0.00  0.00    +0.000 A 
ATOM     25  C   UNL     1       3.393   5.805  19.748  0.00  0.00    +0.000 A 
ATOM     26  C   UNL     1       3.844   4.566  19.278  0.00  0.00    +0.000 A 
ATOM     27  C   UNL     1       3.044   3.428  19.414  0.00  0.00    +0.000 A 
ATOM     28  C   UNL     1       1.792   3.544  20.037  0.00  0.00    +0.000 A 
ATOM     29  C   UNL     1       1.356   4.781  20.538  0.00  0.00    +0.000 A 
BRANCH  27  30
ATOM     30  C   UNL     1       3.493   2.156  18.926  0.00  0.00    +0.000 C 
ATOM     31  N   UNL     1       3.849   1.124  18.523  0.00  0.00    +0.000 NA
ENDBRANCH  27  30
ENDBRANCH  21  24
ENDBRANCH   5  18
TORSDOF 6
ENDMDL
MODEL 5
REMARK VINA RESULT:      -7.5      1.382      2.986
REMARK  Name = 
REMARK  8 active torsions:
REMARK  status: ('A' for Active; 'I' for Inactive)
REMARK    1  A    between atoms: C_1  and  C_2
REMARK    2  A    between atoms: C_2  and  N_3
REMARK    3  A    between atoms: N_3  and  C_4
REMARK    4  A    between atoms: C_4  and  C_5
REMARK    5  A    between atoms: C_10  and  C_11
REMARK    6  A    between atoms: C_15  and  N_16
REMARK    7  A    between atoms: N_19  and  C_20
REMARK    8  A    between atoms: C_23  and  C_24
REMARK                            x       y       z     vdW  Elec       q    Type
REMARK                         _______ _______ _______ _____ _____    ______ ____
ROOT
ATOM      1  C   UNL     1       2.423   7.396  19.277  0.00  0.00    +0.000 A 
ATOM      2  C   UNL     1       2.233   8.052  18.047  0.00  0.00    +0.000 A 
ATOM      3  C   UNL     1       1.442   9.193  17.953  0.00  0.00    +0.000 A 
ATOM      4  C   UNL     1       0.820   9.708  19.089  0.00  0.00    +0.000 A 
ATOM      5  C   UNL     1       0.965   9.082  20.329  0.00  0.00    +0.000 A 
ATOM      6  C   UNL     1       1.776   7.940  20.413  0.00  0.00    +0.000 A 
ENDROOT
BRANCH   1  12
ATOM      7  N   UNL     1       2.637   2.652  19.581  0.00  0.00    +0.000 N 
ATOM      8  C   UNL     1       3.303   3.868  19.485  0.00  0.00    +0.000 A 
ATOM      9  C   UNL     1       4.668   3.892  19.273  0.00  0.00    +0.000 A 
ATOM     10  C   UNL     1       5.255   5.123  19.125  0.00  0.00    +0.000 A 
ATOM     11  N   UNL     1       4.565   6.273  19.145  0.00  0.00    +0.000 NA
ATOM     12  C   UNL     1       3.238   6.166  19.355  0.00  0.00    +0.000 A 
ATOM     13  N   UNL     1       2.592   5.005  19.565  0.00  0.00    +0.000 NA
BRANCH   7  15
ATOM     14  C   UNL     1       1.783   2.595  21.948  0.00  0.00    +0.000 C 
ATOM     15  C   UNL     1       1.470   2.580  20.461  0.00  0.00    +0.000 C 
ENDBRANCH   7  15
BRANCH   7  16
ATOM     16  C   UNL     1       2.758   1.720  18.455  0.00  0.00    +0.000 C 
ATOM     17  C   UNL     1       2.615   2.395  17.093  0.00  0.00    +0.000 C 
ENDBRANCH   7  16
ENDBRANCH   1  12
BRANCH   5  18
ATOM     18  N   UNL     1       0.345   9.577  21.507  0.00  0.00    +0.000 N 
ATOM     19  C   UNL     1      -0.481  10.685  21.558  0.00  0.00    +0.000 C 
ATOM     20  O   UNL     1      -0.916  11.283  20.573  0.00  0.00    +0.000 OA
ATOM     21  N   UNL     1      -0.760  11.077  22.862  0.00  0.00    +0.000 N 
ATOM     22  H   UNL     1       0.303   8.949  22.298  0.00  0.00    +0.000 HD
ATOM     23  H   UNL     1       0.002  10.924  23.507  0.00  0.00    +0.000 HD
BRANCH  21  24
ATOM     24  C   UNL     1      -1.611  12.179  23.127  0.00  0.00    +0.000 A 
ATOM     25  C   UNL     1      -2.976  12.002  23.384  0.00  0.00    +0.000 A 
ATOM     26  C   UNL     1      -3.806  13.102  23.628  0.00  0.00    +0.000 A 
ATOM     27  C   UNL     1      -3.283  14.398  23.598  0.00  0.00    +0.000 A 
ATOM     28  C   UNL     1      -1.918  14.578  23.333  0.00  0.00    +0.000 A 
ATOM     29  C   UNL     1      -1.080  13.471  23.123  0.00  0.00    +0.000 A 
BRANCH  27  30
ATOM     30  C   UNL     1      -4.129  15.532  23.837  0.00  0.00    +0.000 C 
ATOM     31  N   UNL     1      -4.808  16.455  24.040  0.00  0.00    +0.000 NA
ENDBRANCH  27  30
ENDBRANCH  21  24
ENDBRANCH   5  18
TORSDOF 6
ENDMDL
MODEL 6
REMARK VINA RESULT:      -7.5      6.049      9.288
REMARK  Name = 
REMARK  8 active torsions:
REMARK  status: ('A' for Active; 'I' for Inactive)
REMARK    1  A    between atoms: C_1  and  C_2
REMARK    2  A    between atoms: C_2  and  N_3
REMARK    3  A    between atoms: N_3  and  C_4
REMARK    4  A    between atoms: C_4  and  C_5
REMARK    5  A    between atoms: C_10  and  C_11
REMARK    6  A    between atoms: C_15  and  N_16
REMARK    7  A    between atoms: N_19  and  C_20
REMARK    8  A    between atoms: C_23  and  C_24
REMARK                            x       y       z     vdW  Elec       q    Type
REMARK                         _______ _______ _______ _____ _____    ______ ____
ROOT
ATOM      1  C   UNL     1       5.912   4.849  18.436  0.00  0.00    +0.000 A 
ATOM      2  C   UNL     1       5.937   4.693  17.039  0.00  0.00    +0.000 A 
ATOM      3  C   UNL     1       6.767   5.474  16.240  0.00  0.00    +0.000 A 
ATOM      4  C   UNL     1       7.595   6.433  16.821  0.00  0.00    +0.000 A 
ATOM      5  C   UNL     1       7.593   6.636  18.204  0.00  0.00    +0.000 A 
ATOM      6  C   UNL     1       6.761   5.833  18.998  0.00  0.00    +0.000 A 
ENDROOT
BRANCH   1  12
ATOM      7  N   UNL     1       1.694   4.352  20.583  0.00  0.00    +0.000 N 
ATOM      8  C   UNL     1       2.942   3.822  20.278  0.00  0.00    +0.000 A 
ATOM      9  C   UNL     1       3.225   2.505  20.583  0.00  0.00    +0.000 A 
ATOM     10  C   UNL     1       4.453   2.026  20.200  0.00  0.00    +0.000 A 
ATOM     11  N   UNL     1       5.351   2.760  19.528  0.00  0.00    +0.000 NA
ATOM     12  C   UNL     1       5.000   4.035  19.267  0.00  0.00    +0.000 A 
ATOM     13  N   UNL     1       3.843   4.600  19.655  0.00  0.00    +0.000 NA
BRANCH   7  15
ATOM     14  C   UNL     1       1.915   6.734  19.799  0.00  0.00    +0.000 C 
ATOM     15  C   UNL     1       1.621   5.770  20.937  0.00  0.00    +0.000 C 
ENDBRANCH   7  15
BRANCH   7  16
ATOM     16  C   UNL     1       0.516   3.680  20.025  0.00  0.00    +0.000 C 
ATOM     17  C   UNL     1       0.745   3.122  18.622  0.00  0.00    +0.000 C 
ENDBRANCH   7  16
ENDBRANCH   1  12
BRANCH   5  18
ATOM     18  N   UNL     1       8.421   7.605  18.831  0.00  0.00    +0.000 N 
ATOM     19  C   UNL     1       8.458   8.947  18.496  0.00  0.00    +0.000 C 
ATOM     20  O   UNL     1       7.668   9.502  17.733  0.00  0.00    +0.000 OA
ATOM     21  N   UNL     1       9.514   9.614  19.105  0.00  0.00    +0.000 N 
ATOM     22  H   UNL     1       8.818   7.354  19.726  0.00  0.00    +0.000 HD
ATOM     23  H   UNL     1      10.343   9.049  19.222  0.00  0.00    +0.000 HD
BRANCH  21  24
ATOM     24  C   UNL     1       9.710  11.004  18.909  0.00  0.00    +0.000 A 
ATOM     25  C   UNL     1       9.230  11.946  19.826  0.00  0.00    +0.000 A 
ATOM     26  C   UNL     1       9.417  13.316  19.609  0.00  0.00    +0.000 A 
ATOM     27  C   UNL     1      10.073  13.762  18.459  0.00  0.00    +0.000 A 
ATOM     28  C   UNL     1      10.548  12.820  17.534  0.00  0.00    +0.000 A 
ATOM     29  C   UNL     1      10.389  11.446  17.771  0.00  0.00    +0.000 A 
BRANCH  27  30
ATOM     30  C   UNL     1      10.261  15.164  18.222  0.00  0.00    +0.000 C 
ATOM     31  N   UNL     1      10.404  16.302  18.023  0.00  0.00    +0.000 NA
ENDBRANCH  27  30
ENDBRANCH  21  24
ENDBRANCH   5  18
TORSDOF 6
ENDMDL
MODEL 7
REMARK VINA RESULT:      -7.5      2.702     10.966
REMARK  Name = 
REMARK  8 active torsions:
REMARK  status: ('A' for Active; 'I' for Inactive)
REMARK    1  A    between atoms: C_1  and  C_2
REMARK    2  A    between atoms: C_2  and  N_3
REMARK    3  A    between atoms: N_3  and  C_4
REMARK    4  A    between atoms: C_4  and  C_5
REMARK    5  A    between atoms: C_10  and  C_11
REMARK    6  A    between atoms: C_15  and  N_16
REMARK    7  A    between atoms: N_19  and  C_20
REMARK    8  A    between atoms: C_23  and  C_24
REMARK                            x       y       z     vdW  Elec       q    Type
REMARK                         _______ _______ _______ _____ _____    ______ ____
ROOT
ATOM      1  C   UNL     1      -1.077  12.133  19.342  0.00  0.00    +0.000 A 
ATOM      2  C   UNL     1      -0.218  13.207  19.638  0.00  0.00    +0.000 A 
ATOM      3  C   UNL     1       1.142  13.144  19.348  0.00  0.00    +0.000 A 
ATOM      4  C   UNL     1       1.677  12.002  18.753  0.00  0.00    +0.000 A 
ATOM      5  C   UNL     1       0.867  10.904  18.456  0.00  0.00    +0.000 A 
ATOM      6  C   UNL     1      -0.505  10.987  18.741  0.00  0.00    +0.000 A 
ENDROOT
BRANCH   1  12
ATOM      7  N   UNL     1      -4.487  13.473  22.379  0.00  0.00    +0.000 N 
ATOM      8  C   UNL     1      -4.136  12.880  21.172  0.00  0.00    +0.000 A 
ATOM      9  C   UNL     1      -5.116  12.554  20.254  0.00  0.00    +0.000 A 
ATOM     10  C   UNL     1      -4.699  12.029  19.057  0.00  0.00    +0.000 A 
ATOM     11  N   UNL     1      -3.407  11.859  18.739  0.00  0.00    +0.000 NA
ATOM     12  C   UNL     1      -2.513  12.203  19.687  0.00  0.00    +0.000 A 
ATOM     13  N   UNL     1      -2.836  12.670  20.905  0.00  0.00    +0.000 NA
BRANCH   7  15
ATOM     14  C   UNL     1      -4.392  12.451  24.678  0.00  0.00    +0.000 C 
ATOM     15  C   UNL     1      -3.667  13.170  23.552  0.00  0.00    +0.000 C 
ENDBRANCH   7  15
BRANCH   7  16
ATOM     16  C   UNL     1      -5.245  14.727  22.326  0.00  0.00    +0.000 C 
ATOM     17  C   UNL     1      -6.603  14.643  23.019  0.00  0.00    +0.000 C 
ENDBRANCH   7  16
ENDBRANCH   1  12
BRANCH   5  18
ATOM     18  N   UNL     1       1.377   9.724  17.852  0.00  0.00    +0.000 N 
ATOM     19  C   UNL     1       1.820   8.612  18.544  0.00  0.00    +0.000 C 
ATOM     20  O   UNL     1       1.678   8.435  19.754  0.00  0.00    +0.000 OA
ATOM     21  N   UNL     1       2.475   7.703  17.721  0.00  0.00    +0.000 N 
ATOM     22  H   UNL     1       1.176   9.591  16.870  0.00  0.00    +0.000 HD
ATOM     23  H   UNL     1       2.997   8.133  16.971  0.00  0.00    +0.000 HD
BRANCH  21  24
ATOM     24  C   UNL     1       2.982   6.485  18.237  0.00  0.00    +0.000 A 
ATOM     25  C   UNL     1       4.308   6.371  18.671  0.00  0.00    +0.000 A 
ATOM     26  C   UNL     1       4.798   5.155  19.163  0.00  0.00    +0.000 A 
ATOM     27  C   UNL     1       3.970   4.030  19.208  0.00  0.00    +0.000 A 
ATOM     28  C   UNL     1       2.643   4.140  18.766  0.00  0.00    +0.000 A 
ATOM     29  C   UNL     1       2.144   5.369  18.305  0.00  0.00    +0.000 A 
BRANCH  27  30
ATOM     30  C   UNL     1       4.466   2.778  19.701  0.00  0.00    +0.000 C 
ATOM     31  N   UNL     1       4.859   1.761  20.108  0.00  0.00    +0.000 NA
ENDBRANCH  27  30
ENDBRANCH  21  24
ENDBRANCH   5  18
TORSDOF 6
ENDMDL
MODEL 8
REMARK VINA RESULT:      -7.3      2.270      3.970
REMARK  Name = 
REMARK  8 active torsions:
REMARK  status: ('A' for Active; 'I' for Inactive)
REMARK    1  A    between atoms: C_1  and  C_2
REMARK    2  A    between atoms: C_2  and  N_3
REMARK    3  A    between atoms: N_3  and  C_4
REMARK    4  A    between atoms: C_4  and  C_5
REMARK    5  A    between atoms: C_10  and  C_11
REMARK    6  A    between atoms: C_15  and  N_16
REMARK    7  A    between atoms: N_19  and  C_20
REMARK    8  A    between atoms: C_23  and  C_24
REMARK                            x       y       z     vdW  Elec       q    Type
REMARK                         _______ _______ _______ _____ _____    ______ ____
ROOT
ATOM      1  C   UNL     1       3.882   4.544  18.301  0.00  0.00    +0.000 A 
ATOM      2  C   UNL     1       2.861   3.655  17.921  0.00  0.00    +0.000 A 
ATOM      3  C   UNL     1       1.612   3.686  18.533  0.00  0.00    +0.000 A 
ATOM      4  C   UNL     1       1.352   4.610  19.543  0.00  0.00    +0.000 A 
ATOM      5  C   UNL     1       2.340   5.503  19.967  0.00  0.00    +0.000 A 
ATOM      6  C   UNL     1       3.591   5.469  19.332  0.00  0.00    +0.000 A 
ENDROOT
BRANCH   1  12
ATOM      7  N   UNL     1       6.514   4.455  14.337  0.00  0.00    +0.000 N 
ATOM      8  C   UNL     1       6.456   4.451  15.726  0.00  0.00    +0.000 A 
ATOM      9  C   UNL     1       7.617   4.577  16.464  0.00  0.00    +0.000 A 
ATOM     10  C   UNL     1       7.485   4.629  17.829  0.00  0.00    +0.000 A 
ATOM     11  N   UNL     1       6.299   4.597  18.454  0.00  0.00    +0.000 NA
ATOM     12  C   UNL     1       5.215   4.475  17.664  0.00  0.00    +0.000 A 
ATOM     13  N   UNL     1       5.257   4.361  16.325  0.00  0.00    +0.000 NA
BRANCH   7  15
ATOM     14  C   UNL     1       5.933   3.259  12.199  0.00  0.00    +0.000 C 
ATOM     15  C   UNL     1       5.529   3.653  13.610  0.00  0.00    +0.000 C 
ENDBRANCH   7  15
BRANCH   7  16
ATOM     16  C   UNL     1       7.131   5.614  13.686  0.00  0.00    +0.000 C 
ATOM     17  C   UNL     1       8.424   5.276  12.946  0.00  0.00    +0.000 C 
ENDBRANCH   7  16
ENDBRANCH   1  12
BRANCH   5  18
ATOM     18  N   UNL     1       2.113   6.457  20.995  0.00  0.00    +0.000 N 
ATOM     19  C   UNL     1       1.339   7.595  20.857  0.00  0.00    +0.000 C 
ATOM     20  O   UNL     1       0.620   7.843  19.889  0.00  0.00    +0.000 OA
ATOM     21  N   UNL     1       1.475   8.460  21.936  0.00  0.00    +0.000 N 
ATOM     22  H   UNL     1       2.319   6.166  21.941  0.00  0.00    +0.000 HD
ATOM     23  H   UNL     1       2.399   8.464  22.344  0.00  0.00    +0.000 HD
BRANCH  21  24
ATOM     24  C   UNL     1       0.744   9.673  21.997  0.00  0.00    +0.000 A 
ATOM     25  C   UNL     1       1.037  10.745  21.147  0.00  0.00    +0.000 A 
ATOM     26  C   UNL     1       0.315  11.942  21.230  0.00  0.00    +0.000 A 
ATOM     27  C   UNL     1      -0.699  12.087  22.181  0.00  0.00    +0.000 A 
ATOM     28  C   UNL     1      -0.989  11.016  23.039  0.00  0.00    +0.000 A 
ATOM     29  C   UNL     1      -0.287   9.804  22.931  0.00  0.00    +0.000 A 
BRANCH  27  30
ATOM     30  C   UNL     1      -1.436  13.313  22.282  0.00  0.00    +0.000 C 
ATOM     31  N   UNL     1      -2.045  14.302  22.359  0.00  0.00    +0.000 NA
ENDBRANCH  27  30
ENDBRANCH  21  24
ENDBRANCH   5  18
TORSDOF 6
ENDMDL
MODEL 9
REMARK VINA RESULT:      -7.3      3.353     10.917
REMARK  Name = 
REMARK  8 active torsions:
REMARK  status: ('A' for Active; 'I' for Inactive)
REMARK    1  A    between atoms: C_1  and  C_2
REMARK    2  A    between atoms: C_2  and  N_3
REMARK    3  A    between atoms: N_3  and  C_4
REMARK    4  A    between atoms: C_4  and  C_5
REMARK    5  A    between atoms: C_10  and  C_11
REMARK    6  A    between atoms: C_15  and  N_16
REMARK    7  A    between atoms: N_19  and  C_20
REMARK    8  A    between atoms: C_23  and  C_24
REMARK                            x       y       z     vdW  Elec       q    Type
REMARK                         _______ _______ _______ _____ _____    ______ ____
ROOT
ATOM      1  C   UNL     1      -1.475  11.848  19.058  0.00  0.00    +0.000 A 
ATOM      2  C   UNL     1      -0.659  12.909  18.627  0.00  0.00    +0.000 A 
ATOM      3  C   UNL     1       0.722  12.873  18.799  0.00  0.00    +0.000 A 
ATOM      4  C   UNL     1       1.322  11.772  19.408  0.00  0.00    +0.000 A 
ATOM      5  C   UNL     1       0.550  10.701  19.868  0.00  0.00    +0.000 A 
ATOM      6  C   UNL     1      -0.839  10.745  19.676  0.00  0.00    +0.000 A 
ENDROOT
BRANCH   1  12
ATOM      7  N   UNL     1      -5.705  13.246  20.733  0.00  0.00    +0.000 N 
ATOM      8  C   UNL     1      -4.970  12.623  19.731  0.00  0.00    +0.000 A 
ATOM      9  C   UNL     1      -5.585  12.264  18.547  0.00  0.00    +0.000 A 
ATOM     10  C   UNL     1      -4.791  11.710  17.575  0.00  0.00    +0.000 A 
ATOM     11  N   UNL     1      -3.468  11.540  17.715  0.00  0.00    +0.000 NA
ATOM     12  C   UNL     1      -2.943  11.917  18.898  0.00  0.00    +0.000 A 
ATOM     13  N   UNL     1      -3.657  12.415  19.923  0.00  0.00    +0.000 NA
BRANCH   7  15
ATOM     14  C   UNL     1      -4.851  14.194  22.904  0.00  0.00    +0.000 C 
ATOM     15  C   UNL     1      -5.327  12.981  22.122  0.00  0.00    +0.000 C 
ENDBRANCH   7  15
BRANCH   7  16
ATOM     16  C   UNL     1      -6.398  14.492  20.393  0.00  0.00    +0.000 C 
ATOM     17  C   UNL     1      -7.917  14.392  20.511  0.00  0.00    +0.000 C 
ENDBRANCH   7  16
ENDBRANCH   1  12
BRANCH   5  18
ATOM     18  N   UNL     1       1.126   9.564  20.494  0.00  0.00    +0.000 N 
ATOM     19  C   UNL     1       1.477   8.396  19.840  0.00  0.00    +0.000 C 
ATOM     20  O   UNL     1       1.489   8.252  18.618  0.00  0.00    +0.000 OA
ATOM     21  N   UNL     1       1.799   7.373  20.723  0.00  0.00    +0.000 N 
ATOM     22  H   UNL     1       1.528   9.703  21.411  0.00  0.00    +0.000 HD
ATOM     23  H   UNL     1       1.267   7.389  21.581  0.00  0.00    +0.000 HD
BRANCH  21  24
ATOM     24  C   UNL     1       2.210   6.102  20.249  0.00  0.00    +0.000 A 
ATOM     25  C   UNL     1       3.402   5.940  19.532  0.00  0.00    +0.000 A 
ATOM     26  C   UNL     1       3.785   4.681  19.057  0.00  0.00    +0.000 A 
ATOM     27  C   UNL     1       2.969   3.567  19.277  0.00  0.00    +0.000 A 
ATOM     28  C   UNL     1       1.771   3.729  19.988  0.00  0.00    +0.000 A 
ATOM     29  C   UNL     1       1.405   4.987  20.494  0.00  0.00    +0.000 A 
BRANCH  27  30
ATOM     30  C   UNL     1       3.348   2.275  18.785  0.00  0.00    +0.000 C 
ATOM     31  N   UNL     1       3.667   1.230  18.384  0.00  0.00    +0.000 NA
ENDBRANCH  27  30
ENDBRANCH  21  24
ENDBRANCH   5  18
TORSDOF 6
ENDMDL
