MODEL 1
REMARK VINA RESULT:      -8.8      0.000      0.000
REMARK  Name = 
REMARK  1 active torsions:
REMARK  status: ('A' for Active; 'I' for Inactive)
REMARK    1  A    between atoms: C_14  and  C_15
REMARK                            x       y       z     vdW  Elec       q    Type
REMARK                         _______ _______ _______ _____ _____    ______ ____
ROOT
ATOM      1  F   UNL     1       6.320   3.305  13.280  0.00  0.00    +0.000 F 
ATOM      2  C   UNL     1       6.215   3.949  14.449  0.00  0.00    +0.000 A 
ATOM      3  C   UNL     1       7.098   4.976  14.743  0.00  0.00    +0.000 A 
ATOM      4  C   UNL     1       6.934   5.691  15.923  0.00  0.00    +0.000 A 
ATOM      5  C   UNL     1       5.886   5.367  16.795  0.00  0.00    +0.000 A 
ATOM      6  C   UNL     1       5.061   4.237  16.579  0.00  0.00    +0.000 A 
ATOM      7  C   UNL     1       5.221   3.569  15.351  0.00  0.00    +0.000 A 
ATOM      8  C   UNL     1       4.063   3.753  17.557  0.00  0.00    +0.000 A 
ATOM      9  C   UNL     1       3.740   2.404  17.774  0.00  0.00    +0.000 A 
ATOM     10  C   UNL     1       2.750   2.070  18.696  0.00  0.00    +0.000 A 
ATOM     11  N   UNL     1       2.006   2.941  19.417  0.00  0.00    +0.000 NA
ATOM     12  C   UNL     1       2.355   4.219  19.189  0.00  0.00    +0.000 A 
ATOM     13  N   UNL     1       1.760   5.314  19.757  0.00  0.00    +0.000 N 
ATOM     14  C   UNL     1       2.374   6.464  19.308  0.00  0.00    +0.000 A 
ATOM     15  C   UNL     1       3.421   6.083  18.491  0.00  0.00    +0.000 A 
ATOM     16  C   UNL     1       3.351   4.674  18.340  0.00  0.00    +0.000 A 
ATOM     17  C   UNL     1       4.470   6.901  17.828  0.00  0.00    +0.000 C 
ATOM     18  O   UNL     1       5.747   6.228  17.860  0.00  0.00    +0.000 OA
ATOM     19  H   UNL     1       0.987   5.264  20.405  0.00  0.00    +0.000 HD
ENDROOT
BRANCH  14  20
ATOM     20  C   UNL     1       1.854   7.731  19.674  0.00  0.00    +0.000 C 
ATOM     21  C   UNL     1       1.759   8.671  18.712  0.00  0.00    +0.000 C 
ATOM     22  C   UNL     1       1.134  10.019  18.929  0.00  0.00    +0.000 C 
ATOM     23  N   UNL     1       0.363  10.134  20.170  0.00  0.00    +0.000 NA
ATOM     24  C   UNL     1       1.099   9.535  21.288  0.00  0.00    +0.000 C 
ATOM     25  C   UNL     1       1.337   8.039  21.066  0.00  0.00    +0.000 C 
ATOM     26  H   UNL     1      -0.514   9.628  20.046  0.00  0.00    +0.000 HD
ENDBRANCH  14  20
TORSDOF 1
ENDMDL
MODEL 2
REMARK VINA RESULT:      -8.8      0.248      1.021
REMARK  Name = 
REMARK  1 active torsions:
REMARK  status: ('A' for Active; 'I' for Inactive)
REMARK    1  A    between atoms: C_14  and  C_15
REMARK                            x       y       z     vdW  Elec       q    Type
REMARK                         _______ _______ _______ _____ _____    ______ ____
ROOT
ATOM      1  F   UNL     1       6.332   3.327  13.305  0.00  0.00    +0.000 F 
ATOM      2  C   UNL     1       6.217   3.969  14.474  0.00  0.00    +0.000 A 
ATOM      3  C   UNL     1       7.089   5.006  14.769  0.00  0.00    +0.000 A 
ATOM      4  C   UNL     1       6.916   5.719  15.948  0.00  0.00    +0.000 A 
ATOM      5  C   UNL     1       5.871   5.384  16.819  0.00  0.00    +0.000 A 
ATOM      6  C   UNL     1       5.058   4.245  16.602  0.00  0.00    +0.000 A 
ATOM      7  C   UNL     1       5.227   3.579  15.374  0.00  0.00    +0.000 A 
ATOM      8  C   UNL     1       4.064   3.750  17.579  0.00  0.00    +0.000 A 
ATOM      9  C   UNL     1       3.756   2.398  17.796  0.00  0.00    +0.000 A 
ATOM     10  C   UNL     1       2.769   2.053  18.717  0.00  0.00    +0.000 A 
ATOM     11  N   UNL     1       2.014   2.915  19.437  0.00  0.00    +0.000 NA
ATOM     12  C   UNL     1       2.349   4.197  19.209  0.00  0.00    +0.000 A 
ATOM     13  N   UNL     1       1.742   5.286  19.776  0.00  0.00    +0.000 N 
ATOM     14  C   UNL     1       2.343   6.442  19.328  0.00  0.00    +0.000 A 
ATOM     15  C   UNL     1       3.396   6.073  18.512  0.00  0.00    +0.000 A 
ATOM     16  C   UNL     1       3.342   4.663  18.361  0.00  0.00    +0.000 A 
ATOM     17  C   UNL     1       4.436   6.903  17.850  0.00  0.00    +0.000 C 
ATOM     18  O   UNL     1       5.720   6.243  17.884  0.00  0.00    +0.000 OA
ATOM     19  H   UNL     1       0.969   5.227  20.424  0.00  0.00    +0.000 HD
ENDROOT
BRANCH  14  20
ATOM     20  C   UNL     1       1.809   7.704  19.693  0.00  0.00    +0.000 C 
ATOM     21  C   UNL     1       1.474   7.893  20.985  0.00  0.00    +0.000 C 
ATOM     22  C   UNL     1       0.995   9.206  21.533  0.00  0.00    +0.000 C 
ATOM     23  N   UNL     1       1.205  10.347  20.637  0.00  0.00    +0.000 NA
ATOM     24  C   UNL     1       0.820   9.999  19.266  0.00  0.00    +0.000 C 
ATOM     25  C   UNL     1       1.676   8.855  18.715  0.00  0.00    +0.000 C 
ATOM     26  H   UNL     1       2.197  10.581  20.649  0.00  0.00    +0.000 HD
ENDBRANCH  14  20
TORSDOF 1
ENDMDL
MODEL 3
REMARK VINA RESULT:      -8.3      3.263      6.514
REMARK  Name = 
REMARK  1 active torsions:
REMARK  status: ('A' for Active; 'I' for Inactive)
REMARK    1  A    between atoms: C_14  and  C_15
REMARK                            x       y       z     vdW  Elec       q    Type
REMARK                         _______ _______ _______ _____ _____    ______ ____
ROOT
ATOM      1  F   UNL     1       1.021   9.254  22.815  0.00  0.00    +0.000 F 
ATOM      2  C   UNL     1       1.202   8.796  21.570  0.00  0.00    +0.000 A 
ATOM      3  C   UNL     1       1.138   9.679  20.503  0.00  0.00    +0.000 A 
ATOM      4  C   UNL     1       1.404   9.212  19.222  0.00  0.00    +0.000 A 
ATOM      5  C   UNL     1       1.729   7.863  19.025  0.00  0.00    +0.000 A 
ATOM      6  C   UNL     1       1.664   6.921  20.080  0.00  0.00    +0.000 A 
ATOM      7  C   UNL     1       1.445   7.437  21.370  0.00  0.00    +0.000 A 
ATOM      8  C   UNL     1       1.825   5.463  19.886  0.00  0.00    +0.000 A 
ATOM      9  C   UNL     1       1.143   4.477  20.616  0.00  0.00    +0.000 A 
ATOM     10  C   UNL     1       1.407   3.131  20.372  0.00  0.00    +0.000 A 
ATOM     11  N   UNL     1       2.313   2.642  19.493  0.00  0.00    +0.000 NA
ATOM     12  C   UNL     1       2.933   3.618  18.807  0.00  0.00    +0.000 A 
ATOM     13  N   UNL     1       3.914   3.425  17.871  0.00  0.00    +0.000 N 
ATOM     14  C   UNL     1       4.318   4.641  17.361  0.00  0.00    +0.000 A 
ATOM     15  C   UNL     1       3.530   5.617  17.941  0.00  0.00    +0.000 A 
ATOM     16  C   UNL     1       2.722   4.983  18.921  0.00  0.00    +0.000 A 
ATOM     17  C   UNL     1       3.464   7.078  17.682  0.00  0.00    +0.000 C 
ATOM     18  O   UNL     1       2.100   7.551  17.737  0.00  0.00    +0.000 OA
ATOM     19  H   UNL     1       4.273   2.518  17.608  0.00  0.00    +0.000 HD
ENDROOT
BRANCH  14  20
ATOM     20  C   UNL     1       5.407   4.700  16.455  0.00  0.00    +0.000 C 
ATOM     21  C   UNL     1       5.253   4.115  15.250  0.00  0.00    +0.000 C 
ATOM     22  C   UNL     1       6.278   4.188  14.156  0.00  0.00    +0.000 C 
ATOM     23  N   UNL     1       7.325   5.189  14.376  0.00  0.00    +0.000 NA
ATOM     24  C   UNL     1       7.806   5.133  15.759  0.00  0.00    +0.000 C 
ATOM     25  C   UNL     1       6.689   5.452  16.756  0.00  0.00    +0.000 C 
ATOM     26  H   UNL     1       6.922   6.111  14.207  0.00  0.00    +0.000 HD
ENDBRANCH  14  20
TORSDOF 1
ENDMDL
MODEL 4
REMARK VINA RESULT:      -7.9      3.325      6.603
REMARK  Name = 
REMARK  1 active torsions:
REMARK  status: ('A' for Active; 'I' for Inactive)
REMARK    1  A    between atoms: C_14  and  C_15
REMARK                            x       y       z     vdW  Elec       q    Type
REMARK                         _______ _______ _______ _____ _____    ______ ____
ROOT
ATOM      1  F   UNL     1       0.843   9.616  22.996  0.00  0.00    +0.000 F 
ATOM      2  C   UNL     1       1.017   9.175  21.744  0.00  0.00    +0.000 A 
ATOM      3  C   UNL     1       0.914  10.066  20.688  0.00  0.00    +0.000 A 
ATOM      4  C   UNL     1       1.172   9.618  19.398  0.00  0.00    +0.000 A 
ATOM      5  C   UNL     1       1.530   8.281  19.183  0.00  0.00    +0.000 A 
ATOM      6  C   UNL     1       1.506   7.327  20.229  0.00  0.00    +0.000 A 
ATOM      7  C   UNL     1       1.292   7.825  21.528  0.00  0.00    +0.000 A 
ATOM      8  C   UNL     1       1.701   5.876  20.019  0.00  0.00    +0.000 A 
ATOM      9  C   UNL     1       1.057   4.865  20.750  0.00  0.00    +0.000 A 
ATOM     10  C   UNL     1       1.352   3.529  20.489  0.00  0.00    +0.000 A 
ATOM     11  N   UNL     1       2.257   3.072  19.591  0.00  0.00    +0.000 NA
ATOM     12  C   UNL     1       2.841   4.070  18.906  0.00  0.00    +0.000 A 
ATOM     13  N   UNL     1       3.812   3.912  17.953  0.00  0.00    +0.000 N 
ATOM     14  C   UNL     1       4.176   5.143  17.449  0.00  0.00    +0.000 A 
ATOM     15  C   UNL     1       3.372   6.092  18.050  0.00  0.00    +0.000 A 
ATOM     16  C   UNL     1       2.596   5.428  19.036  0.00  0.00    +0.000 A 
ATOM     17  C   UNL     1       3.264   7.554  17.806  0.00  0.00    +0.000 C 
ATOM     18  O   UNL     1       1.889   7.990  17.886  0.00  0.00    +0.000 OA
ATOM     19  H   UNL     1       4.190   3.018  17.675  0.00  0.00    +0.000 HD
ENDROOT
BRANCH  14  20
ATOM     20  C   UNL     1       5.249   5.240  16.527  0.00  0.00    +0.000 C 
ATOM     21  C   UNL     1       6.251   6.093  16.818  0.00  0.00    +0.000 C 
ATOM     22  C   UNL     1       7.496   6.223  15.990  0.00  0.00    +0.000 C 
ATOM     23  N   UNL     1       7.687   5.147  15.014  0.00  0.00    +0.000 NA
ATOM     24  C   UNL     1       6.430   4.859  14.316  0.00  0.00    +0.000 C 
ATOM     25  C   UNL     1       5.348   4.375  15.285  0.00  0.00    +0.000 C 
ATOM     26  H   UNL     1       7.980   4.310  15.518  0.00  0.00    +0.000 HD
ENDBRANCH  14  20
TORSDOF 1
ENDMDL
MODEL 5
REMARK VINA RESULT:      -7.7      3.376      6.794
REMARK  Name = 
REMARK  1 active torsions:
REMARK  status: ('A' for Active; 'I' for Inactive)
REMARK    1  A    between atoms: C_14  and  C_15
REMARK                            x       y       z     vdW  Elec       q    Type
REMARK                         _______ _______ _______ _____ _____    ______ ____
ROOT
ATOM      1  F   UNL     1       0.702   2.733  21.463  0.00  0.00    +0.000 F 
ATOM      2  C   UNL     1       1.875   3.059  20.908  0.00  0.00    +0.000 A 
ATOM      3  C   UNL     1       2.984   2.259  21.138  0.00  0.00    +0.000 A 
ATOM      4  C   UNL     1       4.179   2.560  20.496  0.00  0.00    +0.000 A 
ATOM      5  C   UNL     1       4.249   3.660  19.631  0.00  0.00    +0.000 A 
ATOM      6  C   UNL     1       3.170   4.565  19.491  0.00  0.00    +0.000 A 
ATOM      7  C   UNL     1       1.961   4.202  20.112  0.00  0.00    +0.000 A 
ATOM      8  C   UNL     1       3.257   5.832  18.732  0.00  0.00    +0.000 A 
ATOM      9  C   UNL     1       2.594   7.021  19.075  0.00  0.00    +0.000 A 
ATOM     10  C   UNL     1       2.720   8.143  18.259  0.00  0.00    +0.000 A 
ATOM     11  N   UNL     1       3.416   8.211  17.099  0.00  0.00    +0.000 NA
ATOM     12  C   UNL     1       4.044   7.057  16.814  0.00  0.00    +0.000 A 
ATOM     13  N   UNL     1       4.799   6.824  15.696  0.00  0.00    +0.000 N 
ATOM     14  C   UNL     1       5.301   5.540  15.731  0.00  0.00    +0.000 A 
ATOM     15  C   UNL     1       4.908   4.974  16.928  0.00  0.00    +0.000 A 
ATOM     16  C   UNL     1       4.038   5.895  17.569  0.00  0.00    +0.000 A 
ATOM     17  C   UNL     1       5.252   3.658  17.528  0.00  0.00    +0.000 C 
ATOM     18  O   UNL     1       5.442   3.776  18.955  0.00  0.00    +0.000 OA
ATOM     19  H   UNL     1       4.953   7.505  14.966  0.00  0.00    +0.000 HD
ENDROOT
BRANCH  14  20
ATOM     20  C   UNL     1       6.023   5.033  14.621  0.00  0.00    +0.000 C 
ATOM     21  C   UNL     1       5.459   4.038  13.908  0.00  0.00    +0.000 C 
ATOM     22  C   UNL     1       6.058   3.475  12.652  0.00  0.00    +0.000 C 
ATOM     23  N   UNL     1       7.140   4.284  12.085  0.00  0.00    +0.000 NA
ATOM     24  C   UNL     1       8.058   4.724  13.140  0.00  0.00    +0.000 C 
ATOM     25  C   UNL     1       7.348   5.613  14.166  0.00  0.00    +0.000 C 
ATOM     26  H   UNL     1       6.725   5.107  11.647  0.00  0.00    +0.000 HD
ENDBRANCH  14  20
TORSDOF 1
ENDMDL
MODEL 6
REMARK VINA RESULT:      -7.5      3.993      7.192
REMARK  Name = 
REMARK  1 active torsions:
REMARK  status: ('A' for Active; 'I' for Inactive)
REMARK    1  A    between atoms: C_14  and  C_15
REMARK                            x       y       z     vdW  Elec       q    Type
REMARK                         _______ _______ _______ _____ _____    ______ ____
ROOT
ATOM      1  F   UNL     1       1.131   6.019  21.072  0.00  0.00    +0.000 F 
ATOM      2  C   UNL     1       1.810   5.188  20.272  0.00  0.00    +0.000 A 
ATOM      3  C   UNL     1       1.185   4.053  19.780  0.00  0.00    +0.000 A 
ATOM      4  C   UNL     1       1.870   3.237  18.889  0.00  0.00    +0.000 A 
ATOM      5  C   UNL     1       3.175   3.569  18.500  0.00  0.00    +0.000 A 
ATOM      6  C   UNL     1       3.876   4.645  19.094  0.00  0.00    +0.000 A 
ATOM      7  C   UNL     1       3.136   5.480  19.952  0.00  0.00    +0.000 A 
ATOM      8  C   UNL     1       5.308   4.924  18.848  0.00  0.00    +0.000 A 
ATOM      9  C   UNL     1       6.202   5.435  19.803  0.00  0.00    +0.000 A 
ATOM     10  C   UNL     1       7.522   5.697  19.443  0.00  0.00    +0.000 A 
ATOM     11  N   UNL     1       8.059   5.539  18.210  0.00  0.00    +0.000 NA
ATOM     12  C   UNL     1       7.174   5.038  17.331  0.00  0.00    +0.000 A 
ATOM     13  N   UNL     1       7.426   4.797  16.006  0.00  0.00    +0.000 N 
ATOM     14  C   UNL     1       6.301   4.275  15.404  0.00  0.00    +0.000 A 
ATOM     15  C   UNL     1       5.339   4.122  16.384  0.00  0.00    +0.000 A 
ATOM     16  C   UNL     1       5.855   4.690  17.579  0.00  0.00    +0.000 A 
ATOM     17  C   UNL     1       3.985   3.513  16.316  0.00  0.00    +0.000 C 
ATOM     18  O   UNL     1       3.697   2.761  17.515  0.00  0.00    +0.000 OA
ATOM     19  H   UNL     1       8.312   4.982  15.557  0.00  0.00    +0.000 HD
ENDROOT
BRANCH  14  20
ATOM     20  C   UNL     1       6.288   4.051  14.005  0.00  0.00    +0.000 C 
ATOM     21  C   UNL     1       7.236   4.659  13.263  0.00  0.00    +0.000 C 
ATOM     22  C   UNL     1       7.407   4.433  11.789  0.00  0.00    +0.000 C 
ATOM     23  N   UNL     1       6.671   3.279  11.266  0.00  0.00    +0.000 NA
ATOM     24  C   UNL     1       5.308   3.253  11.807  0.00  0.00    +0.000 C 
ATOM     25  C   UNL     1       5.311   3.107  13.331  0.00  0.00    +0.000 C 
ATOM     26  H   UNL     1       7.157   2.432  11.562  0.00  0.00    +0.000 HD
ENDBRANCH  14  20
TORSDOF 1
ENDMDL
MODEL 7
REMARK VINA RESULT:      -7.3      3.876      7.374
REMARK  Name = 
REMARK  1 active torsions:
REMARK  status: ('A' for Active; 'I' for Inactive)
REMARK    1  A    between atoms: C_14  and  C_15
REMARK                            x       y       z     vdW  Elec       q    Type
REMARK                         _______ _______ _______ _____ _____    ______ ____
ROOT
ATOM      1  F   UNL     1       1.622   6.383  20.928  0.00  0.00    +0.000 F 
ATOM      2  C   UNL     1       2.348   5.537  20.186  0.00  0.00    +0.000 A 
ATOM      3  C   UNL     1       1.993   4.198  20.135  0.00  0.00    +0.000 A 
ATOM      4  C   UNL     1       2.702   3.342  19.303  0.00  0.00    +0.000 A 
ATOM      5  C   UNL     1       3.761   3.838  18.530  0.00  0.00    +0.000 A 
ATOM      6  C   UNL     1       4.224   5.168  18.671  0.00  0.00    +0.000 A 
ATOM      7  C   UNL     1       3.451   6.020  19.482  0.00  0.00    +0.000 A 
ATOM      8  C   UNL     1       5.444   5.684  18.012  0.00  0.00    +0.000 A 
ATOM      9  C   UNL     1       6.317   6.632  18.569  0.00  0.00    +0.000 A 
ATOM     10  C   UNL     1       7.415   7.075  17.835  0.00  0.00    +0.000 A 
ATOM     11  N   UNL     1       7.734   6.702  16.573  0.00  0.00    +0.000 NA
ATOM     12  C   UNL     1       6.880   5.787  16.082  0.00  0.00    +0.000 A 
ATOM     13  N   UNL     1       6.938   5.246  14.825  0.00  0.00    +0.000 N 
ATOM     14  C   UNL     1       5.916   4.335  14.662  0.00  0.00    +0.000 A 
ATOM     15  C   UNL     1       5.240   4.250  15.864  0.00  0.00    +0.000 A 
ATOM     16  C   UNL     1       5.787   5.233  16.729  0.00  0.00    +0.000 A 
ATOM     17  C   UNL     1       4.129   3.355  16.280  0.00  0.00    +0.000 C 
ATOM     18  O   UNL     1       4.297   2.926  17.650  0.00  0.00    +0.000 OA
ATOM     19  H   UNL     1       7.633   5.493  14.136  0.00  0.00    +0.000 HD
ENDROOT
BRANCH  14  20
ATOM     20  C   UNL     1       5.705   3.729  13.398  0.00  0.00    +0.000 C 
ATOM     21  C   UNL     1       6.782   3.243  12.748  0.00  0.00    +0.000 C 
ATOM     22  C   UNL     1       6.698   2.486  11.454  0.00  0.00    +0.000 C 
ATOM     23  N   UNL     1       5.345   2.048  11.099  0.00  0.00    +0.000 NA
ATOM     24  C   UNL     1       4.381   3.129  11.321  0.00  0.00    +0.000 C 
ATOM     25  C   UNL     1       4.327   3.539  12.795  0.00  0.00    +0.000 C 
ATOM     26  H   UNL     1       5.100   1.261  11.699  0.00  0.00    +0.000 HD
ENDBRANCH  14  20
TORSDOF 1
ENDMDL
MODEL 8
REMARK VINA RESULT:      -7.3      4.551      8.238
REMARK  Name = 
REMARK  1 active torsions:
REMARK  status: ('A' for Active; 'I' for Inactive)
REMARK    1  A    between atoms: C_14  and  C_15
REMARK                            x       y       z     vdW  Elec       q    Type
REMARK                         _______ _______ _______ _____ _____    ______ ____
ROOT
ATOM      1  F   UNL     1      -2.909  12.585  21.553  0.00  0.00    +0.000 F 
ATOM      2  C   UNL     1      -1.863  11.776  21.763  0.00  0.00    +0.000 A 
ATOM      3  C   UNL     1      -1.598  11.322  23.046  0.00  0.00    +0.000 A 
ATOM      4  C   UNL     1      -0.559  10.422  23.243  0.00  0.00    +0.000 A 
ATOM      5  C   UNL     1       0.205   9.988  22.151  0.00  0.00    +0.000 A 
ATOM      6  C   UNL     1       0.038  10.544  20.860  0.00  0.00    +0.000 A 
ATOM      7  C   UNL     1      -1.056  11.411  20.685  0.00  0.00    +0.000 A 
ATOM      8  C   UNL     1       0.934  10.249  19.720  0.00  0.00    +0.000 A 
ATOM      9  C   UNL     1       1.289  11.167  18.719  0.00  0.00    +0.000 A 
ATOM     10  C   UNL     1       2.110  10.762  17.669  0.00  0.00    +0.000 A 
ATOM     11  N   UNL     1       2.603   9.516  17.477  0.00  0.00    +0.000 NA
ATOM     12  C   UNL     1       2.250   8.672  18.462  0.00  0.00    +0.000 A 
ATOM     13  N   UNL     1       2.581   7.344  18.522  0.00  0.00    +0.000 N 
ATOM     14  C   UNL     1       2.063   6.786  19.672  0.00  0.00    +0.000 A 
ATOM     15  C   UNL     1       1.450   7.798  20.385  0.00  0.00    +0.000 A 
ATOM     16  C   UNL     1       1.485   8.966  19.580  0.00  0.00    +0.000 A 
ATOM     17  C   UNL     1       0.825   7.781  21.733  0.00  0.00    +0.000 C 
ATOM     18  O   UNL     1       1.115   9.000  22.452  0.00  0.00    +0.000 OA
ATOM     19  H   UNL     1       3.123   6.865  17.818  0.00  0.00    +0.000 HD
ENDROOT
BRANCH  14  20
ATOM     20  C   UNL     1       2.181   5.391  19.895  0.00  0.00    +0.000 C 
ATOM     21  C   UNL     1       3.371   4.812  19.633  0.00  0.00    +0.000 C 
ATOM     22  C   UNL     1       3.671   3.369  19.918  0.00  0.00    +0.000 C 
ATOM     23  N   UNL     1       2.687   2.706  20.778  0.00  0.00    +0.000 NA
ATOM     24  C   UNL     1       1.325   3.050  20.358  0.00  0.00    +0.000 C 
ATOM     25  C   UNL     1       1.061   4.553  20.481  0.00  0.00    +0.000 C 
ATOM     26  H   UNL     1       2.829   3.036  21.733  0.00  0.00    +0.000 HD
ENDBRANCH  14  20
TORSDOF 1
ENDMDL
MODEL 9
REMARK VINA RESULT:      -7.3      3.379      6.854
REMARK  Name = 
REMARK  1 active torsions:
REMARK  status: ('A' for Active; 'I' for Inactive)
REMARK    1  A    between atoms: C_14  and  C_15
REMARK                            x       y       z     vdW  Elec       q    Type
REMARK                         _______ _______ _______ _____ _____    ______ ____
ROOT
ATOM      1  F   UNL     1       0.716   2.881  21.566  0.00  0.00    +0.000 F 
ATOM      2  C   UNL     1       1.879   3.132  20.952  0.00  0.00    +0.000 A 
ATOM      3  C   UNL     1       2.946   2.266  21.133  0.00  0.00    +0.000 A 
ATOM      4  C   UNL     1       4.124   2.491  20.431  0.00  0.00    +0.000 A 
ATOM      5  C   UNL     1       4.219   3.581  19.557  0.00  0.00    +0.000 A 
ATOM      6  C   UNL     1       3.191   4.551  19.464  0.00  0.00    +0.000 A 
ATOM      7  C   UNL     1       1.994   4.265  20.146  0.00  0.00    +0.000 A 
ATOM      8  C   UNL     1       3.319   5.807  18.693  0.00  0.00    +0.000 A 
ATOM      9  C   UNL     1       2.748   7.035  19.060  0.00  0.00    +0.000 A 
ATOM     10  C   UNL     1       2.902   8.145  18.231  0.00  0.00    +0.000 A 
ATOM     11  N   UNL     1       3.542   8.166  17.039  0.00  0.00    +0.000 NA
ATOM     12  C   UNL     1       4.083   6.975  16.731  0.00  0.00    +0.000 A 
ATOM     13  N   UNL     1       4.767   6.692  15.579  0.00  0.00    +0.000 N 
ATOM     14  C   UNL     1       5.191   5.380  15.598  0.00  0.00    +0.000 A 
ATOM     15  C   UNL     1       4.823   4.842  16.816  0.00  0.00    +0.000 A 
ATOM     16  C   UNL     1       4.044   5.817  17.492  0.00  0.00    +0.000 A 
ATOM     17  C   UNL     1       5.115   3.511  17.407  0.00  0.00    +0.000 C 
ATOM     18  O   UNL     1       5.382   3.621  18.822  0.00  0.00    +0.000 OA
ATOM     19  H   UNL     1       4.926   7.360  14.838  0.00  0.00    +0.000 HD
ENDROOT
BRANCH  14  20
ATOM     20  C   UNL     1       5.824   4.825  14.457  0.00  0.00    +0.000 C 
ATOM     21  C   UNL     1       7.032   5.315  14.110  0.00  0.00    +0.000 C 
ATOM     22  C   UNL     1       7.863   4.756  12.991  0.00  0.00    +0.000 C 
ATOM     23  N   UNL     1       7.411   3.452  12.498  0.00  0.00    +0.000 NA
ATOM     24  C   UNL     1       5.954   3.441  12.336  0.00  0.00    +0.000 C 
ATOM     25  C   UNL     1       5.240   3.667  13.672  0.00  0.00    +0.000 C 
ATOM     26  H   UNL     1       7.670   2.746  13.187  0.00  0.00    +0.000 HD
ENDBRANCH  14  20
TORSDOF 1
ENDMDL
