MODEL 1
REMARK VINA RESULT:      -7.0      0.000      0.000
REMARK  Name = 
REMARK  5 active torsions:
REMARK  status: ('A' for Active; 'I' for Inactive)
REMARK    1  A    between atoms: C_1  and  O_2
REMARK    2  A    between atoms: O_2  and  C_3
REMARK    3  A    between atoms: C_6  and  O_7
REMARK    4  A    between atoms: O_7  and  C_8
REMARK    5  A    between atoms: C_8  and  C_9
REMARK                            x       y       z     vdW  Elec       q    Type
REMARK                         _______ _______ _______ _____ _____    ______ ____
ROOT
ATOM      1  C   UNL     1       6.920   4.933  19.108  0.00  0.00    +0.000 C 
ENDROOT
BRANCH   1   2
ATOM      2  C   UNL     1       7.193   5.290  17.644  0.00  0.00    +0.000 C 
ATOM      3  O   UNL     1       7.847   6.292  17.366  0.00  0.00    +0.000 OA
ATOM      4  N   UNL     1       6.687   4.357  16.758  0.00  0.00    +0.000 N 
ATOM      5  C   UNL     1       6.838   4.496  15.401  0.00  0.00    +0.000 A 
ATOM      6  N   UNL     1       7.420   5.451  14.710  0.00  0.00    +0.000 NA
ATOM      7  N   UNL     1       7.315   5.148  13.371  0.00  0.00    +0.000 NA
ATOM      8  C   UNL     1       6.675   4.010  13.274  0.00  0.00    +0.000 A 
ATOM      9  N   UNL     1       6.351   3.566  14.520  0.00  0.00    +0.000 N 
ATOM     10  H   UNL     1       6.159   3.584  17.142  0.00  0.00    +0.000 HD
ATOM     11  H   UNL     1       5.865   2.714  14.745  0.00  0.00    +0.000 HD
ENDBRANCH   1   2
BRANCH   1  12
ATOM     12  O   UNL     1       5.797   5.658  19.605  0.00  0.00    +0.000 OA
BRANCH  12  16
ATOM     13  C   UNL     1       2.134   4.094  18.363  0.00  0.00    +0.000 A 
ATOM     14  C   UNL     1       3.083   3.320  19.031  0.00  0.00    +0.000 A 
ATOM     15  C   UNL     1       4.292   3.883  19.445  0.00  0.00    +0.000 A 
ATOM     16  C   UNL     1       4.579   5.218  19.163  0.00  0.00    +0.000 A 
ATOM     17  C   UNL     1       3.632   5.997  18.495  0.00  0.00    +0.000 A 
ATOM     18  C   UNL     1       2.413   5.433  18.090  0.00  0.00    +0.000 A 
BRANCH  13  20
ATOM     19  C   UNL     1       0.727   2.222  18.707  0.00  0.00    +0.000 C 
ATOM     20  O   UNL     1       0.996   3.426  17.999  0.00  0.00    +0.000 OA
ENDBRANCH  13  20
ENDBRANCH  12  16
ENDBRANCH   1  12
TORSDOF 4
ENDMDL
MODEL 2
REMARK VINA RESULT:      -6.9      1.519      1.725
REMARK  Name = 
REMARK  5 active torsions:
REMARK  status: ('A' for Active; 'I' for Inactive)
REMARK    1  A    between atoms: C_1  and  O_2
REMARK    2  A    between atoms: O_2  and  C_3
REMARK    3  A    between atoms: C_6  and  O_7
REMARK    4  A    between atoms: O_7  and  C_8
REMARK    5  A    between atoms: C_8  and  C_9
REMARK                            x       y       z     vdW  Elec       q    Type
REMARK                         _______ _______ _______ _____ _____    ______ ____
ROOT
ATOM      1  C   UNL     1       5.888   5.971  17.863  0.00  0.00    +0.000 C 
ENDROOT
BRANCH   1   2
ATOM      2  C   UNL     1       6.601   5.905  16.510  0.00  0.00    +0.000 C 
ATOM      3  O   UNL     1       7.558   6.639  16.282  0.00  0.00    +0.000 OA
ATOM      4  N   UNL     1       6.084   4.931  15.675  0.00  0.00    +0.000 N 
ATOM      5  C   UNL     1       6.595   4.712  14.420  0.00  0.00    +0.000 A 
ATOM      6  N   UNL     1       7.575   5.321  13.790  0.00  0.00    +0.000 NA
ATOM      7  N   UNL     1       7.719   4.747  12.547  0.00  0.00    +0.000 NA
ATOM      8  C   UNL     1       6.826   3.794  12.448  0.00  0.00    +0.000 A 
ATOM      9  N   UNL     1       6.096   3.738  13.595  0.00  0.00    +0.000 N 
ATOM     10  H   UNL     1       5.281   4.410  16.003  0.00  0.00    +0.000 HD
ATOM     11  H   UNL     1       5.348   3.096  13.800  0.00  0.00    +0.000 HD
ENDBRANCH   1   2
BRANCH   1  12
ATOM     12  O   UNL     1       4.539   6.407  17.705  0.00  0.00    +0.000 OA
BRANCH  12  16
ATOM     13  C   UNL     1       1.697   4.057  19.656  0.00  0.00    +0.000 A 
ATOM     14  C   UNL     1       2.440   5.030  20.324  0.00  0.00    +0.000 A 
ATOM     15  C   UNL     1       3.372   5.808  19.634  0.00  0.00    +0.000 A 
ATOM     16  C   UNL     1       3.595   5.596  18.274  0.00  0.00    +0.000 A 
ATOM     17  C   UNL     1       2.854   4.623  17.601  0.00  0.00    +0.000 A 
ATOM     18  C   UNL     1       1.910   3.850  18.292  0.00  0.00    +0.000 A 
BRANCH  13  20
ATOM     19  C   UNL     1       1.399   2.675  21.553  0.00  0.00    +0.000 C 
ATOM     20  O   UNL     1       0.826   3.354  20.442  0.00  0.00    +0.000 OA
ENDBRANCH  13  20
ENDBRANCH  12  16
ENDBRANCH   1  12
TORSDOF 4
ENDMDL
MODEL 3
REMARK VINA RESULT:      -6.8      1.523      1.927
REMARK  Name = 
REMARK  5 active torsions:
REMARK  status: ('A' for Active; 'I' for Inactive)
REMARK    1  A    between atoms: C_1  and  O_2
REMARK    2  A    between atoms: O_2  and  C_3
REMARK    3  A    between atoms: C_6  and  O_7
REMARK    4  A    between atoms: O_7  and  C_8
REMARK    5  A    between atoms: C_8  and  C_9
REMARK                            x       y       z     vdW  Elec       q    Type
REMARK                         _______ _______ _______ _____ _____    ______ ____
ROOT
ATOM      1  C   UNL     1       6.502   5.780  18.127  0.00  0.00    +0.000 C 
ENDROOT
BRANCH   1   2
ATOM      2  C   UNL     1       6.978   5.832  16.673  0.00  0.00    +0.000 C 
ATOM      3  O   UNL     1       7.764   6.704  16.314  0.00  0.00    +0.000 OA
ATOM      4  N   UNL     1       6.479   4.797  15.904  0.00  0.00    +0.000 N 
ATOM      5  C   UNL     1       6.799   4.666  14.576  0.00  0.00    +0.000 A 
ATOM      6  N   UNL     1       7.557   5.421  13.813  0.00  0.00    +0.000 NA
ATOM      7  N   UNL     1       7.574   4.884  12.545  0.00  0.00    +0.000 NA
ATOM      8  C   UNL     1       6.829   3.807  12.564  0.00  0.00    +0.000 A 
ATOM      9  N   UNL     1       6.318   3.633  13.814  0.00  0.00    +0.000 N 
ATOM     10  H   UNL     1       5.830   4.157  16.344  0.00  0.00    +0.000 HD
ATOM     11  H   UNL     1       5.720   2.883  14.119  0.00  0.00    +0.000 HD
ENDBRANCH   1   2
BRANCH   1  12
ATOM     12  O   UNL     1       6.339   4.430  18.559  0.00  0.00    +0.000 OA
BRANCH  12  16
ATOM     13  C   UNL     1       2.621   3.821  20.350  0.00  0.00    +0.000 A 
ATOM     14  C   UNL     1       3.081   5.093  20.012  0.00  0.00    +0.000 A 
ATOM     15  C   UNL     1       4.325   5.256  19.399  0.00  0.00    +0.000 A 
ATOM     16  C   UNL     1       5.137   4.150  19.151  0.00  0.00    +0.000 A 
ATOM     17  C   UNL     1       4.681   2.875  19.489  0.00  0.00    +0.000 A 
ATOM     18  C   UNL     1       3.426   2.711  20.093  0.00  0.00    +0.000 A 
BRANCH  13  20
ATOM     19  C   UNL     1       1.151   2.690  21.821  0.00  0.00    +0.000 C 
ATOM     20  O   UNL     1       1.394   3.793  20.955  0.00  0.00    +0.000 OA
ENDBRANCH  13  20
ENDBRANCH  12  16
ENDBRANCH   1  12
TORSDOF 4
ENDMDL
MODEL 4
REMARK VINA RESULT:      -6.7      0.877      1.456
REMARK  Name = 
REMARK  5 active torsions:
REMARK  status: ('A' for Active; 'I' for Inactive)
REMARK    1  A    between atoms: C_1  and  O_2
REMARK    2  A    between atoms: O_2  and  C_3
REMARK    3  A    between atoms: C_6  and  O_7
REMARK    4  A    between atoms: O_7  and  C_8
REMARK    5  A    between atoms: C_8  and  C_9
REMARK                            x       y       z     vdW  Elec       q    Type
REMARK                         _______ _______ _______ _____ _____    ______ ____
ROOT
ATOM      1  C   UNL     1       6.804   5.202  17.994  0.00  0.00    +0.000 C 
ENDROOT
BRANCH   1   2
ATOM      2  C   UNL     1       7.102   5.414  16.507  0.00  0.00    +0.000 C 
ATOM      3  O   UNL     1       7.723   6.406  16.139  0.00  0.00    +0.000 OA
ATOM      4  N   UNL     1       6.656   4.372  15.714  0.00  0.00    +0.000 N 
ATOM      5  C   UNL     1       6.837   4.374  14.354  0.00  0.00    +0.000 A 
ATOM      6  N   UNL     1       7.400   5.274  13.579  0.00  0.00    +0.000 NA
ATOM      7  N   UNL     1       7.342   4.828  12.277  0.00  0.00    +0.000 NA
ATOM      8  C   UNL     1       6.749   3.660  12.288  0.00  0.00    +0.000 A 
ATOM      9  N   UNL     1       6.410   3.337  13.566  0.00  0.00    +0.000 N 
ATOM     10  H   UNL     1       6.149   3.623  16.166  0.00  0.00    +0.000 HD
ATOM     11  H   UNL     1       5.952   2.494  13.870  0.00  0.00    +0.000 HD
ENDBRANCH   1   2
BRANCH   1  12
ATOM     12  O   UNL     1       5.592   5.855  18.366  0.00  0.00    +0.000 OA
BRANCH  12  16
ATOM     13  C   UNL     1       2.046   3.662  18.204  0.00  0.00    +0.000 A 
ATOM     14  C   UNL     1       2.068   5.049  18.057  0.00  0.00    +0.000 A 
ATOM     15  C   UNL     1       3.276   5.747  18.101  0.00  0.00    +0.000 A 
ATOM     16  C   UNL     1       4.473   5.068  18.330  0.00  0.00    +0.000 A 
ATOM     17  C   UNL     1       4.456   3.680  18.478  0.00  0.00    +0.000 A 
ATOM     18  C   UNL     1       3.243   2.978  18.421  0.00  0.00    +0.000 A 
BRANCH  13  20
ATOM     19  C   UNL     1       0.552   2.056  19.092  0.00  0.00    +0.000 C 
ATOM     20  O   UNL     1       0.802   3.095  18.153  0.00  0.00    +0.000 OA
ENDBRANCH  13  20
ENDBRANCH  12  16
ENDBRANCH   1  12
TORSDOF 4
ENDMDL
MODEL 5
REMARK VINA RESULT:      -6.6      1.573      1.632
REMARK  Name = 
REMARK  5 active torsions:
REMARK  status: ('A' for Active; 'I' for Inactive)
REMARK    1  A    between atoms: C_1  and  O_2
REMARK    2  A    between atoms: O_2  and  C_3
REMARK    3  A    between atoms: C_6  and  O_7
REMARK    4  A    between atoms: O_7  and  C_8
REMARK    5  A    between atoms: C_8  and  C_9
REMARK                            x       y       z     vdW  Elec       q    Type
REMARK                         _______ _______ _______ _____ _____    ______ ____
ROOT
ATOM      1  C   UNL     1       5.890   5.884  17.898  0.00  0.00    +0.000 C 
ENDROOT
BRANCH   1   2
ATOM      2  C   UNL     1       6.627   5.877  16.556  0.00  0.00    +0.000 C 
ATOM      3  O   UNL     1       7.579   6.630  16.372  0.00  0.00    +0.000 OA
ATOM      4  N   UNL     1       6.138   4.928  15.677  0.00  0.00    +0.000 N 
ATOM      5  C   UNL     1       6.674   4.761  14.425  0.00  0.00    +0.000 A 
ATOM      6  N   UNL     1       7.657   5.405  13.835  0.00  0.00    +0.000 NA
ATOM      7  N   UNL     1       7.831   4.879  12.575  0.00  0.00    +0.000 NA
ATOM      8  C   UNL     1       6.952   3.919  12.425  0.00  0.00    +0.000 A 
ATOM      9  N   UNL     1       6.203   3.812  13.556  0.00  0.00    +0.000 N 
ATOM     10  H   UNL     1       5.337   4.385  15.972  0.00  0.00    +0.000 HD
ATOM     11  H   UNL     1       5.460   3.153  13.724  0.00  0.00    +0.000 HD
ENDBRANCH   1   2
BRANCH   1  12
ATOM     12  O   UNL     1       4.560   6.376  17.743  0.00  0.00    +0.000 OA
BRANCH  12  16
ATOM     13  C   UNL     1       1.774   4.292  20.046  0.00  0.00    +0.000 A 
ATOM     14  C   UNL     1       2.631   3.647  19.155  0.00  0.00    +0.000 A 
ATOM     15  C   UNL     1       3.561   4.376  18.412  0.00  0.00    +0.000 A 
ATOM     16  C   UNL     1       3.619   5.765  18.527  0.00  0.00    +0.000 A 
ATOM     17  C   UNL     1       2.764   6.416  19.418  0.00  0.00    +0.000 A 
ATOM     18  C   UNL     1       1.838   5.680  20.172  0.00  0.00    +0.000 A 
BRANCH  13  20
ATOM     19  C   UNL     1       1.486   2.509  21.574  0.00  0.00    +0.000 C 
ATOM     20  O   UNL     1       0.901   3.472  20.706  0.00  0.00    +0.000 OA
ENDBRANCH  13  20
ENDBRANCH  12  16
ENDBRANCH   1  12
TORSDOF 4
ENDMDL
MODEL 6
REMARK VINA RESULT:      -6.6      2.618      3.708
REMARK  Name = 
REMARK  5 active torsions:
REMARK  status: ('A' for Active; 'I' for Inactive)
REMARK    1  A    between atoms: C_1  and  O_2
REMARK    2  A    between atoms: O_2  and  C_3
REMARK    3  A    between atoms: C_6  and  O_7
REMARK    4  A    between atoms: O_7  and  C_8
REMARK    5  A    between atoms: C_8  and  C_9
REMARK                            x       y       z     vdW  Elec       q    Type
REMARK                         _______ _______ _______ _____ _____    ______ ____
ROOT
ATOM      1  C   UNL     1       5.870   4.035  16.153  0.00  0.00    +0.000 C 
ENDROOT
BRANCH   1   2
ATOM      2  C   UNL     1       6.711   4.897  17.098  0.00  0.00    +0.000 C 
ATOM      3  O   UNL     1       7.328   4.376  18.022  0.00  0.00    +0.000 OA
ATOM      4  N   UNL     1       6.720   6.234  16.744  0.00  0.00    +0.000 N 
ATOM      5  C   UNL     1       7.425   7.166  17.463  0.00  0.00    +0.000 A 
ATOM      6  N   UNL     1       8.160   7.018  18.543  0.00  0.00    +0.000 NA
ATOM      7  N   UNL     1       8.667   8.248  18.899  0.00  0.00    +0.000 NA
ATOM      8  C   UNL     1       8.234   9.120  18.023  0.00  0.00    +0.000 A 
ATOM      9  N   UNL     1       7.448   8.489  17.107  0.00  0.00    +0.000 N 
ATOM     10  H   UNL     1       6.150   6.514  15.956  0.00  0.00    +0.000 HD
ATOM     11  H   UNL     1       6.991   8.912  16.317  0.00  0.00    +0.000 HD
ENDBRANCH   1   2
BRANCH   1  12
ATOM     12  O   UNL     1       4.492   4.395  16.230  0.00  0.00    +0.000 OA
BRANCH  12  16
ATOM     13  C   UNL     1       2.201   2.700  19.277  0.00  0.00    +0.000 A 
ATOM     14  C   UNL     1       2.097   4.047  18.934  0.00  0.00    +0.000 A 
ATOM     15  C   UNL     1       2.869   4.576  17.897  0.00  0.00    +0.000 A 
ATOM     16  C   UNL     1       3.781   3.768  17.218  0.00  0.00    +0.000 A 
ATOM     17  C   UNL     1       3.889   2.419  17.559  0.00  0.00    +0.000 A 
ATOM     18  C   UNL     1       3.104   1.887  18.592  0.00  0.00    +0.000 A 
BRANCH  13  20
ATOM     19  C   UNL     1       1.579   3.008  21.540  0.00  0.00    +0.000 C 
ATOM     20  O   UNL     1       1.403   2.305  20.316  0.00  0.00    +0.000 OA
ENDBRANCH  13  20
ENDBRANCH  12  16
ENDBRANCH   1  12
TORSDOF 4
ENDMDL
MODEL 7
REMARK VINA RESULT:      -6.6      2.281      2.987
REMARK  Name = 
REMARK  5 active torsions:
REMARK  status: ('A' for Active; 'I' for Inactive)
REMARK    1  A    between atoms: C_1  and  O_2
REMARK    2  A    between atoms: O_2  and  C_3
REMARK    3  A    between atoms: C_6  and  O_7
REMARK    4  A    between atoms: O_7  and  C_8
REMARK    5  A    between atoms: C_8  and  C_9
REMARK                            x       y       z     vdW  Elec       q    Type
REMARK                         _______ _______ _______ _____ _____    ______ ____
ROOT
ATOM      1  C   UNL     1       4.851   3.765  19.027  0.00  0.00    +0.000 C 
ENDROOT
BRANCH   1   2
ATOM      2  C   UNL     1       5.748   4.445  17.989  0.00  0.00    +0.000 C 
ATOM      3  O   UNL     1       6.496   5.357  18.325  0.00  0.00    +0.000 OA
ATOM      4  N   UNL     1       5.641   3.880  16.731  0.00  0.00    +0.000 N 
ATOM      5  C   UNL     1       6.373   4.345  15.668  0.00  0.00    +0.000 A 
ATOM      6  N   UNL     1       7.235   5.335  15.606  0.00  0.00    +0.000 NA
ATOM      7  N   UNL     1       7.712   5.420  14.316  0.00  0.00    +0.000 NA
ATOM      8  C   UNL     1       7.132   4.474  13.620  0.00  0.00    +0.000 A 
ATOM      9  N   UNL     1       6.281   3.778  14.423  0.00  0.00    +0.000 N 
ATOM     10  H   UNL     1       4.968   3.134  16.608  0.00  0.00    +0.000 HD
ATOM     11  H   UNL     1       5.712   2.993  14.155  0.00  0.00    +0.000 HD
ENDBRANCH   1   2
BRANCH   1  12
ATOM     12  O   UNL     1       3.473   3.947  18.703  0.00  0.00    +0.000 OA
BRANCH  12  16
ATOM     13  C   UNL     1       1.883   7.659  19.747  0.00  0.00    +0.000 A 
ATOM     14  C   UNL     1       1.826   6.561  20.605  0.00  0.00    +0.000 A 
ATOM     15  C   UNL     1       2.384   5.338  20.226  0.00  0.00    +0.000 A 
ATOM     16  C   UNL     1       2.972   5.192  18.970  0.00  0.00    +0.000 A 
ATOM     17  C   UNL     1       3.031   6.289  18.109  0.00  0.00    +0.000 A 
ATOM     18  C   UNL     1       2.481   7.520  18.495  0.00  0.00    +0.000 A 
BRANCH  13  20
ATOM     19  C   UNL     1       0.996   9.799  19.260  0.00  0.00    +0.000 C 
ATOM     20  O   UNL     1       1.293   8.797  20.226  0.00  0.00    +0.000 OA
ENDBRANCH  13  20
ENDBRANCH  12  16
ENDBRANCH   1  12
TORSDOF 4
ENDMDL
MODEL 8
REMARK VINA RESULT:      -6.6      2.228      3.216
REMARK  Name = 
REMARK  5 active torsions:
REMARK  status: ('A' for Active; 'I' for Inactive)
REMARK    1  A    between atoms: C_1  and  O_2
REMARK    2  A    between atoms: O_2  and  C_3
REMARK    3  A    between atoms: C_6  and  O_7
REMARK    4  A    between atoms: O_7  and  C_8
REMARK    5  A    between atoms: C_8  and  C_9
REMARK                            x       y       z     vdW  Elec       q    Type
REMARK                         _______ _______ _______ _____ _____    ______ ____
ROOT
ATOM      1  C   UNL     1       4.567   3.564  19.370  0.00  0.00    +0.000 C 
ENDROOT
BRANCH   1   2
ATOM      2  C   UNL     1       5.591   4.184  18.415  0.00  0.00    +0.000 C 
ATOM      3  O   UNL     1       6.527   4.843  18.859  0.00  0.00    +0.000 OA
ATOM      4  N   UNL     1       5.356   3.865  17.091  0.00  0.00    +0.000 N 
ATOM      5  C   UNL     1       6.170   4.319  16.084  0.00  0.00    +0.000 A 
ATOM      6  N   UNL     1       7.234   5.090  16.142  0.00  0.00    +0.000 NA
ATOM      7  N   UNL     1       7.713   5.272  14.864  0.00  0.00    +0.000 NA
ATOM      8  C   UNL     1       6.933   4.601  14.053  0.00  0.00    +0.000 A 
ATOM      9  N   UNL     1       5.950   3.993  14.771  0.00  0.00    +0.000 N 
ATOM     10  H   UNL     1       4.532   3.316  16.879  0.00  0.00    +0.000 HD
ATOM     11  H   UNL     1       5.218   3.405  14.408  0.00  0.00    +0.000 HD
ENDBRANCH   1   2
BRANCH   1  12
ATOM     12  O   UNL     1       3.237   3.823  18.924  0.00  0.00    +0.000 OA
BRANCH  12  16
ATOM     13  C   UNL     1       1.900   7.748  19.383  0.00  0.00    +0.000 A 
ATOM     14  C   UNL     1       2.429   7.281  18.180  0.00  0.00    +0.000 A 
ATOM     15  C   UNL     1       2.852   5.956  18.060  0.00  0.00    +0.000 A 
ATOM     16  C   UNL     1       2.783   5.094  19.154  0.00  0.00    +0.000 A 
ATOM     17  C   UNL     1       2.256   5.557  20.360  0.00  0.00    +0.000 A 
ATOM     18  C   UNL     1       1.820   6.885  20.476  0.00  0.00    +0.000 A 
BRANCH  13  20
ATOM     19  C   UNL     1       1.734   9.765  18.157  0.00  0.00    +0.000 C 
ATOM     20  O   UNL     1       1.532   9.066  19.379  0.00  0.00    +0.000 OA
ENDBRANCH  13  20
ENDBRANCH  12  16
ENDBRANCH   1  12
TORSDOF 4
ENDMDL
MODEL 9
REMARK VINA RESULT:      -6.5      2.099      2.713
REMARK  Name = 
REMARK  5 active torsions:
REMARK  status: ('A' for Active; 'I' for Inactive)
REMARK    1  A    between atoms: C_1  and  O_2
REMARK    2  A    between atoms: O_2  and  C_3
REMARK    3  A    between atoms: C_6  and  O_7
REMARK    4  A    between atoms: O_7  and  C_8
REMARK    5  A    between atoms: C_8  and  C_9
REMARK                            x       y       z     vdW  Elec       q    Type
REMARK                         _______ _______ _______ _____ _____    ______ ____
ROOT
ATOM      1  C   UNL     1       6.265   5.044  18.008  0.00  0.00    +0.000 C 
ENDROOT
BRANCH   1   2
ATOM      2  C   UNL     1       6.755   5.291  16.578  0.00  0.00    +0.000 C 
ATOM      3  O   UNL     1       7.484   6.248  16.334  0.00  0.00    +0.000 OA
ATOM      4  N   UNL     1       6.336   4.319  15.689  0.00  0.00    +0.000 N 
ATOM      5  C   UNL     1       6.679   4.361  14.361  0.00  0.00    +0.000 A 
ATOM      6  N   UNL     1       7.394   5.245  13.702  0.00  0.00    +0.000 NA
ATOM      7  N   UNL     1       7.462   4.857  12.382  0.00  0.00    +0.000 NA
ATOM      8  C   UNL     1       6.791   3.738  12.266  0.00  0.00    +0.000 A 
ATOM      9  N   UNL     1       6.278   3.391  13.479  0.00  0.00    +0.000 N 
ATOM     10  H   UNL     1       5.725   3.592  16.041  0.00  0.00    +0.000 HD
ATOM     11  H   UNL     1       5.728   2.574  13.685  0.00  0.00    +0.000 HD
ENDBRANCH   1   2
BRANCH   1  12
ATOM     12  O   UNL     1       4.876   4.719  18.019  0.00  0.00    +0.000 OA
BRANCH  12  16
ATOM     13  C   UNL     1       2.252   7.791  19.059  0.00  0.00    +0.000 A 
ATOM     14  C   UNL     1       2.386   6.637  19.831  0.00  0.00    +0.000 A 
ATOM     15  C   UNL     1       3.286   5.637  19.459  0.00  0.00    +0.000 A 
ATOM     16  C   UNL     1       4.036   5.765  18.290  0.00  0.00    +0.000 A 
ATOM     17  C   UNL     1       3.905   6.918  17.514  0.00  0.00    +0.000 A 
ATOM     18  C   UNL     1       3.009   7.927  17.895  0.00  0.00    +0.000 A 
BRANCH  13  20
ATOM     19  C   UNL     1       1.107   8.689  20.925  0.00  0.00    +0.000 C 
ATOM     20  O   UNL     1       1.330   8.690  19.520  0.00  0.00    +0.000 OA
ENDBRANCH  13  20
ENDBRANCH  12  16
ENDBRANCH   1  12
TORSDOF 4
ENDMDL
