MODEL 1
REMARK VINA RESULT:      -8.2      0.000      0.000
REMARK  Name = 
REMARK  5 active torsions:
REMARK  status: ('A' for Active; 'I' for Inactive)
REMARK    1  A    between atoms: C_1  and  C_2
REMARK    2  A    between atoms: C_5  and  C_6
REMARK    3  A    between atoms: C_12  and  C_13
REMARK    4  A    between atoms: C_17  and  O_18
REMARK    5  A    between atoms: O_18  and  C_19
REMARK                            x       y       z     vdW  Elec       q    Type
REMARK                         _______ _______ _______ _____ _____    ______ ____
ROOT
ATOM      1  C   UNL     1       0.822   9.149  21.129  0.00  0.00    +0.000 C 
ATOM      2  O   UNL     1       1.505   8.607  21.991  0.00  0.00    +0.000 OA
ATOM      3  N   UNL     1       0.955   8.948  19.773  0.00  0.00    +0.000 N 
ATOM      4  C   UNL     1       1.910   8.094  19.219  0.00  0.00    +0.000 A 
ATOM      5  C   UNL     1       2.262   6.876  19.785  0.00  0.00    +0.000 A 
ATOM      6  C   UNL     1       3.285   6.129  19.190  0.00  0.00    +0.000 A 
ATOM      7  C   UNL     1       3.950   6.616  18.064  0.00  0.00    +0.000 A 
ATOM      8  C   UNL     1       3.477   7.834  17.565  0.00  0.00    +0.000 A 
ATOM      9  N   UNL     1       2.455   8.557  18.083  0.00  0.00    +0.000 NA
ATOM     10  H   UNL     1       0.701   9.688  19.133  0.00  0.00    +0.000 HD
ENDROOT
BRANCH   1  15
ATOM     11  C   UNL     1      -2.817  13.234  22.674  0.00  0.00    +0.000 C 
ATOM     12  C   UNL     1      -1.910  12.114  22.269  0.00  0.00    +0.000 A 
ATOM     13  N   UNL     1      -1.553  12.033  20.974  0.00  0.00    +0.000 NA
ATOM     14  C   UNL     1      -0.688  11.045  20.649  0.00  0.00    +0.000 A 
ATOM     15  C   UNL     1      -0.179  10.141  21.558  0.00  0.00    +0.000 A 
ATOM     16  C   UNL     1      -0.623  10.302  22.852  0.00  0.00    +0.000 A 
ATOM     17  N   UNL     1      -1.487  11.271  23.233  0.00  0.00    +0.000 NA
ENDBRANCH   1  15
BRANCH   7  18
ATOM     18  C   UNL     1       5.080   5.910  17.422  0.00  0.00    +0.000 A 
ATOM     19  C   UNL     1       6.103   5.328  18.189  0.00  0.00    +0.000 A 
ATOM     20  C   UNL     1       7.151   4.630  17.583  0.00  0.00    +0.000 A 
ATOM     21  C   UNL     1       7.196   4.503  16.197  0.00  0.00    +0.000 A 
ATOM     22  C   UNL     1       6.199   5.077  15.415  0.00  0.00    +0.000 A 
ATOM     23  C   UNL     1       5.158   5.784  16.016  0.00  0.00    +0.000 A 
BRANCH  22  24
ATOM     24  O   UNL     1       6.359   4.983  14.056  0.00  0.00    +0.000 OA
BRANCH  24  25
ATOM     25  C   UNL     1       6.227   3.660  13.499  0.00  0.00    +0.000 C 
ATOM     26  C   UNL     1       5.218   3.467  12.398  0.00  0.00    +0.000 C 
ATOM     27  C   UNL     1       6.674   3.576  12.060  0.00  0.00    +0.000 C 
ENDBRANCH  24  25
ENDBRANCH  22  24
ENDBRANCH   7  18
TORSDOF 4
ENDMDL
MODEL 2
REMARK VINA RESULT:      -8.0      0.512      1.132
REMARK  Name = 
REMARK  5 active torsions:
REMARK  status: ('A' for Active; 'I' for Inactive)
REMARK    1  A    between atoms: C_1  and  C_2
REMARK    2  A    between atoms: C_5  and  C_6
REMARK    3  A    between atoms: C_12  and  C_13
REMARK    4  A    between atoms: C_17  and  O_18
REMARK    5  A    between atoms: O_18  and  C_19
REMARK                            x       y       z     vdW  Elec       q    Type
REMARK                         _______ _______ _______ _____ _____    ______ ____
ROOT
ATOM      1  C   UNL     1       0.871   9.180  21.058  0.00  0.00    +0.000 C 
ATOM      2  O   UNL     1       1.518   8.626  21.940  0.00  0.00    +0.000 OA
ATOM      3  N   UNL     1       1.024   8.958  19.708  0.00  0.00    +0.000 N 
ATOM      4  C   UNL     1       1.960   8.066  19.182  0.00  0.00    +0.000 A 
ATOM      5  C   UNL     1       2.261   6.844  19.770  0.00  0.00    +0.000 A 
ATOM      6  C   UNL     1       3.269   6.056  19.204  0.00  0.00    +0.000 A 
ATOM      7  C   UNL     1       3.973   6.507  18.085  0.00  0.00    +0.000 A 
ATOM      8  C   UNL     1       3.550   7.734  17.563  0.00  0.00    +0.000 A 
ATOM      9  N   UNL     1       2.543   8.496  18.053  0.00  0.00    +0.000 NA
ATOM     10  H   UNL     1       0.807   9.698  19.054  0.00  0.00    +0.000 HD
ENDROOT
BRANCH   1  15
ATOM     11  C   UNL     1      -3.106  12.890  22.713  0.00  0.00    +0.000 C 
ATOM     12  C   UNL     1      -2.014  11.964  22.276  0.00  0.00    +0.000 A 
ATOM     13  N   UNL     1      -1.454  11.170  23.206  0.00  0.00    +0.000 NA
ATOM     14  C   UNL     1      -0.510  10.305  22.770  0.00  0.00    +0.000 A 
ATOM     15  C   UNL     1      -0.105  10.210  21.455  0.00  0.00    +0.000 A 
ATOM     16  C   UNL     1      -0.728  11.079  20.588  0.00  0.00    +0.000 A 
ATOM     17  N   UNL     1      -1.677  11.966  20.969  0.00  0.00    +0.000 NA
ENDBRANCH   1  15
BRANCH   7  18
ATOM     18  C   UNL     1       5.090   5.756  17.474  0.00  0.00    +0.000 A 
ATOM     19  C   UNL     1       6.390   5.831  18.002  0.00  0.00    +0.000 A 
ATOM     20  C   UNL     1       7.438   5.093  17.447  0.00  0.00    +0.000 A 
ATOM     21  C   UNL     1       7.206   4.268  16.349  0.00  0.00    +0.000 A 
ATOM     22  C   UNL     1       5.929   4.183  15.802  0.00  0.00    +0.000 A 
ATOM     23  C   UNL     1       4.883   4.928  16.348  0.00  0.00    +0.000 A 
BRANCH  22  24
ATOM     24  O   UNL     1       5.798   3.418  14.671  0.00  0.00    +0.000 OA
BRANCH  24  25
ATOM     25  C   UNL     1       5.760   4.141  13.425  0.00  0.00    +0.000 C 
ATOM     26  C   UNL     1       6.630   3.638  12.303  0.00  0.00    +0.000 C 
ATOM     27  C   UNL     1       5.161   3.341  12.294  0.00  0.00    +0.000 C 
ENDBRANCH  24  25
ENDBRANCH  22  24
ENDBRANCH   7  18
TORSDOF 4
ENDMDL
MODEL 3
REMARK VINA RESULT:      -8.0      1.555      2.076
REMARK  Name = 
REMARK  5 active torsions:
REMARK  status: ('A' for Active; 'I' for Inactive)
REMARK    1  A    between atoms: C_1  and  C_2
REMARK    2  A    between atoms: C_5  and  C_6
REMARK    3  A    between atoms: C_12  and  C_13
REMARK    4  A    between atoms: C_17  and  O_18
REMARK    5  A    between atoms: O_18  and  C_19
REMARK                            x       y       z     vdW  Elec       q    Type
REMARK                         _______ _______ _______ _____ _____    ______ ____
ROOT
ATOM      1  C   UNL     1      -0.316  10.424  19.759  0.00  0.00    +0.000 C 
ATOM      2  O   UNL     1      -0.639  10.393  18.576  0.00  0.00    +0.000 OA
ATOM      3  N   UNL     1       0.730   9.719  20.311  0.00  0.00    +0.000 N 
ATOM      4  C   UNL     1       1.550   8.867  19.571  0.00  0.00    +0.000 A 
ATOM      5  C   UNL     1       1.966   9.144  18.275  0.00  0.00    +0.000 A 
ATOM      6  C   UNL     1       2.727   8.187  17.593  0.00  0.00    +0.000 A 
ATOM      7  C   UNL     1       3.036   6.969  18.201  0.00  0.00    +0.000 A 
ATOM      8  C   UNL     1       2.595   6.826  19.520  0.00  0.00    +0.000 A 
ATOM      9  N   UNL     1       1.905   7.752  20.229  0.00  0.00    +0.000 NA
ATOM     10  H   UNL     1       0.687   9.444  21.283  0.00  0.00    +0.000 HD
ENDROOT
BRANCH   1  15
ATOM     11  C   UNL     1      -3.611  13.196  23.470  0.00  0.00    +0.000 C 
ATOM     12  C   UNL     1      -2.709  12.525  22.483  0.00  0.00    +0.000 A 
ATOM     13  N   UNL     1      -1.734  11.729  22.963  0.00  0.00    +0.000 NA
ATOM     14  C   UNL     1      -0.972  11.091  22.046  0.00  0.00    +0.000 A 
ATOM     15  C   UNL     1      -1.140  11.222  20.683  0.00  0.00    +0.000 A 
ATOM     16  C   UNL     1      -2.153  12.073  20.298  0.00  0.00    +0.000 A 
ATOM     17  N   UNL     1      -2.945  12.737  21.172  0.00  0.00    +0.000 NA
ENDBRANCH   1  15
BRANCH   7  18
ATOM     18  C   UNL     1       3.781   5.890  17.518  0.00  0.00    +0.000 A 
ATOM     19  C   UNL     1       3.660   4.551  17.929  0.00  0.00    +0.000 A 
ATOM     20  C   UNL     1       4.336   3.528  17.260  0.00  0.00    +0.000 A 
ATOM     21  C   UNL     1       5.150   3.824  16.170  0.00  0.00    +0.000 A 
ATOM     22  C   UNL     1       5.293   5.143  15.749  0.00  0.00    +0.000 A 
ATOM     23  C   UNL     1       4.628   6.168  16.422  0.00  0.00    +0.000 A 
BRANCH  22  24
ATOM     24  O   UNL     1       6.177   5.364  14.724  0.00  0.00    +0.000 OA
BRANCH  24  25
ATOM     25  C   UNL     1       6.699   4.185  14.080  0.00  0.00    +0.000 C 
ATOM     26  C   UNL     1       5.985   3.691  12.850  0.00  0.00    +0.000 C 
ATOM     27  C   UNL     1       7.262   4.460  12.707  0.00  0.00    +0.000 C 
ENDBRANCH  24  25
ENDBRANCH  22  24
ENDBRANCH   7  18
TORSDOF 4
ENDMDL
MODEL 4
REMARK VINA RESULT:      -7.9      1.835      2.769
REMARK  Name = 
REMARK  5 active torsions:
REMARK  status: ('A' for Active; 'I' for Inactive)
REMARK    1  A    between atoms: C_1  and  C_2
REMARK    2  A    between atoms: C_5  and  C_6
REMARK    3  A    between atoms: C_12  and  C_13
REMARK    4  A    between atoms: C_17  and  O_18
REMARK    5  A    between atoms: O_18  and  C_19
REMARK                            x       y       z     vdW  Elec       q    Type
REMARK                         _______ _______ _______ _____ _____    ______ ____
ROOT
ATOM      1  C   UNL     1      -0.465  11.032  20.090  0.00  0.00    +0.000 C 
ATOM      2  O   UNL     1      -0.948  10.873  18.975  0.00  0.00    +0.000 OA
ATOM      3  N   UNL     1       0.574  10.294  20.613  0.00  0.00    +0.000 N 
ATOM      4  C   UNL     1       1.197   9.256  19.919  0.00  0.00    +0.000 A 
ATOM      5  C   UNL     1       1.456   9.299  18.556  0.00  0.00    +0.000 A 
ATOM      6  C   UNL     1       2.019   8.174  17.943  0.00  0.00    +0.000 A 
ATOM      7  C   UNL     1       2.289   7.025  18.689  0.00  0.00    +0.000 A 
ATOM      8  C   UNL     1       2.021   7.121  20.058  0.00  0.00    +0.000 A 
ATOM      9  N   UNL     1       1.528   8.211  20.693  0.00  0.00    +0.000 NA
ATOM     10  H   UNL     1       0.638  10.165  21.614  0.00  0.00    +0.000 HD
ENDROOT
BRANCH   1  15
ATOM     11  C   UNL     1      -2.887  14.667  23.728  0.00  0.00    +0.000 C 
ATOM     12  C   UNL     1      -2.218  13.763  22.741  0.00  0.00    +0.000 A 
ATOM     13  N   UNL     1      -1.157  13.049  23.161  0.00  0.00    +0.000 NA
ATOM     14  C   UNL     1      -0.610  12.199  22.263  0.00  0.00    +0.000 A 
ATOM     15  C   UNL     1      -1.072  12.042  20.973  0.00  0.00    +0.000 A 
ATOM     16  C   UNL     1      -2.150  12.832  20.640  0.00  0.00    +0.000 A 
ATOM     17  N   UNL     1      -2.737  13.700  21.497  0.00  0.00    +0.000 NA
ENDBRANCH   1  15
BRANCH   7  18
ATOM     18  C   UNL     1       2.824   5.781  18.095  0.00  0.00    +0.000 A 
ATOM     19  C   UNL     1       2.106   4.576  18.165  0.00  0.00    +0.000 A 
ATOM     20  C   UNL     1       2.596   3.409  17.573  0.00  0.00    +0.000 A 
ATOM     21  C   UNL     1       3.816   3.426  16.901  0.00  0.00    +0.000 A 
ATOM     22  C   UNL     1       4.550   4.605  16.825  0.00  0.00    +0.000 A 
ATOM     23  C   UNL     1       4.069   5.769  17.426  0.00  0.00    +0.000 A 
BRANCH  22  24
ATOM     24  O   UNL     1       5.780   4.521  16.223  0.00  0.00    +0.000 OA
BRANCH  24  25
ATOM     25  C   UNL     1       5.856   5.033  14.878  0.00  0.00    +0.000 C 
ATOM     26  C   UNL     1       7.176   4.916  14.163  0.00  0.00    +0.000 C 
ATOM     27  C   UNL     1       6.071   3.955  13.845  0.00  0.00    +0.000 C 
ENDBRANCH  24  25
ENDBRANCH  22  24
ENDBRANCH   7  18
TORSDOF 4
ENDMDL
MODEL 5
REMARK VINA RESULT:      -7.8      1.505      2.587
REMARK  Name = 
REMARK  5 active torsions:
REMARK  status: ('A' for Active; 'I' for Inactive)
REMARK    1  A    between atoms: C_1  and  C_2
REMARK    2  A    between atoms: C_5  and  C_6
REMARK    3  A    between atoms: C_12  and  C_13
REMARK    4  A    between atoms: C_17  and  O_18
REMARK    5  A    between atoms: O_18  and  C_19
REMARK                            x       y       z     vdW  Elec       q    Type
REMARK                         _______ _______ _______ _____ _____    ______ ____
ROOT
ATOM      1  C   UNL     1      -0.308  10.710  22.398  0.00  0.00    +0.000 C 
ATOM      2  O   UNL     1       0.252  10.118  23.314  0.00  0.00    +0.000 OA
ATOM      3  N   UNL     1      -0.237  10.358  21.069  0.00  0.00    +0.000 N 
ATOM      4  C   UNL     1       0.504   9.269  20.608  0.00  0.00    +0.000 A 
ATOM      5  C   UNL     1       0.593   8.063  21.291  0.00  0.00    +0.000 A 
ATOM      6  C   UNL     1       1.424   7.060  20.779  0.00  0.00    +0.000 A 
ATOM      7  C   UNL     1       2.166   7.283  19.618  0.00  0.00    +0.000 A 
ATOM      8  C   UNL     1       1.960   8.521  19.001  0.00  0.00    +0.000 A 
ATOM      9  N   UNL     1       1.123   9.493  19.438  0.00  0.00    +0.000 NA
ATOM     10  H   UNL     1      -0.333  11.071  20.359  0.00  0.00    +0.000 HD
ENDROOT
BRANCH   1  15
ATOM     11  C   UNL     1      -3.493  15.307  23.421  0.00  0.00    +0.000 C 
ATOM     12  C   UNL     1      -2.620  14.110  23.209  0.00  0.00    +0.000 A 
ATOM     13  N   UNL     1      -3.132  12.900  23.498  0.00  0.00    +0.000 NA
ATOM     14  C   UNL     1      -2.340  11.834  23.243  0.00  0.00    +0.000 A 
ATOM     15  C   UNL     1      -1.067  11.931  22.721  0.00  0.00    +0.000 A 
ATOM     16  C   UNL     1      -0.632  13.215  22.478  0.00  0.00    +0.000 A 
ATOM     17  N   UNL     1      -1.381  14.317  22.716  0.00  0.00    +0.000 NA
ENDBRANCH   1  15
BRANCH   7  18
ATOM     18  C   UNL     1       3.109   6.292  19.056  0.00  0.00    +0.000 A 
ATOM     19  C   UNL     1       3.568   5.209  19.826  0.00  0.00    +0.000 A 
ATOM     20  C   UNL     1       4.430   4.254  19.283  0.00  0.00    +0.000 A 
ATOM     21  C   UNL     1       4.853   4.365  17.961  0.00  0.00    +0.000 A 
ATOM     22  C   UNL     1       4.420   5.432  17.181  0.00  0.00    +0.000 A 
ATOM     23  C   UNL     1       3.567   6.394  17.724  0.00  0.00    +0.000 A 
BRANCH  22  24
ATOM     24  O   UNL     1       4.947   5.520  15.918  0.00  0.00    +0.000 OA
BRANCH  24  25
ATOM     25  C   UNL     1       5.706   4.377  15.474  0.00  0.00    +0.000 C 
ATOM     26  C   UNL     1       5.876   4.190  13.990  0.00  0.00    +0.000 C 
ATOM     27  C   UNL     1       7.003   4.753  14.801  0.00  0.00    +0.000 C 
ENDBRANCH  24  25
ENDBRANCH  22  24
ENDBRANCH   7  18
TORSDOF 4
ENDMDL
MODEL 6
REMARK VINA RESULT:      -7.8      1.694      2.338
REMARK  Name = 
REMARK  5 active torsions:
REMARK  status: ('A' for Active; 'I' for Inactive)
REMARK    1  A    between atoms: C_1  and  C_2
REMARK    2  A    between atoms: C_5  and  C_6
REMARK    3  A    between atoms: C_12  and  C_13
REMARK    4  A    between atoms: C_17  and  O_18
REMARK    5  A    between atoms: O_18  and  C_19
REMARK                            x       y       z     vdW  Elec       q    Type
REMARK                         _______ _______ _______ _____ _____    ______ ____
ROOT
ATOM      1  C   UNL     1      -0.656  10.806  20.085  0.00  0.00    +0.000 C 
ATOM      2  O   UNL     1      -1.104  10.656  18.954  0.00  0.00    +0.000 OA
ATOM      3  N   UNL     1       0.445  10.153  20.592  0.00  0.00    +0.000 N 
ATOM      4  C   UNL     1       1.182   9.220  19.862  0.00  0.00    +0.000 A 
ATOM      5  C   UNL     1       1.455   9.357  18.507  0.00  0.00    +0.000 A 
ATOM      6  C   UNL     1       2.139   8.327  17.851  0.00  0.00    +0.000 A 
ATOM      7  C   UNL     1       2.514   7.176  18.546  0.00  0.00    +0.000 A 
ATOM      8  C   UNL     1       2.218   7.174  19.913  0.00  0.00    +0.000 A 
ATOM      9  N   UNL     1       1.606   8.176  20.590  0.00  0.00    +0.000 NA
ATOM     10  H   UNL     1       0.507   9.981  21.587  0.00  0.00    +0.000 HD
ENDROOT
BRANCH   1  15
ATOM     11  C   UNL     1      -3.289  14.549  23.457  0.00  0.00    +0.000 C 
ATOM     12  C   UNL     1      -2.641  13.517  22.589  0.00  0.00    +0.000 A 
ATOM     13  N   UNL     1      -2.889  13.563  21.267  0.00  0.00    +0.000 NA
ATOM     14  C   UNL     1      -2.244  12.653  20.502  0.00  0.00    +0.000 A 
ATOM     15  C   UNL     1      -1.377  11.705  21.003  0.00  0.00    +0.000 A 
ATOM     16  C   UNL     1      -1.208  11.733  22.370  0.00  0.00    +0.000 A 
ATOM     17  N   UNL     1      -1.827  12.620  23.183  0.00  0.00    +0.000 NA
ENDBRANCH   1  15
BRANCH   7  18
ATOM     18  C   UNL     1       3.183   6.024  17.904  0.00  0.00    +0.000 A 
ATOM     19  C   UNL     1       2.704   4.715  18.080  0.00  0.00    +0.000 A 
ATOM     20  C   UNL     1       3.314   3.632  17.444  0.00  0.00    +0.000 A 
ATOM     21  C   UNL     1       4.419   3.837  16.621  0.00  0.00    +0.000 A 
ATOM     22  C   UNL     1       4.918   5.122  16.437  0.00  0.00    +0.000 A 
ATOM     23  C   UNL     1       4.317   6.205  17.080  0.00  0.00    +0.000 A 
BRANCH  22  24
ATOM     24  O   UNL     1       6.059   5.233  15.683  0.00  0.00    +0.000 OA
BRANCH  24  25
ATOM     25  C   UNL     1       6.359   4.109  14.832  0.00  0.00    +0.000 C 
ATOM     26  C   UNL     1       5.681   4.054  13.489  0.00  0.00    +0.000 C 
ATOM     27  C   UNL     1       7.110   4.497  13.582  0.00  0.00    +0.000 C 
ENDBRANCH  24  25
ENDBRANCH  22  24
ENDBRANCH   7  18
TORSDOF 4
ENDMDL
MODEL 7
REMARK VINA RESULT:      -7.7      2.991      3.789
REMARK  Name = 
REMARK  5 active torsions:
REMARK  status: ('A' for Active; 'I' for Inactive)
REMARK    1  A    between atoms: C_1  and  C_2
REMARK    2  A    between atoms: C_5  and  C_6
REMARK    3  A    between atoms: C_12  and  C_13
REMARK    4  A    between atoms: C_17  and  O_18
REMARK    5  A    between atoms: O_18  and  C_19
REMARK                            x       y       z     vdW  Elec       q    Type
REMARK                         _______ _______ _______ _____ _____    ______ ____
ROOT
ATOM      1  C   UNL     1       1.130  12.298  19.640  0.00  0.00    +0.000 C 
ATOM      2  O   UNL     1       1.559  12.038  20.758  0.00  0.00    +0.000 OA
ATOM      3  N   UNL     1       1.019  11.395  18.606  0.00  0.00    +0.000 N 
ATOM      4  C   UNL     1       1.399  10.057  18.718  0.00  0.00    +0.000 A 
ATOM      5  C   UNL     1       1.192   9.299  19.863  0.00  0.00    +0.000 A 
ATOM      6  C   UNL     1       1.679   7.987  19.899  0.00  0.00    +0.000 A 
ATOM      7  C   UNL     1       2.380   7.466  18.811  0.00  0.00    +0.000 A 
ATOM      8  C   UNL     1       2.488   8.312  17.703  0.00  0.00    +0.000 A 
ATOM      9  N   UNL     1       1.983   9.566  17.614  0.00  0.00    +0.000 NA
ATOM     10  H   UNL     1       1.080  11.721  17.651  0.00  0.00    +0.000 HD
ENDROOT
BRANCH   1  15
ATOM     11  C   UNL     1      -0.036  17.787  18.729  0.00  0.00    +0.000 C 
ATOM     12  C   UNL     1       0.237  16.327  18.911  0.00  0.00    +0.000 A 
ATOM     13  N   UNL     1       1.470  15.876  18.611  0.00  0.00    +0.000 NA
ATOM     14  C   UNL     1       1.703  14.564  18.839  0.00  0.00    +0.000 A 
ATOM     15  C   UNL     1       0.761  13.693  19.345  0.00  0.00    +0.000 A 
ATOM     16  C   UNL     1      -0.472  14.252  19.601  0.00  0.00    +0.000 A 
ATOM     17  N   UNL     1      -0.761  15.557  19.390  0.00  0.00    +0.000 NA
ENDBRANCH   1  15
BRANCH   7  18
ATOM     18  C   UNL     1       2.975   6.112  18.804  0.00  0.00    +0.000 A 
ATOM     19  C   UNL     1       2.871   5.268  19.923  0.00  0.00    +0.000 A 
ATOM     20  C   UNL     1       3.402   3.976  19.903  0.00  0.00    +0.000 A 
ATOM     21  C   UNL     1       4.051   3.505  18.764  0.00  0.00    +0.000 A 
ATOM     22  C   UNL     1       4.175   4.325  17.647  0.00  0.00    +0.000 A 
ATOM     23  C   UNL     1       3.655   5.619  17.668  0.00  0.00    +0.000 A 
BRANCH  22  24
ATOM     24  O   UNL     1       4.901   3.821  16.597  0.00  0.00    +0.000 OA
BRANCH  24  25
ATOM     25  C   UNL     1       5.339   4.784  15.619  0.00  0.00    +0.000 C 
ATOM     26  C   UNL     1       6.822   5.005  15.478  0.00  0.00    +0.000 C 
ATOM     27  C   UNL     1       6.099   4.161  14.474  0.00  0.00    +0.000 C 
ENDBRANCH  24  25
ENDBRANCH  22  24
ENDBRANCH   7  18
TORSDOF 4
ENDMDL
MODEL 8
REMARK VINA RESULT:      -7.7      3.212      4.519
REMARK  Name = 
REMARK  5 active torsions:
REMARK  status: ('A' for Active; 'I' for Inactive)
REMARK    1  A    between atoms: C_1  and  C_2
REMARK    2  A    between atoms: C_5  and  C_6
REMARK    3  A    between atoms: C_12  and  C_13
REMARK    4  A    between atoms: C_17  and  O_18
REMARK    5  A    between atoms: O_18  and  C_19
REMARK                            x       y       z     vdW  Elec       q    Type
REMARK                         _______ _______ _______ _____ _____    ______ ____
ROOT
ATOM      1  C   UNL     1       1.138  12.436  19.848  0.00  0.00    +0.000 C 
ATOM      2  O   UNL     1       1.537  12.281  20.997  0.00  0.00    +0.000 OA
ATOM      3  N   UNL     1       0.977  11.427  18.925  0.00  0.00    +0.000 N 
ATOM      4  C   UNL     1       1.265  10.090  19.199  0.00  0.00    +0.000 A 
ATOM      5  C   UNL     1       0.996   9.487  20.420  0.00  0.00    +0.000 A 
ATOM      6  C   UNL     1       1.392   8.159  20.617  0.00  0.00    +0.000 A 
ATOM      7  C   UNL     1       2.068   7.469  19.610  0.00  0.00    +0.000 A 
ATOM      8  C   UNL     1       2.245   8.170  18.414  0.00  0.00    +0.000 A 
ATOM      9  N   UNL     1       1.826   9.436  18.169  0.00  0.00    +0.000 NA
ATOM     10  H   UNL     1       1.070  11.634  17.939  0.00  0.00    +0.000 HD
ENDROOT
BRANCH   1  15
ATOM     11  C   UNL     1       0.323  17.849  18.314  0.00  0.00    +0.000 C 
ATOM     12  C   UNL     1       0.511  16.405  18.658  0.00  0.00    +0.000 A 
ATOM     13  N   UNL     1       1.752  15.893  18.563  0.00  0.00    +0.000 NA
ATOM     14  C   UNL     1       1.901  14.602  18.934  0.00  0.00    +0.000 A 
ATOM     15  C   UNL     1       0.867  13.809  19.386  0.00  0.00    +0.000 A 
ATOM     16  C   UNL     1      -0.365  14.424  19.428  0.00  0.00    +0.000 A 
ATOM     17  N   UNL     1      -0.571  15.712  19.067  0.00  0.00    +0.000 NA
ENDBRANCH   1  15
BRANCH   7  18
ATOM     18  C   UNL     1       2.571   6.087  19.772  0.00  0.00    +0.000 A 
ATOM     19  C   UNL     1       1.843   5.131  20.501  0.00  0.00    +0.000 A 
ATOM     20  C   UNL     1       2.301   3.817  20.623  0.00  0.00    +0.000 A 
ATOM     21  C   UNL     1       3.498   3.435  20.021  0.00  0.00    +0.000 A 
ATOM     22  C   UNL     1       4.241   4.366  19.302  0.00  0.00    +0.000 A 
ATOM     23  C   UNL     1       3.792   5.682  19.187  0.00  0.00    +0.000 A 
BRANCH  22  24
ATOM     24  O   UNL     1       5.448   3.937  18.812  0.00  0.00    +0.000 OA
BRANCH  24  25
ATOM     25  C   UNL     1       6.205   4.911  18.068  0.00  0.00    +0.000 C 
ATOM     26  C   UNL     1       7.671   4.639  17.858  0.00  0.00    +0.000 C 
ATOM     27  C   UNL     1       6.703   4.387  16.743  0.00  0.00    +0.000 C 
ENDBRANCH  24  25
ENDBRANCH  22  24
ENDBRANCH   7  18
TORSDOF 4
ENDMDL
MODEL 9
REMARK VINA RESULT:      -7.7      2.146      2.954
REMARK  Name = 
REMARK  5 active torsions:
REMARK  status: ('A' for Active; 'I' for Inactive)
REMARK    1  A    between atoms: C_1  and  C_2
REMARK    2  A    between atoms: C_5  and  C_6
REMARK    3  A    between atoms: C_12  and  C_13
REMARK    4  A    between atoms: C_17  and  O_18
REMARK    5  A    between atoms: O_18  and  C_19
REMARK                            x       y       z     vdW  Elec       q    Type
REMARK                         _______ _______ _______ _____ _____    ______ ____
ROOT
ATOM      1  C   UNL     1      -1.102  10.840  18.896  0.00  0.00    +0.000 C 
ATOM      2  O   UNL     1      -1.314  10.404  17.770  0.00  0.00    +0.000 OA
ATOM      3  N   UNL     1      -0.074  10.439  19.719  0.00  0.00    +0.000 N 
ATOM      4  C   UNL     1       0.856   9.463  19.358  0.00  0.00    +0.000 A 
ATOM      5  C   UNL     1       1.372   9.341  18.075  0.00  0.00    +0.000 A 
ATOM      6  C   UNL     1       2.243   8.280  17.798  0.00  0.00    +0.000 A 
ATOM      7  C   UNL     1       2.562   7.353  18.791  0.00  0.00    +0.000 A 
ATOM      8  C   UNL     1       2.010   7.606  20.051  0.00  0.00    +0.000 A 
ATOM      9  N   UNL     1       1.208   8.652  20.367  0.00  0.00    +0.000 NA
ATOM     10  H   UNL     1      -0.191  10.489  20.723  0.00  0.00    +0.000 HD
ENDROOT
BRANCH   1  15
ATOM     11  C   UNL     1      -4.692  14.500  21.354  0.00  0.00    +0.000 C 
ATOM     12  C   UNL     1      -3.745  13.577  20.652  0.00  0.00    +0.000 A 
ATOM     13  N   UNL     1      -2.452  13.604  21.023  0.00  0.00    +0.000 NA
ATOM     14  C   UNL     1      -1.632  12.719  20.412  0.00  0.00    +0.000 A 
ATOM     15  C   UNL     1      -2.050  11.824  19.449  0.00  0.00    +0.000 A 
ATOM     16  C   UNL     1      -3.388  11.892  19.130  0.00  0.00    +0.000 A 
ATOM     17  N   UNL     1      -4.253  12.757  19.709  0.00  0.00    +0.000 NA
ENDBRANCH   1  15
BRANCH   7  18
ATOM     18  C   UNL     1       3.424   6.175  18.553  0.00  0.00    +0.000 A 
ATOM     19  C   UNL     1       4.020   5.483  19.621  0.00  0.00    +0.000 A 
ATOM     20  C   UNL     1       4.805   4.350  19.397  0.00  0.00    +0.000 A 
ATOM     21  C   UNL     1       5.011   3.888  18.099  0.00  0.00    +0.000 A 
ATOM     22  C   UNL     1       4.439   4.561  17.024  0.00  0.00    +0.000 A 
ATOM     23  C   UNL     1       3.664   5.699  17.244  0.00  0.00    +0.000 A 
BRANCH  22  24
ATOM     24  O   UNL     1       4.758   4.097  15.773  0.00  0.00    +0.000 OA
BRANCH  24  25
ATOM     25  C   UNL     1       5.604   4.955  14.983  0.00  0.00    +0.000 C 
ATOM     26  C   UNL     1       7.093   4.802  15.143  0.00  0.00    +0.000 C 
ATOM     27  C   UNL     1       6.409   4.205  13.950  0.00  0.00    +0.000 C 
ENDBRANCH  24  25
ENDBRANCH  22  24
ENDBRANCH   7  18
TORSDOF 4
ENDMDL
