MODEL 1
REMARK VINA RESULT:      -6.3      0.000      0.000
REMARK  Name = 
REMARK  4 active torsions:
REMARK  status: ('A' for Active; 'I' for Inactive)
REMARK    1  A    between atoms: C_1  and  C_2
REMARK    2  A    between atoms: C_2  and  O_3
REMARK    3  A    between atoms: O_3  and  N_4
REMARK    4  A    between atoms: N_6  and  C_7
REMARK                            x       y       z     vdW  Elec       q    Type
REMARK                         _______ _______ _______ _____ _____    ______ ____
ROOT
ATOM      1  C   UNL     1       3.053   4.043  18.717  0.00  0.00    +0.000 A 
ATOM      2  C   UNL     1       2.429   5.118  19.385  0.00  0.00    +0.000 A 
ATOM      3 CL   UNL     1       2.547   6.758  18.837  0.00  0.00    +0.000 Cl
ATOM      4  C   UNL     1       1.555   4.893  20.459  0.00  0.00    +0.000 A 
ATOM      5  C   UNL     1       1.266   3.600  20.882  0.00  0.00    +0.000 A 
ATOM      6  C   UNL     1       1.855   2.519  20.232  0.00  0.00    +0.000 A 
ATOM      7  C   UNL     1       2.740   2.739  19.170  0.00  0.00    +0.000 A 
ATOM      8 CL   UNL     1       3.431   1.349  18.400  0.00  0.00    +0.000 Cl
ENDROOT
BRANCH   1  11
ATOM      9  N   UNL     1       6.059   4.320  18.842  0.00  0.00    +0.000 NA
ATOM     10  C   UNL     1       5.327   4.379  17.779  0.00  0.00    +0.000 C 
ATOM     11  N   UNL     1       3.972   4.200  17.652  0.00  0.00    +0.000 N 
ATOM     12  H   UNL     1       3.673   3.751  16.791  0.00  0.00    +0.000 HD
BRANCH   9  13
ATOM     13  O   UNL     1       7.387   4.617  18.502  0.00  0.00    +0.000 OA
BRANCH  13  15
ATOM     14  C   UNL     1       7.839   6.951  18.220  0.00  0.00    +0.000 C 
ATOM     15  C   UNL     1       7.772   5.800  19.203  0.00  0.00    +0.000 C 
ENDBRANCH  13  15
ENDBRANCH   9  13
ENDBRANCH   1  11
TORSDOF 3
ENDMDL
MODEL 2
REMARK VINA RESULT:      -6.3      0.471      2.486
REMARK  Name = 
REMARK  4 active torsions:
REMARK  status: ('A' for Active; 'I' for Inactive)
REMARK    1  A    between atoms: C_1  and  C_2
REMARK    2  A    between atoms: C_2  and  O_3
REMARK    3  A    between atoms: O_3  and  N_4
REMARK    4  A    between atoms: N_6  and  C_7
REMARK                            x       y       z     vdW  Elec       q    Type
REMARK                         _______ _______ _______ _____ _____    ______ ____
ROOT
ATOM      1  C   UNL     1       2.991   4.082  18.776  0.00  0.00    +0.000 A 
ATOM      2  C   UNL     1       2.686   2.732  19.052  0.00  0.00    +0.000 A 
ATOM      3 CL   UNL     1       3.544   1.411  18.329  0.00  0.00    +0.000 Cl
ATOM      4  C   UNL     1       1.756   2.388  20.044  0.00  0.00    +0.000 A 
ATOM      5  C   UNL     1       1.122   3.371  20.796  0.00  0.00    +0.000 A 
ATOM      6  C   UNL     1       1.414   4.712  20.557  0.00  0.00    +0.000 A 
ATOM      7  C   UNL     1       2.329   5.060  19.558  0.00  0.00    +0.000 A 
ATOM      8 CL   UNL     1       2.653   6.746  19.317  0.00  0.00    +0.000 Cl
ENDROOT
BRANCH   1  11
ATOM      9  N   UNL     1       5.999   4.330  18.910  0.00  0.00    +0.000 NA
ATOM     10  C   UNL     1       5.248   4.647  17.908  0.00  0.00    +0.000 C 
ATOM     11  N   UNL     1       3.890   4.500  17.766  0.00  0.00    +0.000 N 
ATOM     12  H   UNL     1       3.575   4.277  16.827  0.00  0.00    +0.000 HD
BRANCH   9  13
ATOM     13  O   UNL     1       7.321   4.704  18.630  0.00  0.00    +0.000 OA
BRANCH  13  15
ATOM     14  C   UNL     1       7.907   6.998  18.274  0.00  0.00    +0.000 C 
ATOM     15  C   UNL     1       7.291   5.756  17.665  0.00  0.00    +0.000 C 
ENDBRANCH  13  15
ENDBRANCH   9  13
ENDBRANCH   1  11
TORSDOF 3
ENDMDL
MODEL 3
REMARK VINA RESULT:      -6.1      1.215      2.430
REMARK  Name = 
REMARK  4 active torsions:
REMARK  status: ('A' for Active; 'I' for Inactive)
REMARK    1  A    between atoms: C_1  and  C_2
REMARK    2  A    between atoms: C_2  and  O_3
REMARK    3  A    between atoms: O_3  and  N_4
REMARK    4  A    between atoms: N_6  and  C_7
REMARK                            x       y       z     vdW  Elec       q    Type
REMARK                         _______ _______ _______ _____ _____    ______ ____
ROOT
ATOM      1  C   UNL     1       3.517   3.503  19.252  0.00  0.00    +0.000 A 
ATOM      2  C   UNL     1       3.565   2.629  20.359  0.00  0.00    +0.000 A 
ATOM      3 CL   UNL     1       4.944   1.642  20.715  0.00  0.00    +0.000 Cl
ATOM      4  C   UNL     1       2.541   2.619  21.319  0.00  0.00    +0.000 A 
ATOM      5  C   UNL     1       1.459   3.486  21.213  0.00  0.00    +0.000 A 
ATOM      6  C   UNL     1       1.392   4.371  20.140  0.00  0.00    +0.000 A 
ATOM      7  C   UNL     1       2.402   4.373  19.171  0.00  0.00    +0.000 A 
ATOM      8 CL   UNL     1       2.262   5.504  17.866  0.00  0.00    +0.000 Cl
ENDROOT
BRANCH   1  11
ATOM      9  N   UNL     1       6.274   4.735  19.319  0.00  0.00    +0.000 NA
ATOM     10  C   UNL     1       5.713   4.168  18.304  0.00  0.00    +0.000 C 
ATOM     11  N   UNL     1       4.495   3.539  18.230  0.00  0.00    +0.000 N 
ATOM     12  H   UNL     1       4.458   2.737  17.607  0.00  0.00    +0.000 HD
BRANCH   9  13
ATOM     13  O   UNL     1       7.499   5.287  18.918  0.00  0.00    +0.000 OA
BRANCH  13  15
ATOM     14  C   UNL     1       7.700   7.403  17.816  0.00  0.00    +0.000 C 
ATOM     15  C   UNL     1       7.302   5.949  17.668  0.00  0.00    +0.000 C 
ENDBRANCH  13  15
ENDBRANCH   9  13
ENDBRANCH   1  11
TORSDOF 3
ENDMDL
MODEL 4
REMARK VINA RESULT:      -6.0      1.624      2.610
REMARK  Name = 
REMARK  4 active torsions:
REMARK  status: ('A' for Active; 'I' for Inactive)
REMARK    1  A    between atoms: C_1  and  C_2
REMARK    2  A    between atoms: C_2  and  O_3
REMARK    3  A    between atoms: O_3  and  N_4
REMARK    4  A    between atoms: N_6  and  C_7
REMARK                            x       y       z     vdW  Elec       q    Type
REMARK                         _______ _______ _______ _____ _____    ______ ____
ROOT
ATOM      1  C   UNL     1       2.885   4.533  18.731  0.00  0.00    +0.000 A 
ATOM      2  C   UNL     1       3.034   3.462  17.823  0.00  0.00    +0.000 A 
ATOM      3 CL   UNL     1       4.375   3.338  16.732  0.00  0.00    +0.000 Cl
ATOM      4  C   UNL     1       2.168   2.359  17.857  0.00  0.00    +0.000 A 
ATOM      5  C   UNL     1       1.149   2.284  18.799  0.00  0.00    +0.000 A 
ATOM      6  C   UNL     1       0.987   3.318  19.718  0.00  0.00    +0.000 A 
ATOM      7  C   UNL     1       1.839   4.428  19.679  0.00  0.00    +0.000 A 
ATOM      8 CL   UNL     1       1.587   5.676  20.855  0.00  0.00    +0.000 Cl
ENDROOT
BRANCH   1  11
ATOM      9  N   UNL     1       5.783   4.805  19.542  0.00  0.00    +0.000 NA
ATOM     10  C   UNL     1       4.999   5.761  19.166  0.00  0.00    +0.000 C 
ATOM     11  N   UNL     1       3.699   5.691  18.729  0.00  0.00    +0.000 N 
ATOM     12  H   UNL     1       3.449   6.359  18.007  0.00  0.00    +0.000 HD
BRANCH   9  13
ATOM     13  O   UNL     1       7.009   5.350  19.951  0.00  0.00    +0.000 OA
BRANCH  13  15
ATOM     14  C   UNL     1       7.744   4.636  17.788  0.00  0.00    +0.000 C 
ATOM     15  C   UNL     1       7.718   5.774  18.786  0.00  0.00    +0.000 C 
ENDBRANCH  13  15
ENDBRANCH   9  13
ENDBRANCH   1  11
TORSDOF 3
ENDMDL
MODEL 5
REMARK VINA RESULT:      -6.0      1.055      1.055
REMARK  Name = 
REMARK  4 active torsions:
REMARK  status: ('A' for Active; 'I' for Inactive)
REMARK    1  A    between atoms: C_1  and  C_2
REMARK    2  A    between atoms: C_2  and  O_3
REMARK    3  A    between atoms: O_3  and  N_4
REMARK    4  A    between atoms: N_6  and  C_7
REMARK                            x       y       z     vdW  Elec       q    Type
REMARK                         _______ _______ _______ _____ _____    ______ ____
ROOT
ATOM      1  C   UNL     1       2.950   4.547  19.039  0.00  0.00    +0.000 A 
ATOM      2  C   UNL     1       2.080   5.113  19.995  0.00  0.00    +0.000 A 
ATOM      3 CL   UNL     1       1.987   6.819  20.284  0.00  0.00    +0.000 Cl
ATOM      4  C   UNL     1       1.133   4.326  20.668  0.00  0.00    +0.000 A 
ATOM      5  C   UNL     1       1.016   2.967  20.397  0.00  0.00    +0.000 A 
ATOM      6  C   UNL     1       1.850   2.383  19.447  0.00  0.00    +0.000 A 
ATOM      7  C   UNL     1       2.807   3.161  18.784  0.00  0.00    +0.000 A 
ATOM      8 CL   UNL     1       3.808   2.374  17.609  0.00  0.00    +0.000 Cl
ENDROOT
BRANCH   1  11
ATOM      9  N   UNL     1       5.856   4.921  19.777  0.00  0.00    +0.000 NA
ATOM     10  C   UNL     1       5.245   5.454  18.771  0.00  0.00    +0.000 C 
ATOM     11  N   UNL     1       3.950   5.274  18.352  0.00  0.00    +0.000 N 
ATOM     12  H   UNL     1       3.814   5.297  17.345  0.00  0.00    +0.000 HD
BRANCH   9  13
ATOM     13  O   UNL     1       7.159   5.433  19.848  0.00  0.00    +0.000 OA
BRANCH  13  15
ATOM     14  C   UNL     1       8.106   7.161  18.487  0.00  0.00    +0.000 C 
ATOM     15  C   UNL     1       7.592   5.736  18.521  0.00  0.00    +0.000 C 
ENDBRANCH  13  15
ENDBRANCH   9  13
ENDBRANCH   1  11
TORSDOF 3
ENDMDL
MODEL 6
REMARK VINA RESULT:      -5.9      1.878      3.284
REMARK  Name = 
REMARK  4 active torsions:
REMARK  status: ('A' for Active; 'I' for Inactive)
REMARK    1  A    between atoms: C_1  and  C_2
REMARK    2  A    between atoms: C_2  and  O_3
REMARK    3  A    between atoms: O_3  and  N_4
REMARK    4  A    between atoms: N_6  and  C_7
REMARK                            x       y       z     vdW  Elec       q    Type
REMARK                         _______ _______ _______ _____ _____    ______ ____
ROOT
ATOM      1  C   UNL     1       3.805   4.168  18.908  0.00  0.00    +0.000 A 
ATOM      2  C   UNL     1       3.554   2.837  19.303  0.00  0.00    +0.000 A 
ATOM      3 CL   UNL     1       4.693   1.897  20.209  0.00  0.00    +0.000 Cl
ATOM      4  C   UNL     1       2.297   2.247  19.100  0.00  0.00    +0.000 A 
ATOM      5  C   UNL     1       1.258   2.968  18.521  0.00  0.00    +0.000 A 
ATOM      6  C   UNL     1       1.472   4.288  18.136  0.00  0.00    +0.000 A 
ATOM      7  C   UNL     1       2.728   4.876  18.321  0.00  0.00    +0.000 A 
ATOM      8 CL   UNL     1       2.925   6.526  17.826  0.00  0.00    +0.000 Cl
ENDROOT
BRANCH   1  11
ATOM      9  N   UNL     1       6.076   4.334  16.923  0.00  0.00    +0.000 NA
ATOM     10  C   UNL     1       6.075   4.802  18.127  0.00  0.00    +0.000 C 
ATOM     11  N   UNL     1       5.058   4.812  19.049  0.00  0.00    +0.000 N 
ATOM     12  H   UNL     1       5.027   5.629  19.651  0.00  0.00    +0.000 HD
BRANCH   9  13
ATOM     13  O   UNL     1       7.352   4.502  16.366  0.00  0.00    +0.000 OA
BRANCH  13  15
ATOM     14  C   UNL     1       6.211   3.975  14.328  0.00  0.00    +0.000 C 
ATOM     15  C   UNL     1       7.195   4.907  15.006  0.00  0.00    +0.000 C 
ENDBRANCH  13  15
ENDBRANCH   9  13
ENDBRANCH   1  11
TORSDOF 3
ENDMDL
MODEL 7
REMARK VINA RESULT:      -5.8      1.580      1.695
REMARK  Name = 
REMARK  4 active torsions:
REMARK  status: ('A' for Active; 'I' for Inactive)
REMARK    1  A    between atoms: C_1  and  C_2
REMARK    2  A    between atoms: C_2  and  O_3
REMARK    3  A    between atoms: O_3  and  N_4
REMARK    4  A    between atoms: N_6  and  C_7
REMARK                            x       y       z     vdW  Elec       q    Type
REMARK                         _______ _______ _______ _____ _____    ______ ____
ROOT
ATOM      1  C   UNL     1       3.178   3.092  19.052  0.00  0.00    +0.000 A 
ATOM      2  C   UNL     1       1.969   3.811  18.948  0.00  0.00    +0.000 A 
ATOM      3 CL   UNL     1       1.329   4.355  17.433  0.00  0.00    +0.000 Cl
ATOM      4  C   UNL     1       1.141   4.001  20.065  0.00  0.00    +0.000 A 
ATOM      5  C   UNL     1       1.485   3.468  21.303  0.00  0.00    +0.000 A 
ATOM      6  C   UNL     1       2.665   2.741  21.433  0.00  0.00    +0.000 A 
ATOM      7  C   UNL     1       3.501   2.562  20.325  0.00  0.00    +0.000 A 
ATOM      8 CL   UNL     1       4.952   1.641  20.553  0.00  0.00    +0.000 Cl
ENDROOT
BRANCH   1  11
ATOM      9  N   UNL     1       5.144   5.047  17.850  0.00  0.00    +0.000 NA
ATOM     10  C   UNL     1       4.907   3.846  17.437  0.00  0.00    +0.000 C 
ATOM     11  N   UNL     1       4.076   2.895  17.976  0.00  0.00    +0.000 N 
ATOM     12  H   UNL     1       4.403   1.937  17.892  0.00  0.00    +0.000 HD
BRANCH   9  13
ATOM     13  O   UNL     1       6.027   5.674  16.959  0.00  0.00    +0.000 OA
BRANCH  13  15
ATOM     14  C   UNL     1       7.679   6.081  18.643  0.00  0.00    +0.000 C 
ATOM     15  C   UNL     1       6.710   6.711  17.665  0.00  0.00    +0.000 C 
ENDBRANCH  13  15
ENDBRANCH   9  13
ENDBRANCH   1  11
TORSDOF 3
ENDMDL
MODEL 8
REMARK VINA RESULT:      -5.8      1.537      2.446
REMARK  Name = 
REMARK  4 active torsions:
REMARK  status: ('A' for Active; 'I' for Inactive)
REMARK    1  A    between atoms: C_1  and  C_2
REMARK    2  A    between atoms: C_2  and  O_3
REMARK    3  A    between atoms: O_3  and  N_4
REMARK    4  A    between atoms: N_6  and  C_7
REMARK                            x       y       z     vdW  Elec       q    Type
REMARK                         _______ _______ _______ _____ _____    ______ ____
ROOT
ATOM      1  C   UNL     1       3.114   3.021  19.078  0.00  0.00    +0.000 A 
ATOM      2  C   UNL     1       3.453   2.488  20.340  0.00  0.00    +0.000 A 
ATOM      3 CL   UNL     1       4.991   1.761  20.667  0.00  0.00    +0.000 Cl
ATOM      4  C   UNL     1       2.604   2.649  21.445  0.00  0.00    +0.000 A 
ATOM      5  C   UNL     1       1.412   3.355  21.330  0.00  0.00    +0.000 A 
ATOM      6  C   UNL     1       1.058   3.906  20.101  0.00  0.00    +0.000 A 
ATOM      7  C   UNL     1       1.894   3.735  18.991  0.00  0.00    +0.000 A 
ATOM      8 CL   UNL     1       1.398   4.452  17.493  0.00  0.00    +0.000 Cl
ENDROOT
BRANCH   1  11
ATOM      9  N   UNL     1       5.276   4.839  18.006  0.00  0.00    +0.000 NA
ATOM     10  C   UNL     1       4.836   3.760  17.448  0.00  0.00    +0.000 C 
ATOM     11  N   UNL     1       3.905   2.865  17.915  0.00  0.00    +0.000 N 
ATOM     12  H   UNL     1       4.077   1.894  17.671  0.00  0.00    +0.000 HD
BRANCH   9  13
ATOM     13  O   UNL     1       6.188   5.463  17.143  0.00  0.00    +0.000 OA
BRANCH  13  15
ATOM     14  C   UNL     1       7.712   5.694  18.974  0.00  0.00    +0.000 C 
ATOM     15  C   UNL     1       6.933   6.419  17.897  0.00  0.00    +0.000 C 
ENDBRANCH  13  15
ENDBRANCH   9  13
ENDBRANCH   1  11
TORSDOF 3
ENDMDL
MODEL 9
REMARK VINA RESULT:      -5.8      3.417      4.903
REMARK  Name = 
REMARK  4 active torsions:
REMARK  status: ('A' for Active; 'I' for Inactive)
REMARK    1  A    between atoms: C_1  and  C_2
REMARK    2  A    between atoms: C_2  and  O_3
REMARK    3  A    between atoms: O_3  and  N_4
REMARK    4  A    between atoms: N_6  and  C_7
REMARK                            x       y       z     vdW  Elec       q    Type
REMARK                         _______ _______ _______ _____ _____    ______ ____
ROOT
ATOM      1  C   UNL     1       4.744   4.696  17.247  0.00  0.00    +0.000 A 
ATOM      2  C   UNL     1       3.545   4.014  17.546  0.00  0.00    +0.000 A 
ATOM      3 CL   UNL     1       3.435   2.285  17.586  0.00  0.00    +0.000 Cl
ATOM      4  C   UNL     1       2.403   4.710  17.969  0.00  0.00    +0.000 A 
ATOM      5  C   UNL     1       2.428   6.092  18.122  0.00  0.00    +0.000 A 
ATOM      6  C   UNL     1       3.602   6.790  17.850  0.00  0.00    +0.000 A 
ATOM      7  C   UNL     1       4.739   6.102  17.413  0.00  0.00    +0.000 A 
ATOM      8 CL   UNL     1       6.169   7.030  17.098  0.00  0.00    +0.000 Cl
ENDROOT
BRANCH   1  11
ATOM      9  N   UNL     1       5.601   4.161  14.400  0.00  0.00    +0.000 NA
ATOM     10  C   UNL     1       6.225   3.796  15.469  0.00  0.00    +0.000 C 
ATOM     11  N   UNL     1       5.920   4.061  16.781  0.00  0.00    +0.000 N 
ATOM     12  H   UNL     1       6.719   4.191  17.394  0.00  0.00    +0.000 HD
BRANCH   9  13
ATOM     13  O   UNL     1       6.249   3.620  13.280  0.00  0.00    +0.000 OA
BRANCH  13  15
ATOM     14  C   UNL     1       5.655   2.127  11.506  0.00  0.00    +0.000 C 
ATOM     15  C   UNL     1       5.269   3.376  12.272  0.00  0.00    +0.000 C 
ENDBRANCH  13  15
ENDBRANCH   9  13
ENDBRANCH   1  11
TORSDOF 3
ENDMDL
