MODEL 1
REMARK VINA RESULT:      -8.2      0.000      0.000
REMARK  Name = 
REMARK  6 active torsions:
REMARK  status: ('A' for Active; 'I' for Inactive)
REMARK    1  A    between atoms: C_2  and  C_3
REMARK    2  A    between atoms: C_3  and  C_4
REMARK    3  A    between atoms: C_3  and  N_20
REMARK    4  A    between atoms: C_4  and  C_5
REMARK    5  A    between atoms: C_8  and  N_9
REMARK    6  A    between atoms: C_21  and  C_23
REMARK                            x       y       z     vdW  Elec       q    Type
REMARK                         _______ _______ _______ _____ _____    ______ ____
ROOT
ATOM      1  C   UNL     1       0.729  10.318  19.270  0.00  0.00    +0.000 C 
ENDROOT
BRANCH   1   2
ATOM      2  C   UNL     1       1.481   9.000  19.192  0.00  0.00    +0.000 A 
ATOM      3  C   UNL     1       1.516   8.073  20.235  0.00  0.00    +0.000 A 
ATOM      4  C   UNL     1       2.192   6.848  20.089  0.00  0.00    +0.000 A 
ATOM      5  C   UNL     1       2.849   6.494  18.906  0.00  0.00    +0.000 A 
ATOM      6  C   UNL     1       2.786   7.422  17.859  0.00  0.00    +0.000 A 
ATOM      7  C   UNL     1       2.112   8.650  17.990  0.00  0.00    +0.000 A 
BRANCH   5   8
ATOM      8  N   UNL     1       3.488   5.267  18.718  0.00  0.00    +0.000 N 
ATOM      9  C   UNL     1       4.613   4.874  19.601  0.00  0.00    +0.000 C 
ATOM     10  C   UNL     1       6.001   5.172  18.976  0.00  0.00    +0.000 C 
ATOM     11  N   UNL     1       6.089   4.577  17.640  0.00  0.00    +0.000 NA
ATOM     12  C   UNL     1       7.339   4.791  16.928  0.00  0.00    +0.000 C 
ATOM     13  C   UNL     1       6.947   4.555  15.468  0.00  0.00    +0.000 C 
ATOM     14  C   UNL     1       5.414   4.550  15.440  0.00  0.00    +0.000 C 
ATOM     15  C   UNL     1       5.029   5.145  16.784  0.00  0.00    +0.000 C 
ATOM     16  C   UNL     1       3.628   4.785  17.318  0.00  0.00    +0.000 C 
ENDBRANCH   5   8
ENDBRANCH   1   2
BRANCH   1  17
ATOM     17  C   UNL     1      -0.563  10.376  20.115  0.00  0.00    +0.000 C 
BRANCH  17  18
ATOM     18  N   UNL     1      -1.527  11.328  19.539  0.00  0.00    +0.000 N 
ATOM     19  C   UNL     1      -2.437  10.932  18.585  0.00  0.00    +0.000 C 
ATOM     20  O   UNL     1      -2.396   9.812  18.085  0.00  0.00    +0.000 OA
ATOM     21  H   UNL     1      -1.523  12.299  19.846  0.00  0.00    +0.000 HD
BRANCH  19  22
ATOM     22  C   UNL     1      -3.541  11.960  18.276  0.00  0.00    +0.000 C 
ATOM     23  N   UNL     1      -4.077  11.871  16.879  0.00  0.00    +0.000 NA
ATOM     24  C   UNL     1      -5.558  11.792  17.064  0.00  0.00    +0.000 C 
ATOM     25  C   UNL     1      -6.140  13.082  17.676  0.00  0.00    +0.000 C 
ATOM     26  C   UNL     1      -5.569  13.082  19.101  0.00  0.00    +0.000 C 
ATOM     27  C   UNL     1      -4.798  11.752  19.135  0.00  0.00    +0.000 C 
ATOM     28  C   UNL     1      -5.652  10.846  18.248  0.00  0.00    +0.000 C 
ATOM     29  H   UNL     1      -3.786  10.974  16.481  0.00  0.00    +0.000 HD
ENDBRANCH  19  22
ENDBRANCH  17  18
BRANCH  17  31
ATOM     30  N   UNL     1      -0.061  11.032  22.626  0.00  0.00    +0.000 NA
ATOM     31  C   UNL     1      -0.269  10.728  21.525  0.00  0.00    +0.000 C 
ENDBRANCH  17  31
ENDBRANCH   1  17
TORSDOF 6
ENDMDL
MODEL 2
REMARK VINA RESULT:      -8.2      2.761      3.339
REMARK  Name = 
REMARK  6 active torsions:
REMARK  status: ('A' for Active; 'I' for Inactive)
REMARK    1  A    between atoms: C_2  and  C_3
REMARK    2  A    between atoms: C_3  and  C_4
REMARK    3  A    between atoms: C_3  and  N_20
REMARK    4  A    between atoms: C_4  and  C_5
REMARK    5  A    between atoms: C_8  and  N_9
REMARK    6  A    between atoms: C_21  and  C_23
REMARK                            x       y       z     vdW  Elec       q    Type
REMARK                         _______ _______ _______ _____ _____    ______ ____
ROOT
ATOM      1  C   UNL     1       0.600  10.445  19.380  0.00  0.00    +0.000 C 
ENDROOT
BRANCH   1   2
ATOM      2  C   UNL     1       1.331   9.116  19.290  0.00  0.00    +0.000 A 
ATOM      3  C   UNL     1       1.438   8.223  20.358  0.00  0.00    +0.000 A 
ATOM      4  C   UNL     1       2.089   6.987  20.203  0.00  0.00    +0.000 A 
ATOM      5  C   UNL     1       2.649   6.585  18.986  0.00  0.00    +0.000 A 
ATOM      6  C   UNL     1       2.515   7.478  17.916  0.00  0.00    +0.000 A 
ATOM      7  C   UNL     1       1.865   8.718  18.055  0.00  0.00    +0.000 A 
BRANCH   5   8
ATOM      8  N   UNL     1       3.260   5.345  18.792  0.00  0.00    +0.000 N 
ATOM      9  C   UNL     1       4.305   4.877  19.735  0.00  0.00    +0.000 C 
ATOM     10  C   UNL     1       5.744   5.151  19.223  0.00  0.00    +0.000 C 
ATOM     11  N   UNL     1       5.908   4.607  17.872  0.00  0.00    +0.000 NA
ATOM     12  C   UNL     1       7.213   4.805  17.261  0.00  0.00    +0.000 C 
ATOM     13  C   UNL     1       6.920   4.642  15.767  0.00  0.00    +0.000 C 
ATOM     14  C   UNL     1       5.394   4.692  15.631  0.00  0.00    +0.000 C 
ATOM     15  C   UNL     1       4.932   5.246  16.968  0.00  0.00    +0.000 C 
ATOM     16  C   UNL     1       3.485   4.915  17.386  0.00  0.00    +0.000 C 
ENDBRANCH   5   8
ENDBRANCH   1   2
BRANCH   1  17
ATOM     17  C   UNL     1       0.504  11.136  20.757  0.00  0.00    +0.000 C 
BRANCH  17  18
ATOM     18  N   UNL     1      -0.882  11.540  21.048  0.00  0.00    +0.000 N 
ATOM     19  C   UNL     1      -1.336  11.650  22.342  0.00  0.00    +0.000 C 
ATOM     20  O   UNL     1      -0.649  11.294  23.296  0.00  0.00    +0.000 OA
ATOM     21  H   UNL     1      -1.521  11.740  20.281  0.00  0.00    +0.000 HD
BRANCH  19  22
ATOM     22  C   UNL     1      -2.709  12.331  22.493  0.00  0.00    +0.000 C 
ATOM     23  N   UNL     1      -3.424  11.977  23.762  0.00  0.00    +0.000 NA
ATOM     24  C   UNL     1      -3.794  13.301  24.350  0.00  0.00    +0.000 C 
ATOM     25  C   UNL     1      -4.806  14.067  23.474  0.00  0.00    +0.000 C 
ATOM     26  C   UNL     1      -3.992  14.412  22.220  0.00  0.00    +0.000 C 
ATOM     27  C   UNL     1      -2.602  13.862  22.579  0.00  0.00    +0.000 C 
ATOM     28  C   UNL     1      -2.528  14.098  24.089  0.00  0.00    +0.000 C 
ATOM     29  H   UNL     1      -2.748  11.554  24.403  0.00  0.00    +0.000 HD
ENDBRANCH  19  22
ENDBRANCH  17  18
BRANCH  17  31
ATOM     30  N   UNL     1       2.142  13.204  20.915  0.00  0.00    +0.000 NA
ATOM     31  C   UNL     1       1.409  12.308  20.836  0.00  0.00    +0.000 C 
ENDBRANCH  17  31
ENDBRANCH   1  17
TORSDOF 6
ENDMDL
MODEL 3
REMARK VINA RESULT:      -8.0      3.108      4.336
REMARK  Name = 
REMARK  6 active torsions:
REMARK  status: ('A' for Active; 'I' for Inactive)
REMARK    1  A    between atoms: C_2  and  C_3
REMARK    2  A    between atoms: C_3  and  C_4
REMARK    3  A    between atoms: C_3  and  N_20
REMARK    4  A    between atoms: C_4  and  C_5
REMARK    5  A    between atoms: C_8  and  N_9
REMARK    6  A    between atoms: C_21  and  C_23
REMARK                            x       y       z     vdW  Elec       q    Type
REMARK                         _______ _______ _______ _____ _____    ______ ____
ROOT
ATOM      1  C   UNL     1       0.202  11.111  19.023  0.00  0.00    +0.000 C 
ENDROOT
BRANCH   1   2
ATOM      2  C   UNL     1       0.940   9.787  19.139  0.00  0.00    +0.000 A 
ATOM      3  C   UNL     1       1.735   9.259  18.122  0.00  0.00    +0.000 A 
ATOM      4  C   UNL     1       2.431   8.050  18.303  0.00  0.00    +0.000 A 
ATOM      5  C   UNL     1       2.373   7.327  19.499  0.00  0.00    +0.000 A 
ATOM      6  C   UNL     1       1.591   7.880  20.521  0.00  0.00    +0.000 A 
ATOM      7  C   UNL     1       0.891   9.089  20.355  0.00  0.00    +0.000 A 
BRANCH   5   8
ATOM      8  N   UNL     1       3.090   6.151  19.722  0.00  0.00    +0.000 N 
ATOM      9  C   UNL     1       4.037   5.652  18.694  0.00  0.00    +0.000 C 
ATOM     10  C   UNL     1       3.416   4.560  17.784  0.00  0.00    +0.000 C 
ATOM     11  N   UNL     1       2.847   3.487  18.603  0.00  0.00    +0.000 NA
ATOM     12  C   UNL     1       2.217   2.397  17.875  0.00  0.00    +0.000 C 
ATOM     13  C   UNL     1       1.297   1.770  18.925  0.00  0.00    +0.000 C 
ATOM     14  C   UNL     1       1.235   2.774  20.082  0.00  0.00    +0.000 C 
ATOM     15  C   UNL     1       1.802   4.049  19.481  0.00  0.00    +0.000 C 
ATOM     16  C   UNL     1       2.397   5.069  20.473  0.00  0.00    +0.000 C 
ENDBRANCH   5   8
ENDBRANCH   1   2
BRANCH   1  17
ATOM     17  C   UNL     1       0.123  12.017  20.272  0.00  0.00    +0.000 C 
BRANCH  17  18
ATOM     18  N   UNL     1      -1.261  12.113  20.765  0.00  0.00    +0.000 N 
ATOM     19  C   UNL     1      -1.539  12.094  22.113  0.00  0.00    +0.000 C 
ATOM     20  O   UNL     1      -0.667  11.866  22.945  0.00  0.00    +0.000 OA
ATOM     21  H   UNL     1      -2.029  12.194  20.102  0.00  0.00    +0.000 HD
BRANCH  19  22
ATOM     22  C   UNL     1      -2.987  12.468  22.481  0.00  0.00    +0.000 C 
ATOM     23  N   UNL     1      -3.421  11.959  23.823  0.00  0.00    +0.000 NA
ATOM     24  C   UNL     1      -3.968  13.170  24.508  0.00  0.00    +0.000 C 
ATOM     25  C   UNL     1      -5.234  13.712  23.814  0.00  0.00    +0.000 C 
ATOM     26  C   UNL     1      -4.701  14.233  22.472  0.00  0.00    +0.000 C 
ATOM     27  C   UNL     1      -3.190  13.986  22.611  0.00  0.00    +0.000 C 
ATOM     28  C   UNL     1      -2.948  14.219  24.104  0.00  0.00    +0.000 C 
ATOM     29  H   UNL     1      -2.586  11.683  24.346  0.00  0.00    +0.000 HD
ENDBRANCH  19  22
ENDBRANCH  17  18
BRANCH  17  31
ATOM     30  N   UNL     1       1.091  14.432  19.807  0.00  0.00    +0.000 NA
ATOM     31  C   UNL     1       0.667  13.368  19.991  0.00  0.00    +0.000 C 
ENDBRANCH  17  31
ENDBRANCH   1  17
TORSDOF 6
ENDMDL
MODEL 4
REMARK VINA RESULT:      -7.8      2.589      3.412
REMARK  Name = 
REMARK  6 active torsions:
REMARK  status: ('A' for Active; 'I' for Inactive)
REMARK    1  A    between atoms: C_2  and  C_3
REMARK    2  A    between atoms: C_3  and  C_4
REMARK    3  A    between atoms: C_3  and  N_20
REMARK    4  A    between atoms: C_4  and  C_5
REMARK    5  A    between atoms: C_8  and  N_9
REMARK    6  A    between atoms: C_21  and  C_23
REMARK                            x       y       z     vdW  Elec       q    Type
REMARK                         _______ _______ _______ _____ _____    ______ ____
ROOT
ATOM      1  C   UNL     1       0.588  10.581  19.242  0.00  0.00    +0.000 C 
ENDROOT
BRANCH   1   2
ATOM      2  C   UNL     1       1.268   9.234  19.063  0.00  0.00    +0.000 A 
ATOM      3  C   UNL     1       1.843   8.816  17.862  0.00  0.00    +0.000 A 
ATOM      4  C   UNL     1       2.499   7.576  17.768  0.00  0.00    +0.000 A 
ATOM      5  C   UNL     1       2.617   6.709  18.859  0.00  0.00    +0.000 A 
ATOM      6  C   UNL     1       2.057   7.149  20.065  0.00  0.00    +0.000 A 
ATOM      7  C   UNL     1       1.400   8.389  20.174  0.00  0.00    +0.000 A 
BRANCH   5   8
ATOM      8  N   UNL     1       3.302   5.494  18.806  0.00  0.00    +0.000 N 
ATOM      9  C   UNL     1       4.458   5.254  19.704  0.00  0.00    +0.000 C 
ATOM     10  C   UNL     1       5.821   5.528  19.016  0.00  0.00    +0.000 C 
ATOM     11  N   UNL     1       5.910   4.779  17.760  0.00  0.00    +0.000 NA
ATOM     12  C   UNL     1       7.137   4.954  17.000  0.00  0.00    +0.000 C 
ATOM     13  C   UNL     1       6.730   4.529  15.587  0.00  0.00    +0.000 C 
ATOM     14  C   UNL     1       5.198   4.462  15.594  0.00  0.00    +0.000 C 
ATOM     15  C   UNL     1       4.813   5.200  16.866  0.00  0.00    +0.000 C 
ATOM     16  C   UNL     1       3.437   4.853  17.470  0.00  0.00    +0.000 C 
ENDBRANCH   5   8
ENDBRANCH   1   2
BRANCH   1  17
ATOM     17  C   UNL     1       1.092  11.511  20.368  0.00  0.00    +0.000 C 
BRANCH  17  18
ATOM     18  N   UNL     1      -0.037  12.117  21.094  0.00  0.00    +0.000 N 
ATOM     19  C   UNL     1      -0.411  11.660  22.337  0.00  0.00    +0.000 C 
ATOM     20  O   UNL     1       0.091  10.653  22.829  0.00  0.00    +0.000 OA
ATOM     21  H   UNL     1      -0.553  12.886  20.673  0.00  0.00    +0.000 HD
BRANCH  19  22
ATOM     22  C   UNL     1      -1.422  12.553  23.079  0.00  0.00    +0.000 C 
ATOM     23  N   UNL     1      -1.503  13.951  22.544  0.00  0.00    +0.000 NA
ATOM     24  C   UNL     1      -2.965  14.164  22.313  0.00  0.00    +0.000 C 
ATOM     25  C   UNL     1      -3.773  14.150  23.626  0.00  0.00    +0.000 C 
ATOM     26  C   UNL     1      -3.662  12.691  24.089  0.00  0.00    +0.000 C 
ATOM     27  C   UNL     1      -2.868  12.050  22.938  0.00  0.00    +0.000 C 
ATOM     28  C   UNL     1      -3.363  12.826  21.716  0.00  0.00    +0.000 C 
ATOM     29  H   UNL     1      -1.059  13.967  21.623  0.00  0.00    +0.000 HD
ENDBRANCH  19  22
ENDBRANCH  17  18
BRANCH  17  31
ATOM     30  N   UNL     1       2.714  13.366  19.410  0.00  0.00    +0.000 NA
ATOM     31  C   UNL     1       1.988  12.566  19.834  0.00  0.00    +0.000 C 
ENDBRANCH  17  31
ENDBRANCH   1  17
TORSDOF 6
ENDMDL
MODEL 5
REMARK VINA RESULT:      -7.8      2.619      9.462
REMARK  Name = 
REMARK  6 active torsions:
REMARK  status: ('A' for Active; 'I' for Inactive)
REMARK    1  A    between atoms: C_2  and  C_3
REMARK    2  A    between atoms: C_3  and  C_4
REMARK    3  A    between atoms: C_3  and  N_20
REMARK    4  A    between atoms: C_4  and  C_5
REMARK    5  A    between atoms: C_8  and  N_9
REMARK    6  A    between atoms: C_21  and  C_23
REMARK                            x       y       z     vdW  Elec       q    Type
REMARK                         _______ _______ _______ _____ _____    ______ ____
ROOT
ATOM      1  C   UNL     1       2.162   4.700  21.064  0.00  0.00    +0.000 C 
ENDROOT
BRANCH   1   2
ATOM      2  C   UNL     1       1.975   6.100  20.503  0.00  0.00    +0.000 A 
ATOM      3  C   UNL     1       2.453   6.499  19.255  0.00  0.00    +0.000 A 
ATOM      4  C   UNL     1       2.210   7.795  18.769  0.00  0.00    +0.000 A 
ATOM      5  C   UNL     1       1.478   8.741  19.495  0.00  0.00    +0.000 A 
ATOM      6  C   UNL     1       0.983   8.322  20.736  0.00  0.00    +0.000 A 
ATOM      7  C   UNL     1       1.217   7.027  21.235  0.00  0.00    +0.000 A 
BRANCH   5   8
ATOM      8  N   UNL     1       1.183  10.018  19.017  0.00  0.00    +0.000 N 
ATOM      9  C   UNL     1       1.038  11.150  19.966  0.00  0.00    +0.000 C 
ATOM     10  C   UNL     1      -0.441  11.444  20.330  0.00  0.00    +0.000 C 
ATOM     11  N   UNL     1      -1.234  11.616  19.110  0.00  0.00    +0.000 NA
ATOM     12  C   UNL     1      -2.650  11.885  19.304  0.00  0.00    +0.000 C 
ATOM     13  C   UNL     1      -3.263  11.486  17.960  0.00  0.00    +0.000 C 
ATOM     14  C   UNL     1      -2.174  10.702  17.218  0.00  0.00    +0.000 C 
ATOM     15  C   UNL     1      -1.161  10.382  18.304  0.00  0.00    +0.000 C 
ATOM     16  C   UNL     1       0.283  10.107  17.836  0.00  0.00    +0.000 C 
ENDBRANCH   5   8
ENDBRANCH   1   2
BRANCH   1  17
ATOM     17  C   UNL     1       2.425   3.544  20.074  0.00  0.00    +0.000 C 
BRANCH  17  18
ATOM     18  N   UNL     1       3.309   3.979  18.980  0.00  0.00    +0.000 N 
ATOM     19  C   UNL     1       4.617   3.557  18.911  0.00  0.00    +0.000 C 
ATOM     20  O   UNL     1       5.133   2.914  19.820  0.00  0.00    +0.000 OA
ATOM     21  H   UNL     1       2.952   4.604  18.261  0.00  0.00    +0.000 HD
BRANCH  19  22
ATOM     22  C   UNL     1       5.332   3.875  17.585  0.00  0.00    +0.000 C 
ATOM     23  N   UNL     1       4.457   4.547  16.570  0.00  0.00    +0.000 NA
ATOM     24  C   UNL     1       5.245   5.747  16.153  0.00  0.00    +0.000 C 
ATOM     25  C   UNL     1       6.548   5.365  15.423  0.00  0.00    +0.000 C 
ATOM     26  C   UNL     1       7.390   4.714  16.529  0.00  0.00    +0.000 C 
ATOM     27  C   UNL     1       6.483   4.878  17.759  0.00  0.00    +0.000 C 
ATOM     28  C   UNL     1       5.791   6.215  17.490  0.00  0.00    +0.000 C 
ATOM     29  H   UNL     1       3.624   4.899  17.049  0.00  0.00    +0.000 HD
ENDBRANCH  19  22
ENDBRANCH  17  18
BRANCH  17  31
ATOM     30  N   UNL     1       0.177   2.583  19.069  0.00  0.00    +0.000 NA
ATOM     31  C   UNL     1       1.157   3.003  19.529  0.00  0.00    +0.000 C 
ENDBRANCH  17  31
ENDBRANCH   1  17
TORSDOF 6
ENDMDL
MODEL 6
REMARK VINA RESULT:      -7.8      2.912      4.144
REMARK  Name = 
REMARK  6 active torsions:
REMARK  status: ('A' for Active; 'I' for Inactive)
REMARK    1  A    between atoms: C_2  and  C_3
REMARK    2  A    between atoms: C_3  and  C_4
REMARK    3  A    between atoms: C_3  and  N_20
REMARK    4  A    between atoms: C_4  and  C_5
REMARK    5  A    between atoms: C_8  and  N_9
REMARK    6  A    between atoms: C_21  and  C_23
REMARK                            x       y       z     vdW  Elec       q    Type
REMARK                         _______ _______ _______ _____ _____    ______ ____
ROOT
ATOM      1  C   UNL     1      -0.114  11.085  18.697  0.00  0.00    +0.000 C 
ENDROOT
BRANCH   1   2
ATOM      2  C   UNL     1       0.716   9.860  19.042  0.00  0.00    +0.000 A 
ATOM      3  C   UNL     1       0.753   9.290  20.316  0.00  0.00    +0.000 A 
ATOM      4  C   UNL     1       1.504   8.129  20.565  0.00  0.00    +0.000 A 
ATOM      5  C   UNL     1       2.239   7.484  19.564  0.00  0.00    +0.000 A 
ATOM      6  C   UNL     1       2.176   8.053  18.285  0.00  0.00    +0.000 A 
ATOM      7  C   UNL     1       1.426   9.213  18.020  0.00  0.00    +0.000 A 
BRANCH   5   8
ATOM      8  N   UNL     1       2.956   6.306  19.773  0.00  0.00    +0.000 N 
ATOM      9  C   UNL     1       3.921   5.832  18.750  0.00  0.00    +0.000 C 
ATOM     10  C   UNL     1       3.318   4.758  17.807  0.00  0.00    +0.000 C 
ATOM     11  N   UNL     1       2.740   3.666  18.594  0.00  0.00    +0.000 NA
ATOM     12  C   UNL     1       2.125   2.590  17.834  0.00  0.00    +0.000 C 
ATOM     13  C   UNL     1       1.191   1.937  18.856  0.00  0.00    +0.000 C 
ATOM     14  C   UNL     1       1.107   2.917  20.033  0.00  0.00    +0.000 C 
ATOM     15  C   UNL     1       1.679   4.206  19.468  0.00  0.00    +0.000 C 
ATOM     16  C   UNL     1       2.256   5.207  20.490  0.00  0.00    +0.000 C 
ENDBRANCH   5   8
ENDBRANCH   1   2
BRANCH   1  17
ATOM     17  C   UNL     1      -0.219  12.218  19.743  0.00  0.00    +0.000 C 
BRANCH  17  18
ATOM     18  N   UNL     1      -1.476  12.118  20.502  0.00  0.00    +0.000 N 
ATOM     19  C   UNL     1      -1.483  12.164  21.878  0.00  0.00    +0.000 C 
ATOM     20  O   UNL     1      -0.441  12.159  22.526  0.00  0.00    +0.000 OA
ATOM     21  H   UNL     1      -2.358  12.010  20.006  0.00  0.00    +0.000 HD
BRANCH  19  22
ATOM     22  C   UNL     1      -2.877  12.315  22.515  0.00  0.00    +0.000 C 
ATOM     23  N   UNL     1      -2.859  12.968  23.864  0.00  0.00    +0.000 NA
ATOM     24  C   UNL     1      -3.867  14.066  23.748  0.00  0.00    +0.000 C 
ATOM     25  C   UNL     1      -5.297  13.526  23.541  0.00  0.00    +0.000 C 
ATOM     26  C   UNL     1      -5.236  12.905  22.139  0.00  0.00    +0.000 C 
ATOM     27  C   UNL     1      -3.800  13.238  21.704  0.00  0.00    +0.000 C 
ATOM     28  C   UNL     1      -3.557  14.598  22.361  0.00  0.00    +0.000 C 
ATOM     29  H   UNL     1      -1.950  13.421  23.988  0.00  0.00    +0.000 HD
ENDBRANCH  19  22
ENDBRANCH  17  18
BRANCH  17  31
ATOM     30  N   UNL     1      -0.047  14.605  18.621  0.00  0.00    +0.000 NA
ATOM     31  C   UNL     1      -0.105  13.551  19.105  0.00  0.00    +0.000 C 
ENDBRANCH  17  31
ENDBRANCH   1  17
TORSDOF 6
ENDMDL
MODEL 7
REMARK VINA RESULT:      -7.8      2.723      4.306
REMARK  Name = 
REMARK  6 active torsions:
REMARK  status: ('A' for Active; 'I' for Inactive)
REMARK    1  A    between atoms: C_2  and  C_3
REMARK    2  A    between atoms: C_3  and  C_4
REMARK    3  A    between atoms: C_3  and  N_20
REMARK    4  A    between atoms: C_4  and  C_5
REMARK    5  A    between atoms: C_8  and  N_9
REMARK    6  A    between atoms: C_21  and  C_23
REMARK                            x       y       z     vdW  Elec       q    Type
REMARK                         _______ _______ _______ _____ _____    ______ ____
ROOT
ATOM      1  C   UNL     1       0.412  11.552  18.777  0.00  0.00    +0.000 C 
ENDROOT
BRANCH   1   2
ATOM      2  C   UNL     1       1.038  10.181  18.972  0.00  0.00    +0.000 A 
ATOM      3  C   UNL     1       1.760   9.517  17.979  0.00  0.00    +0.000 A 
ATOM      4  C   UNL     1       2.355   8.268  18.232  0.00  0.00    +0.000 A 
ATOM      5  C   UNL     1       2.265   7.636  19.477  0.00  0.00    +0.000 A 
ATOM      6  C   UNL     1       1.559   8.323  20.472  0.00  0.00    +0.000 A 
ATOM      7  C   UNL     1       0.960   9.574  20.234  0.00  0.00    +0.000 A 
BRANCH   5   8
ATOM      8  N   UNL     1       2.885   6.420  19.769  0.00  0.00    +0.000 N 
ATOM      9  C   UNL     1       3.914   5.872  18.851  0.00  0.00    +0.000 C 
ATOM     10  C   UNL     1       3.341   4.820  17.865  0.00  0.00    +0.000 C 
ATOM     11  N   UNL     1       2.622   3.778  18.604  0.00  0.00    +0.000 NA
ATOM     12  C   UNL     1       2.020   2.728  17.798  0.00  0.00    +0.000 C 
ATOM     13  C   UNL     1       0.952   2.151  18.730  0.00  0.00    +0.000 C 
ATOM     14  C   UNL     1       0.814   3.153  19.883  0.00  0.00    +0.000 C 
ATOM     15  C   UNL     1       1.517   4.395  19.363  0.00  0.00    +0.000 C 
ATOM     16  C   UNL     1       2.051   5.377  20.425  0.00  0.00    +0.000 C 
ENDBRANCH   5   8
ENDBRANCH   1   2
BRANCH   1  17
ATOM     17  C   UNL     1      -1.122  11.641  18.619  0.00  0.00    +0.000 C 
BRANCH  17  18
ATOM     18  N   UNL     1      -1.790  11.578  19.930  0.00  0.00    +0.000 N 
ATOM     19  C   UNL     1      -2.322  12.706  20.513  0.00  0.00    +0.000 C 
ATOM     20  O   UNL     1      -2.146  13.821  20.031  0.00  0.00    +0.000 OA
ATOM     21  H   UNL     1      -1.862  10.688  20.418  0.00  0.00    +0.000 HD
BRANCH  19  22
ATOM     22  C   UNL     1      -3.213  12.443  21.741  0.00  0.00    +0.000 C 
ATOM     23  N   UNL     1      -2.456  11.989  22.952  0.00  0.00    +0.000 NA
ATOM     24  C   UNL     1      -2.919  12.912  24.034  0.00  0.00    +0.000 C 
ATOM     25  C   UNL     1      -4.415  12.729  24.357  0.00  0.00    +0.000 C 
ATOM     26  C   UNL     1      -5.112  13.238  23.088  0.00  0.00    +0.000 C 
ATOM     27  C   UNL     1      -3.921  13.712  22.238  0.00  0.00    +0.000 C 
ATOM     28  C   UNL     1      -2.945  14.237  23.293  0.00  0.00    +0.000 C 
ATOM     29  H   UNL     1      -1.464  12.190  22.804  0.00  0.00    +0.000 HD
ENDBRANCH  19  22
ENDBRANCH  17  18
BRANCH  17  31
ATOM     30  N   UNL     1      -2.062   9.758  17.019  0.00  0.00    +0.000 NA
ATOM     31  C   UNL     1      -1.634  10.573  17.727  0.00  0.00    +0.000 C 
ENDBRANCH  17  31
ENDBRANCH   1  17
TORSDOF 6
ENDMDL
MODEL 8
REMARK VINA RESULT:      -7.8      3.287      4.537
REMARK  Name = 
REMARK  6 active torsions:
REMARK  status: ('A' for Active; 'I' for Inactive)
REMARK    1  A    between atoms: C_2  and  C_3
REMARK    2  A    between atoms: C_3  and  C_4
REMARK    3  A    between atoms: C_3  and  N_20
REMARK    4  A    between atoms: C_4  and  C_5
REMARK    5  A    between atoms: C_8  and  N_9
REMARK    6  A    between atoms: C_21  and  C_23
REMARK                            x       y       z     vdW  Elec       q    Type
REMARK                         _______ _______ _______ _____ _____    ______ ____
ROOT
ATOM      1  C   UNL     1       0.311  11.446  19.002  0.00  0.00    +0.000 C 
ENDROOT
BRANCH   1   2
ATOM      2  C   UNL     1       1.039  10.113  19.048  0.00  0.00    +0.000 A 
ATOM      3  C   UNL     1       1.051   9.282  20.169  0.00  0.00    +0.000 A 
ATOM      4  C   UNL     1       1.705   8.038  20.138  0.00  0.00    +0.000 A 
ATOM      5  C   UNL     1       2.362   7.566  18.996  0.00  0.00    +0.000 A 
ATOM      6  C   UNL     1       2.322   8.399  17.870  0.00  0.00    +0.000 A 
ATOM      7  C   UNL     1       1.670   9.645  17.886  0.00  0.00    +0.000 A 
BRANCH   5   8
ATOM      8  N   UNL     1       2.978   6.317  18.924  0.00  0.00    +0.000 N 
ATOM      9  C   UNL     1       2.712   5.424  17.769  0.00  0.00    +0.000 C 
ATOM     10  C   UNL     1       1.624   4.360  18.070  0.00  0.00    +0.000 C 
ATOM     11  N   UNL     1       1.963   3.626  19.293  0.00  0.00    +0.000 NA
ATOM     12  C   UNL     1       1.017   2.601  19.702  0.00  0.00    +0.000 C 
ATOM     13  C   UNL     1       1.330   2.419  21.189  0.00  0.00    +0.000 C 
ATOM     14  C   UNL     1       2.217   3.608  21.580  0.00  0.00    +0.000 C 
ATOM     15  C   UNL     1       2.050   4.575  20.420  0.00  0.00    +0.000 C 
ATOM     16  C   UNL     1       3.189   5.592  20.206  0.00  0.00    +0.000 C 
ENDBRANCH   5   8
ENDBRANCH   1   2
BRANCH   1  17
ATOM     17  C   UNL     1       0.168  12.248  20.314  0.00  0.00    +0.000 C 
BRANCH  17  18
ATOM     18  N   UNL     1      -1.226  12.237  20.788  0.00  0.00    +0.000 N 
ATOM     19  C   UNL     1      -1.522  12.164  22.130  0.00  0.00    +0.000 C 
ATOM     20  O   UNL     1      -0.647  11.974  22.970  0.00  0.00    +0.000 OA
ATOM     21  H   UNL     1      -1.989  12.282  20.115  0.00  0.00    +0.000 HD
BRANCH  19  22
ATOM     22  C   UNL     1      -2.997  12.428  22.485  0.00  0.00    +0.000 C 
ATOM     23  N   UNL     1      -3.417  11.847  23.801  0.00  0.00    +0.000 NA
ATOM     24  C   UNL     1      -4.053  12.995  24.517  0.00  0.00    +0.000 C 
ATOM     25  C   UNL     1      -5.342  13.475  23.818  0.00  0.00    +0.000 C 
ATOM     26  C   UNL     1      -4.824  14.075  22.504  0.00  0.00    +0.000 C 
ATOM     27  C   UNL     1      -3.302  13.924  22.661  0.00  0.00    +0.000 C 
ATOM     28  C   UNL     1      -3.099  14.122  24.164  0.00  0.00    +0.000 C 
ATOM     29  H   UNL     1      -2.573  11.608  24.329  0.00  0.00    +0.000 HD
ENDBRANCH  19  22
ENDBRANCH  17  18
BRANCH  17  31
ATOM     30  N   UNL     1       1.008  14.732  19.984  0.00  0.00    +0.000 NA
ATOM     31  C   UNL     1       0.645  13.642  20.148  0.00  0.00    +0.000 C 
ENDBRANCH  17  31
ENDBRANCH   1  17
TORSDOF 6
ENDMDL
MODEL 9
REMARK VINA RESULT:      -7.8      2.377      3.177
REMARK  Name = 
REMARK  6 active torsions:
REMARK  status: ('A' for Active; 'I' for Inactive)
REMARK    1  A    between atoms: C_2  and  C_3
REMARK    2  A    between atoms: C_3  and  C_4
REMARK    3  A    between atoms: C_3  and  N_20
REMARK    4  A    between atoms: C_4  and  C_5
REMARK    5  A    between atoms: C_8  and  N_9
REMARK    6  A    between atoms: C_21  and  C_23
REMARK                            x       y       z     vdW  Elec       q    Type
REMARK                         _______ _______ _______ _____ _____    ______ ____
ROOT
ATOM      1  C   UNL     1       0.879  10.765  19.244  0.00  0.00    +0.000 C 
ENDROOT
BRANCH   1   2
ATOM      2  C   UNL     1       1.439   9.366  19.045  0.00  0.00    +0.000 A 
ATOM      3  C   UNL     1       1.934   8.901  17.826  0.00  0.00    +0.000 A 
ATOM      4  C   UNL     1       2.482   7.611  17.714  0.00  0.00    +0.000 A 
ATOM      5  C   UNL     1       2.568   6.738  18.803  0.00  0.00    +0.000 A 
ATOM      6  C   UNL     1       2.090   7.225  20.027  0.00  0.00    +0.000 A 
ATOM      7  C   UNL     1       1.542   8.514  20.155  0.00  0.00    +0.000 A 
BRANCH   5   8
ATOM      8  N   UNL     1       3.148   5.472  18.730  0.00  0.00    +0.000 N 
ATOM      9  C   UNL     1       4.162   5.061  19.733  0.00  0.00    +0.000 C 
ATOM     10  C   UNL     1       5.617   5.253  19.230  0.00  0.00    +0.000 C 
ATOM     11  N   UNL     1       5.794   4.590  17.935  0.00  0.00    +0.000 NA
ATOM     12  C   UNL     1       7.115   4.702  17.338  0.00  0.00    +0.000 C 
ATOM     13  C   UNL     1       6.848   4.418  15.858  0.00  0.00    +0.000 C 
ATOM     14  C   UNL     1       5.326   4.495  15.684  0.00  0.00    +0.000 C 
ATOM     15  C   UNL     1       4.854   5.174  16.959  0.00  0.00    +0.000 C 
ATOM     16  C   UNL     1       3.390   4.916  17.372  0.00  0.00    +0.000 C 
ENDBRANCH   5   8
ENDBRANCH   1   2
BRANCH   1  17
ATOM     17  C   UNL     1       0.730  11.296  20.686  0.00  0.00    +0.000 C 
BRANCH  17  18
ATOM     18  N   UNL     1      -0.684  11.549  21.010  0.00  0.00    +0.000 N 
ATOM     19  C   UNL     1      -1.142  11.478  22.306  0.00  0.00    +0.000 C 
ATOM     20  O   UNL     1      -0.426  11.077  23.219  0.00  0.00    +0.000 OA
ATOM     21  H   UNL     1      -1.339  11.778  20.265  0.00  0.00    +0.000 HD
BRANCH  19  22
ATOM     22  C   UNL     1      -2.567  12.022  22.521  0.00  0.00    +0.000 C 
ATOM     23  N   UNL     1      -2.698  12.922  23.712  0.00  0.00    +0.000 NA
ATOM     24  C   UNL     1      -3.364  14.145  23.169  0.00  0.00    +0.000 C 
ATOM     25  C   UNL     1      -4.797  13.859  22.676  0.00  0.00    +0.000 C 
ATOM     26  C   UNL     1      -4.572  12.962  21.451  0.00  0.00    +0.000 C 
ATOM     27  C   UNL     1      -3.038  12.917  21.365  0.00  0.00    +0.000 C 
ATOM     28  C   UNL     1      -2.634  14.311  21.848  0.00  0.00    +0.000 C 
ATOM     29  H   UNL     1      -1.759  13.208  24.002  0.00  0.00    +0.000 HD
ENDBRANCH  19  22
ENDBRANCH  17  18
BRANCH  17  31
ATOM     30  N   UNL     1       2.147  13.501  21.029  0.00  0.00    +0.000 NA
ATOM     31  C   UNL     1       1.534  12.524  20.894  0.00  0.00    +0.000 C 
ENDBRANCH  17  31
ENDBRANCH   1  17
TORSDOF 6
ENDMDL
