MODEL 1
REMARK VINA RESULT:      -8.5      0.000      0.000
REMARK  Name = 
REMARK  6 active torsions:
REMARK  status: ('A' for Active; 'I' for Inactive)
REMARK    1  A    between atoms: C_1  and  O_2
REMARK    2  A    between atoms: O_2  and  C_3
REMARK    3  A    between atoms: C_3  and  C_5
REMARK    4  A    between atoms: N_13  and  S_14
REMARK    5  A    between atoms: S_14  and  C_17
REMARK    6  A    between atoms: C_20  and  C_21
REMARK                            x       y       z     vdW  Elec       q    Type
REMARK                         _______ _______ _______ _____ _____    ______ ____
ROOT
ATOM      1  C   UNL     1       2.535   7.157  18.801  0.00  0.00    +0.000 C 
ATOM      2  C   UNL     1       2.206   6.548  19.954  0.00  0.00    +0.000 C 
ATOM      3  C   UNL     1       2.648   5.169  20.175  0.00  0.00    +0.000 A 
ATOM      4  C   UNL     1       2.040   4.391  21.167  0.00  0.00    +0.000 A 
ATOM      5  C   UNL     1       2.391   3.051  21.318  0.00  0.00    +0.000 A 
ATOM      6  C   UNL     1       3.350   2.485  20.481  0.00  0.00    +0.000 A 
ATOM      7  C   UNL     1       3.975   3.264  19.503  0.00  0.00    +0.000 A 
ATOM      8  C   UNL     1       3.647   4.613  19.355  0.00  0.00    +0.000 A 
ATOM      9  N   UNL     1       4.209   5.415  18.297  0.00  0.00    +0.000 N 
ATOM     10  C   UNL     1       3.378   6.510  17.737  0.00  0.00    +0.000 C 
ENDROOT
BRANCH   9  11
ATOM     11  S   UNL     1       5.877   5.463  17.991  0.00  0.00    +0.000 S 
ATOM     12  O   UNL     1       6.371   6.822  17.991  0.00  0.00    +0.000 OA
ATOM     13  O   UNL     1       6.482   4.461  18.844  0.00  0.00    +0.000 OA
BRANCH  11  14
ATOM     14  C   UNL     1       6.050   4.876  16.312  0.00  0.00    +0.000 A 
ATOM     15  C   UNL     1       5.083   4.039  15.754  0.00  0.00    +0.000 A 
ATOM     16  C   UNL     1       5.226   3.605  14.429  0.00  0.00    +0.000 A 
ATOM     17  C   UNL     1       6.326   4.008  13.658  0.00  0.00    +0.000 A 
ATOM     18  C   UNL     1       6.496   3.533  12.243  0.00  0.00    +0.000 C 
ATOM     19  C   UNL     1       7.260   4.891  14.213  0.00  0.00    +0.000 A 
ATOM     20  C   UNL     1       7.127   5.320  15.535  0.00  0.00    +0.000 A 
ENDBRANCH  11  14
ENDBRANCH   9  11
BRANCH   1  21
ATOM     21  C   UNL     1       2.039   8.512  18.466  0.00  0.00    +0.000 C 
ATOM     22  O   UNL     1       2.226   9.037  17.379  0.00  0.00    +0.000 OA
BRANCH  21  24
ATOM     23  C   UNL     1       0.368   9.997  19.157  0.00  0.00    +0.000 C 
ATOM     24  O   UNL     1       1.396   9.075  19.520  0.00  0.00    +0.000 OA
ENDBRANCH  21  24
ENDBRANCH   1  21
TORSDOF 4
ENDMDL
MODEL 2
REMARK VINA RESULT:      -8.0      0.941      1.168
REMARK  Name = 
REMARK  6 active torsions:
REMARK  status: ('A' for Active; 'I' for Inactive)
REMARK    1  A    between atoms: C_1  and  O_2
REMARK    2  A    between atoms: O_2  and  C_3
REMARK    3  A    between atoms: C_3  and  C_5
REMARK    4  A    between atoms: N_13  and  S_14
REMARK    5  A    between atoms: S_14  and  C_17
REMARK    6  A    between atoms: C_20  and  C_21
REMARK                            x       y       z     vdW  Elec       q    Type
REMARK                         _______ _______ _______ _____ _____    ______ ____
ROOT
ATOM      1  C   UNL     1       2.336   6.767  19.386  0.00  0.00    +0.000 C 
ATOM      2  C   UNL     1       1.884   5.738  20.126  0.00  0.00    +0.000 C 
ATOM      3  C   UNL     1       2.229   4.374  19.722  0.00  0.00    +0.000 A 
ATOM      4  C   UNL     1       1.503   3.290  20.229  0.00  0.00    +0.000 A 
ATOM      5  C   UNL     1       1.765   1.998  19.777  0.00  0.00    +0.000 A 
ATOM      6  C   UNL     1       2.754   1.785  18.819  0.00  0.00    +0.000 A 
ATOM      7  C   UNL     1       3.497   2.861  18.325  0.00  0.00    +0.000 A 
ATOM      8  C   UNL     1       3.257   4.158  18.785  0.00  0.00    +0.000 A 
ATOM      9  N   UNL     1       3.944   5.296  18.228  0.00  0.00    +0.000 N 
ATOM     10  C   UNL     1       3.222   6.593  18.184  0.00  0.00    +0.000 C 
ENDROOT
BRANCH   9  11
ATOM     11  S   UNL     1       5.631   5.333  18.052  0.00  0.00    +0.000 S 
ATOM     12  O   UNL     1       6.143   6.679  18.188  0.00  0.00    +0.000 OA
ATOM     13  O   UNL     1       6.155   4.261  18.873  0.00  0.00    +0.000 OA
BRANCH  11  14
ATOM     14  C   UNL     1       5.923   4.863  16.352  0.00  0.00    +0.000 A 
ATOM     15  C   UNL     1       4.882   4.362  15.570  0.00  0.00    +0.000 A 
ATOM     16  C   UNL     1       5.125   4.018  14.233  0.00  0.00    +0.000 A 
ATOM     17  C   UNL     1       6.401   4.178  13.674  0.00  0.00    +0.000 A 
ATOM     18  C   UNL     1       6.675   3.796  12.247  0.00  0.00    +0.000 C 
ATOM     19  C   UNL     1       7.422   4.733  14.455  0.00  0.00    +0.000 A 
ATOM     20  C   UNL     1       7.188   5.070  15.789  0.00  0.00    +0.000 A 
ENDBRANCH  11  14
ENDBRANCH   9  11
BRANCH   1  21
ATOM     21  C   UNL     1       1.945   8.166  19.676  0.00  0.00    +0.000 C 
ATOM     22  O   UNL     1       1.495   8.518  20.755  0.00  0.00    +0.000 OA
BRANCH  21  24
ATOM     23  C   UNL     1       0.954   9.658  18.171  0.00  0.00    +0.000 C 
ATOM     24  O   UNL     1       2.127   8.962  18.593  0.00  0.00    +0.000 OA
ENDBRANCH  21  24
ENDBRANCH   1  21
TORSDOF 4
ENDMDL
MODEL 3
REMARK VINA RESULT:      -7.9      0.973      1.540
REMARK  Name = 
REMARK  6 active torsions:
REMARK  status: ('A' for Active; 'I' for Inactive)
REMARK    1  A    between atoms: C_1  and  O_2
REMARK    2  A    between atoms: O_2  and  C_3
REMARK    3  A    between atoms: C_3  and  C_5
REMARK    4  A    between atoms: N_13  and  S_14
REMARK    5  A    between atoms: S_14  and  C_17
REMARK    6  A    between atoms: C_20  and  C_21
REMARK                            x       y       z     vdW  Elec       q    Type
REMARK                         _______ _______ _______ _____ _____    ______ ____
ROOT
ATOM      1  C   UNL     1       2.274   6.762  19.436  0.00  0.00    +0.000 C 
ATOM      2  C   UNL     1       1.785   5.728  20.144  0.00  0.00    +0.000 C 
ATOM      3  C   UNL     1       2.116   4.365  19.725  0.00  0.00    +0.000 A 
ATOM      4  C   UNL     1       1.358   3.286  20.193  0.00  0.00    +0.000 A 
ATOM      5  C   UNL     1       1.609   1.998  19.723  0.00  0.00    +0.000 A 
ATOM      6  C   UNL     1       2.619   1.784  18.788  0.00  0.00    +0.000 A 
ATOM      7  C   UNL     1       3.393   2.856  18.333  0.00  0.00    +0.000 A 
ATOM      8  C   UNL     1       3.165   4.148  18.811  0.00  0.00    +0.000 A 
ATOM      9  N   UNL     1       3.886   5.283  18.293  0.00  0.00    +0.000 N 
ATOM     10  C   UNL     1       3.189   6.593  18.254  0.00  0.00    +0.000 C 
ENDROOT
BRANCH   9  11
ATOM     11  S   UNL     1       5.577   5.293  18.162  0.00  0.00    +0.000 S 
ATOM     12  O   UNL     1       6.111   6.622  18.363  0.00  0.00    +0.000 OA
ATOM     13  O   UNL     1       6.059   4.179  18.954  0.00  0.00    +0.000 OA
BRANCH  11  14
ATOM     14  C   UNL     1       5.905   4.883  16.453  0.00  0.00    +0.000 A 
ATOM     15  C   UNL     1       7.167   5.107  15.903  0.00  0.00    +0.000 A 
ATOM     16  C   UNL     1       7.412   4.760  14.568  0.00  0.00    +0.000 A 
ATOM     17  C   UNL     1       6.403   4.185  13.782  0.00  0.00    +0.000 A 
ATOM     18  C   UNL     1       6.650   3.827  12.344  0.00  0.00    +0.000 C 
ATOM     19  C   UNL     1       5.157   3.917  14.362  0.00  0.00    +0.000 A 
ATOM     20  C   UNL     1       4.905   4.267  15.690  0.00  0.00    +0.000 A 
ENDBRANCH  11  14
ENDBRANCH   9  11
BRANCH   1  21
ATOM     21  C   UNL     1       1.900   8.162  19.741  0.00  0.00    +0.000 C 
ATOM     22  O   UNL     1       1.599   8.538  20.863  0.00  0.00    +0.000 OA
BRANCH  21  24
ATOM     23  C   UNL     1       1.148  10.131  18.726  0.00  0.00    +0.000 C 
ATOM     24  O   UNL     1       1.913   8.929  18.623  0.00  0.00    +0.000 OA
ENDBRANCH  21  24
ENDBRANCH   1  21
TORSDOF 4
ENDMDL
MODEL 4
REMARK VINA RESULT:      -7.5      2.220      4.106
REMARK  Name = 
REMARK  6 active torsions:
REMARK  status: ('A' for Active; 'I' for Inactive)
REMARK    1  A    between atoms: C_1  and  O_2
REMARK    2  A    between atoms: O_2  and  C_3
REMARK    3  A    between atoms: C_3  and  C_5
REMARK    4  A    between atoms: N_13  and  S_14
REMARK    5  A    between atoms: S_14  and  C_17
REMARK    6  A    between atoms: C_20  and  C_21
REMARK                            x       y       z     vdW  Elec       q    Type
REMARK                         _______ _______ _______ _____ _____    ______ ____
ROOT
ATOM      1  C   UNL     1       3.993   3.514  19.074  0.00  0.00    +0.000 C 
ATOM      2  C   UNL     1       2.964   4.117  18.452  0.00  0.00    +0.000 C 
ATOM      3  C   UNL     1       3.088   5.530  18.091  0.00  0.00    +0.000 A 
ATOM      4  C   UNL     1       1.944   6.276  17.784  0.00  0.00    +0.000 A 
ATOM      5  C   UNL     1       2.047   7.643  17.532  0.00  0.00    +0.000 A 
ATOM      6  C   UNL     1       3.291   8.268  17.583  0.00  0.00    +0.000 A 
ATOM      7  C   UNL     1       4.439   7.523  17.870  0.00  0.00    +0.000 A 
ATOM      8  C   UNL     1       4.352   6.149  18.104  0.00  0.00    +0.000 A 
ATOM      9  N   UNL     1       5.505   5.375  18.490  0.00  0.00    +0.000 N 
ATOM     10  C   UNL     1       5.293   4.205  19.380  0.00  0.00    +0.000 C 
ENDROOT
BRANCH   9  11
ATOM     11  S   UNL     1       6.970   5.455  17.639  0.00  0.00    +0.000 S 
ATOM     12  O   UNL     1       7.384   6.825  17.434  0.00  0.00    +0.000 OA
ATOM     13  O   UNL     1       7.865   4.504  18.268  0.00  0.00    +0.000 OA
BRANCH  11  14
ATOM     14  C   UNL     1       6.593   4.804  16.018  0.00  0.00    +0.000 A 
ATOM     15  C   UNL     1       5.479   3.985  15.828  0.00  0.00    +0.000 A 
ATOM     16  C   UNL     1       5.188   3.501  14.546  0.00  0.00    +0.000 A 
ATOM     17  C   UNL     1       6.000   3.837  13.452  0.00  0.00    +0.000 A 
ATOM     18  C   UNL     1       5.705   3.308  12.077  0.00  0.00    +0.000 C 
ATOM     19  C   UNL     1       7.082   4.703  13.648  0.00  0.00    +0.000 A 
ATOM     20  C   UNL     1       7.382   5.182  14.925  0.00  0.00    +0.000 A 
ENDBRANCH  11  14
ENDBRANCH   9  11
BRANCH   1  21
ATOM     21  C   UNL     1       3.900   2.117  19.558  0.00  0.00    +0.000 C 
ATOM     22  O   UNL     1       3.802   1.160  18.805  0.00  0.00    +0.000 OA
BRANCH  21  24
ATOM     23  C   UNL     1       2.688   2.468  21.528  0.00  0.00    +0.000 C 
ATOM     24  O   UNL     1       3.912   2.064  20.913  0.00  0.00    +0.000 OA
ENDBRANCH  21  24
ENDBRANCH   1  21
TORSDOF 4
ENDMDL
MODEL 5
REMARK VINA RESULT:      -7.4      2.228      4.186
REMARK  Name = 
REMARK  6 active torsions:
REMARK  status: ('A' for Active; 'I' for Inactive)
REMARK    1  A    between atoms: C_1  and  O_2
REMARK    2  A    between atoms: O_2  and  C_3
REMARK    3  A    between atoms: C_3  and  C_5
REMARK    4  A    between atoms: N_13  and  S_14
REMARK    5  A    between atoms: S_14  and  C_17
REMARK    6  A    between atoms: C_20  and  C_21
REMARK                            x       y       z     vdW  Elec       q    Type
REMARK                         _______ _______ _______ _____ _____    ______ ____
ROOT
ATOM      1  C   UNL     1       4.135   3.696  19.422  0.00  0.00    +0.000 C 
ATOM      2  C   UNL     1       3.088   4.224  18.763  0.00  0.00    +0.000 C 
ATOM      3  C   UNL     1       3.192   5.592  18.252  0.00  0.00    +0.000 A 
ATOM      4  C   UNL     1       2.036   6.295  17.894  0.00  0.00    +0.000 A 
ATOM      5  C   UNL     1       2.122   7.628  17.497  0.00  0.00    +0.000 A 
ATOM      6  C   UNL     1       3.361   8.262  17.454  0.00  0.00    +0.000 A 
ATOM      7  C   UNL     1       4.521   7.559  17.791  0.00  0.00    +0.000 A 
ATOM      8  C   UNL     1       4.451   6.216  18.171  0.00  0.00    +0.000 A 
ATOM      9  N   UNL     1       5.619   5.494  18.611  0.00  0.00    +0.000 N 
ATOM     10  C   UNL     1       5.435   4.424  19.623  0.00  0.00    +0.000 C 
ENDROOT
BRANCH   9  11
ATOM     11  S   UNL     1       7.064   5.493  17.724  0.00  0.00    +0.000 S 
ATOM     12  O   UNL     1       7.554   6.837  17.517  0.00  0.00    +0.000 OA
ATOM     13  O   UNL     1       7.915   4.484  18.324  0.00  0.00    +0.000 OA
BRANCH  11  14
ATOM     14  C   UNL     1       6.608   4.879  16.109  0.00  0.00    +0.000 A 
ATOM     15  C   UNL     1       7.346   5.242  14.981  0.00  0.00    +0.000 A 
ATOM     16  C   UNL     1       6.986   4.735  13.726  0.00  0.00    +0.000 A 
ATOM     17  C   UNL     1       5.896   3.862  13.592  0.00  0.00    +0.000 A 
ATOM     18  C   UNL     1       5.492   3.327  12.248  0.00  0.00    +0.000 C 
ATOM     19  C   UNL     1       5.199   3.464  14.739  0.00  0.00    +0.000 A 
ATOM     20  C   UNL     1       5.548   3.972  15.992  0.00  0.00    +0.000 A 
ENDBRANCH  11  14
ENDBRANCH   9  11
BRANCH   1  21
ATOM     21  C   UNL     1       4.065   2.358  20.052  0.00  0.00    +0.000 C 
ATOM     22  O   UNL     1       5.041   1.636  20.186  0.00  0.00    +0.000 OA
BRANCH  21  24
ATOM     23  C   UNL     1       2.363   2.682  21.625  0.00  0.00    +0.000 C 
ATOM     24  O   UNL     1       2.795   2.052  20.418  0.00  0.00    +0.000 OA
ENDBRANCH  21  24
ENDBRANCH   1  21
TORSDOF 4
ENDMDL
MODEL 6
REMARK VINA RESULT:      -7.3      1.028      1.218
REMARK  Name = 
REMARK  6 active torsions:
REMARK  status: ('A' for Active; 'I' for Inactive)
REMARK    1  A    between atoms: C_1  and  O_2
REMARK    2  A    between atoms: O_2  and  C_3
REMARK    3  A    between atoms: C_3  and  C_5
REMARK    4  A    between atoms: N_13  and  S_14
REMARK    5  A    between atoms: S_14  and  C_17
REMARK    6  A    between atoms: C_20  and  C_21
REMARK                            x       y       z     vdW  Elec       q    Type
REMARK                         _______ _______ _______ _____ _____    ______ ____
ROOT
ATOM      1  C   UNL     1       2.030   7.365  19.536  0.00  0.00    +0.000 C 
ATOM      2  C   UNL     1       1.699   6.438  20.452  0.00  0.00    +0.000 C 
ATOM      3  C   UNL     1       2.107   5.050  20.230  0.00  0.00    +0.000 A 
ATOM      4  C   UNL     1       1.490   4.017  20.946  0.00  0.00    +0.000 A 
ATOM      5  C   UNL     1       1.808   2.688  20.670  0.00  0.00    +0.000 A 
ATOM      6  C   UNL     1       2.742   2.387  19.682  0.00  0.00    +0.000 A 
ATOM      7  C   UNL     1       3.376   3.415  18.979  0.00  0.00    +0.000 A 
ATOM      8  C   UNL     1       3.082   4.752  19.259  0.00  0.00    +0.000 A 
ATOM      9  N   UNL     1       3.652   5.828  18.488  0.00  0.00    +0.000 N 
ATOM     10  C   UNL     1       2.843   7.060  18.309  0.00  0.00    +0.000 C 
ENDROOT
BRANCH   9  11
ATOM     11  S   UNL     1       5.316   5.933  18.180  0.00  0.00    +0.000 S 
ATOM     12  O   UNL     1       5.745   7.310  18.076  0.00  0.00    +0.000 OA
ATOM     13  O   UNL     1       5.965   5.029  19.109  0.00  0.00    +0.000 OA
BRANCH  11  14
ATOM     14  C   UNL     1       5.524   5.226  16.552  0.00  0.00    +0.000 A 
ATOM     15  C   UNL     1       5.361   6.017  15.413  0.00  0.00    +0.000 A 
ATOM     16  C   UNL     1       5.548   5.450  14.146  0.00  0.00    +0.000 A 
ATOM     17  C   UNL     1       5.904   4.101  14.010  0.00  0.00    +0.000 A 
ATOM     18  C   UNL     1       6.089   3.480  12.654  0.00  0.00    +0.000 C 
ATOM     19  C   UNL     1       6.117   3.334  15.162  0.00  0.00    +0.000 A 
ATOM     20  C   UNL     1       5.924   3.890  16.428  0.00  0.00    +0.000 A 
ENDBRANCH  11  14
ENDBRANCH   9  11
BRANCH   1  21
ATOM     21  C   UNL     1       1.566   8.768  19.645  0.00  0.00    +0.000 C 
ATOM     22  O   UNL     1       1.608   9.554  18.711  0.00  0.00    +0.000 OA
BRANCH  21  24
ATOM     23  C   UNL     1      -0.081   9.803  20.946  0.00  0.00    +0.000 C 
ATOM     24  O   UNL     1       1.130   9.047  20.898  0.00  0.00    +0.000 OA
ENDBRANCH  21  24
ENDBRANCH   1  21
TORSDOF 4
ENDMDL
MODEL 7
REMARK VINA RESULT:      -7.3      0.883      1.122
REMARK  Name = 
REMARK  6 active torsions:
REMARK  status: ('A' for Active; 'I' for Inactive)
REMARK    1  A    between atoms: C_1  and  O_2
REMARK    2  A    between atoms: O_2  and  C_3
REMARK    3  A    between atoms: C_3  and  C_5
REMARK    4  A    between atoms: N_13  and  S_14
REMARK    5  A    between atoms: S_14  and  C_17
REMARK    6  A    between atoms: C_20  and  C_21
REMARK                            x       y       z     vdW  Elec       q    Type
REMARK                         _______ _______ _______ _____ _____    ______ ____
ROOT
ATOM      1  C   UNL     1       2.200   7.202  19.552  0.00  0.00    +0.000 C 
ATOM      2  C   UNL     1       1.955   6.345  20.559  0.00  0.00    +0.000 C 
ATOM      3  C   UNL     1       2.429   4.965  20.443  0.00  0.00    +0.000 A 
ATOM      4  C   UNL     1       1.896   3.971  21.272  0.00  0.00    +0.000 A 
ATOM      5  C   UNL     1       2.275   2.640  21.102  0.00  0.00    +0.000 A 
ATOM      6  C   UNL     1       3.187   2.299  20.106  0.00  0.00    +0.000 A 
ATOM      7  C   UNL     1       3.737   3.291  19.288  0.00  0.00    +0.000 A 
ATOM      8  C   UNL     1       3.381   4.630  19.462  0.00  0.00    +0.000 A 
ATOM      9  N   UNL     1       3.863   5.660  18.576  0.00  0.00    +0.000 N 
ATOM     10  C   UNL     1       2.983   6.829  18.323  0.00  0.00    +0.000 C 
ENDROOT
BRANCH   9  11
ATOM     11  S   UNL     1       5.507   5.821  18.190  0.00  0.00    +0.000 S 
ATOM     12  O   UNL     1       5.884   7.212  18.070  0.00  0.00    +0.000 OA
ATOM     13  O   UNL     1       6.229   4.938  19.085  0.00  0.00    +0.000 OA
BRANCH  11  14
ATOM     14  C   UNL     1       5.661   5.124  16.552  0.00  0.00    +0.000 A 
ATOM     15  C   UNL     1       5.922   3.764  16.385  0.00  0.00    +0.000 A 
ATOM     16  C   UNL     1       6.020   3.231  15.093  0.00  0.00    +0.000 A 
ATOM     17  C   UNL     1       5.852   4.050  13.967  0.00  0.00    +0.000 A 
ATOM     18  C   UNL     1       5.972   3.492  12.577  0.00  0.00    +0.000 C 
ATOM     19  C   UNL     1       5.537   5.402  14.149  0.00  0.00    +0.000 A 
ATOM     20  C   UNL     1       5.446   5.940  15.434  0.00  0.00    +0.000 A 
ENDBRANCH  11  14
ENDBRANCH   9  11
BRANCH   1  21
ATOM     21  C   UNL     1       1.666   8.583  19.556  0.00  0.00    +0.000 C 
ATOM     22  O   UNL     1       1.026   9.044  20.488  0.00  0.00    +0.000 OA
BRANCH  21  24
ATOM     23  C   UNL     1       1.519  10.585  18.354  0.00  0.00    +0.000 C 
ATOM     24  O   UNL     1       1.958   9.227  18.398  0.00  0.00    +0.000 OA
ENDBRANCH  21  24
ENDBRANCH   1  21
TORSDOF 4
ENDMDL
MODEL 8
REMARK VINA RESULT:      -7.2      2.265      3.033
REMARK  Name = 
REMARK  6 active torsions:
REMARK  status: ('A' for Active; 'I' for Inactive)
REMARK    1  A    between atoms: C_1  and  O_2
REMARK    2  A    between atoms: O_2  and  C_3
REMARK    3  A    between atoms: C_3  and  C_5
REMARK    4  A    between atoms: N_13  and  S_14
REMARK    5  A    between atoms: S_14  and  C_17
REMARK    6  A    between atoms: C_20  and  C_21
REMARK                            x       y       z     vdW  Elec       q    Type
REMARK                         _______ _______ _______ _____ _____    ______ ____
ROOT
ATOM      1  C   UNL     1       2.612   6.782  18.572  0.00  0.00    +0.000 C 
ATOM      2  C   UNL     1       2.166   6.344  19.762  0.00  0.00    +0.000 C 
ATOM      3  C   UNL     1       2.170   4.904  20.030  0.00  0.00    +0.000 A 
ATOM      4  C   UNL     1       1.399   4.386  21.077  0.00  0.00    +0.000 A 
ATOM      5  C   UNL     1       1.325   3.009  21.277  0.00  0.00    +0.000 A 
ATOM      6  C   UNL     1       2.021   2.146  20.434  0.00  0.00    +0.000 A 
ATOM      7  C   UNL     1       2.809   2.659  19.400  0.00  0.00    +0.000 A 
ATOM      8  C   UNL     1       2.908   4.038  19.202  0.00  0.00    +0.000 A 
ATOM      9  N   UNL     1       3.639   4.591  18.089  0.00  0.00    +0.000 N 
ATOM     10  C   UNL     1       3.162   5.871  17.509  0.00  0.00    +0.000 C 
ENDROOT
BRANCH   9  11
ATOM     11  S   UNL     1       5.224   4.109  17.723  0.00  0.00    +0.000 S 
ATOM     12  O   UNL     1       5.746   3.213  18.731  0.00  0.00    +0.000 OA
ATOM     13  O   UNL     1       5.226   3.724  16.326  0.00  0.00    +0.000 OA
BRANCH  11  14
ATOM     14  C   UNL     1       6.195   5.604  17.842  0.00  0.00    +0.000 A 
ATOM     15  C   UNL     1       7.230   5.701  18.772  0.00  0.00    +0.000 A 
ATOM     16  C   UNL     1       7.994   6.874  18.836  0.00  0.00    +0.000 A 
ATOM     17  C   UNL     1       7.732   7.947  17.972  0.00  0.00    +0.000 A 
ATOM     18  C   UNL     1       8.535   9.215  18.046  0.00  0.00    +0.000 C 
ATOM     19  C   UNL     1       6.726   7.815  17.008  0.00  0.00    +0.000 A 
ATOM     20  C   UNL     1       5.956   6.652  16.944  0.00  0.00    +0.000 A 
ENDBRANCH  11  14
ENDBRANCH   9  11
BRANCH   1  21
ATOM     21  C   UNL     1       2.544   8.213  18.193  0.00  0.00    +0.000 C 
ATOM     22  O   UNL     1       3.150   8.675  17.239  0.00  0.00    +0.000 OA
BRANCH  21  24
ATOM     23  C   UNL     1       0.816   9.775  18.415  0.00  0.00    +0.000 C 
ATOM     24  O   UNL     1       1.761   8.912  19.052  0.00  0.00    +0.000 OA
ENDBRANCH  21  24
ENDBRANCH   1  21
TORSDOF 4
ENDMDL
MODEL 9
REMARK VINA RESULT:      -7.2      2.117      6.521
REMARK  Name = 
REMARK  6 active torsions:
REMARK  status: ('A' for Active; 'I' for Inactive)
REMARK    1  A    between atoms: C_1  and  O_2
REMARK    2  A    between atoms: O_2  and  C_3
REMARK    3  A    between atoms: C_3  and  C_5
REMARK    4  A    between atoms: N_13  and  S_14
REMARK    5  A    between atoms: S_14  and  C_17
REMARK    6  A    between atoms: C_20  and  C_21
REMARK                            x       y       z     vdW  Elec       q    Type
REMARK                         _______ _______ _______ _____ _____    ______ ____
ROOT
ATOM      1  C   UNL     1       5.524   4.776  18.899  0.00  0.00    +0.000 C 
ATOM      2  C   UNL     1       4.901   3.584  18.851  0.00  0.00    +0.000 C 
ATOM      3  C   UNL     1       3.498   3.505  19.260  0.00  0.00    +0.000 A 
ATOM      4  C   UNL     1       2.929   2.265  19.569  0.00  0.00    +0.000 A 
ATOM      5  C   UNL     1       1.622   2.194  20.049  0.00  0.00    +0.000 A 
ATOM      6  C   UNL     1       0.880   3.360  20.219  0.00  0.00    +0.000 A 
ATOM      7  C   UNL     1       1.436   4.600  19.891  0.00  0.00    +0.000 A 
ATOM      8  C   UNL     1       2.738   4.683  19.391  0.00  0.00    +0.000 A 
ATOM      9  N   UNL     1       3.367   5.953  19.131  0.00  0.00    +0.000 N 
ATOM     10  C   UNL     1       4.839   6.050  19.307  0.00  0.00    +0.000 C 
ENDROOT
BRANCH   9  11
ATOM     11  S   UNL     1       2.606   7.168  18.225  0.00  0.00    +0.000 S 
ATOM     12  O   UNL     1       3.575   8.036  17.592  0.00  0.00    +0.000 OA
ATOM     13  O   UNL     1       1.580   6.514  17.438  0.00  0.00    +0.000 OA
BRANCH  11  14
ATOM     14  C   UNL     1       1.757   8.175  19.434  0.00  0.00    +0.000 A 
ATOM     15  C   UNL     1       1.746   7.803  20.779  0.00  0.00    +0.000 A 
ATOM     16  C   UNL     1       1.093   8.616  21.714  0.00  0.00    +0.000 A 
ATOM     17  C   UNL     1       0.456   9.800  21.314  0.00  0.00    +0.000 A 
ATOM     18  C   UNL     1      -0.262  10.668  22.308  0.00  0.00    +0.000 C 
ATOM     19  C   UNL     1       0.522  10.188  19.971  0.00  0.00    +0.000 A 
ATOM     20  C   UNL     1       1.165   9.378  19.032  0.00  0.00    +0.000 A 
ENDBRANCH  11  14
ENDBRANCH   9  11
BRANCH   1  21
ATOM     21  C   UNL     1       6.968   4.913  18.596  0.00  0.00    +0.000 C 
ATOM     22  O   UNL     1       7.771   5.373  19.393  0.00  0.00    +0.000 OA
BRANCH  21  24
ATOM     23  C   UNL     1       6.917   5.435  16.316  0.00  0.00    +0.000 C 
ATOM     24  O   UNL     1       7.249   4.493  17.338  0.00  0.00    +0.000 OA
ENDBRANCH  21  24
ENDBRANCH   1  21
TORSDOF 4
ENDMDL
