MODEL 1
REMARK VINA RESULT:      -7.3      0.000      0.000
REMARK  Name = 
REMARK  1 active torsions:
REMARK  status: ('A' for Active; 'I' for Inactive)
REMARK    1  A    between atoms: C_1  and  N_2
REMARK                            x       y       z     vdW  Elec       q    Type
REMARK                         _______ _______ _______ _____ _____    ______ ____
ROOT
ATOM      1  C   UNL     1       2.669   7.134  17.571  0.00  0.00    +0.000 C 
ATOM      2  N   UNL     1       3.189   5.814  17.896  0.00  0.00    +0.000 N 
ATOM      3  C   UNL     1       2.223   4.824  18.046  0.00  0.00    +0.000 C 
ATOM      4  O   UNL     1       1.157   4.803  17.432  0.00  0.00    +0.000 OA
ATOM      5  C   UNL     1       2.363   3.953  19.216  0.00  0.00    +0.000 A 
ATOM      6  C   UNL     1       1.290   3.904  20.116  0.00  0.00    +0.000 A 
ATOM      7  C   UNL     1       1.417   3.194  21.307  0.00  0.00    +0.000 A 
ATOM      8  C   UNL     1       2.606   2.520  21.583  0.00  0.00    +0.000 A 
ATOM      9  C   UNL     1       3.663   2.545  20.664  0.00  0.00    +0.000 A 
ATOM     10  C   UNL     1       3.539   3.278  19.482  0.00  0.00    +0.000 A 
ATOM     11  O   UNL     1       4.542   3.212  18.559  0.00  0.00    +0.000 OA
ATOM     12  C   UNL     1       5.218   4.384  18.328  0.00  0.00    +0.000 A 
ATOM     13  N   UNL     1       6.566   4.185  18.334  0.00  0.00    +0.000 NA
ATOM     14  C   UNL     1       7.358   5.238  18.055  0.00  0.00    +0.000 A 
ATOM     15  C   UNL     1       6.870   6.494  17.774  0.00  0.00    +0.000 A 
ATOM     16  C   UNL     1       5.487   6.678  17.767  0.00  0.00    +0.000 A 
ATOM     17  C   UNL     1       4.606   5.613  18.034  0.00  0.00    +0.000 A 
ENDROOT
TORSDOF 0
ENDMDL
MODEL 2
REMARK VINA RESULT:      -7.2      1.840      3.676
REMARK  Name = 
REMARK  1 active torsions:
REMARK  status: ('A' for Active; 'I' for Inactive)
REMARK    1  A    between atoms: C_1  and  N_2
REMARK                            x       y       z     vdW  Elec       q    Type
REMARK                         _______ _______ _______ _____ _____    ______ ____
ROOT
ATOM      1  C   UNL     1       4.855   5.991  16.854  0.00  0.00    +0.000 C 
ATOM      2  N   UNL     1       4.094   5.911  18.091  0.00  0.00    +0.000 N 
ATOM      3  C   UNL     1       4.379   4.802  18.883  0.00  0.00    +0.000 C 
ATOM      4  O   UNL     1       5.484   4.262  18.939  0.00  0.00    +0.000 OA
ATOM      5  C   UNL     1       3.227   4.075  19.421  0.00  0.00    +0.000 A 
ATOM      6  C   UNL     1       3.115   2.716  19.100  0.00  0.00    +0.000 A 
ATOM      7  C   UNL     1       1.976   2.007  19.477  0.00  0.00    +0.000 A 
ATOM      8  C   UNL     1       0.968   2.654  20.191  0.00  0.00    +0.000 A 
ATOM      9  C   UNL     1       1.102   4.004  20.538  0.00  0.00    +0.000 A 
ATOM     10  C   UNL     1       2.234   4.716  20.137  0.00  0.00    +0.000 A 
ATOM     11  O   UNL     1       2.389   6.003  20.566  0.00  0.00    +0.000 OA
ATOM     12  C   UNL     1       2.362   6.965  19.587  0.00  0.00    +0.000 A 
ATOM     13  N   UNL     1       1.552   8.002  19.938  0.00  0.00    +0.000 NA
ATOM     14  C   UNL     1       1.479   9.054  19.099  0.00  0.00    +0.000 A 
ATOM     15  C   UNL     1       2.176   9.122  17.914  0.00  0.00    +0.000 A 
ATOM     16  C   UNL     1       3.006   8.053  17.575  0.00  0.00    +0.000 A 
ATOM     17  C   UNL     1       3.138   6.933  18.417  0.00  0.00    +0.000 A 
ENDROOT
TORSDOF 0
ENDMDL
MODEL 3
REMARK VINA RESULT:      -6.8      1.762      2.162
REMARK  Name = 
REMARK  1 active torsions:
REMARK  status: ('A' for Active; 'I' for Inactive)
REMARK    1  A    between atoms: C_1  and  N_2
REMARK                            x       y       z     vdW  Elec       q    Type
REMARK                         _______ _______ _______ _____ _____    ______ ____
ROOT
ATOM      1  C   UNL     1       5.220   6.155  15.451  0.00  0.00    +0.000 C 
ATOM      2  N   UNL     1       5.242   5.353  16.665  0.00  0.00    +0.000 N 
ATOM      3  C   UNL     1       4.330   4.302  16.689  0.00  0.00    +0.000 C 
ATOM      4  O   UNL     1       3.963   3.686  15.689  0.00  0.00    +0.000 OA
ATOM      5  C   UNL     1       3.551   4.146  17.920  0.00  0.00    +0.000 A 
ATOM      6  C   UNL     1       2.155   4.194  17.810  0.00  0.00    +0.000 A 
ATOM      7  C   UNL     1       1.369   4.180  18.960  0.00  0.00    +0.000 A 
ATOM      8  C   UNL     1       1.980   4.096  20.211  0.00  0.00    +0.000 A 
ATOM      9  C   UNL     1       3.375   4.014  20.312  0.00  0.00    +0.000 A 
ATOM     10  C   UNL     1       4.159   4.053  19.157  0.00  0.00    +0.000 A 
ATOM     11  O   UNL     1       5.508   3.877  19.271  0.00  0.00    +0.000 OA
ATOM     12  C   UNL     1       6.282   4.958  18.926  0.00  0.00    +0.000 A 
ATOM     13  N   UNL     1       7.241   5.195  19.863  0.00  0.00    +0.000 NA
ATOM     14  C   UNL     1       8.120   6.189  19.624  0.00  0.00    +0.000 A 
ATOM     15  C   UNL     1       8.085   6.968  18.490  0.00  0.00    +0.000 A 
ATOM     16  C   UNL     1       7.099   6.705  17.539  0.00  0.00    +0.000 A 
ATOM     17  C   UNL     1       6.163   5.671  17.722  0.00  0.00    +0.000 A 
ENDROOT
TORSDOF 0
ENDMDL
MODEL 4
REMARK VINA RESULT:      -6.7      1.973      4.973
REMARK  Name = 
REMARK  1 active torsions:
REMARK  status: ('A' for Active; 'I' for Inactive)
REMARK    1  A    between atoms: C_1  and  N_2
REMARK                            x       y       z     vdW  Elec       q    Type
REMARK                         _______ _______ _______ _____ _____    ______ ____
ROOT
ATOM      1  C   UNL     1       2.403   5.154  20.769  0.00  0.00    +0.000 C 
ATOM      2  N   UNL     1       2.933   5.702  19.529  0.00  0.00    +0.000 N 
ATOM      3  C   UNL     1       3.767   4.844  18.819  0.00  0.00    +0.000 C 
ATOM      4  O   UNL     1       3.653   3.619  18.815  0.00  0.00    +0.000 OA
ATOM      5  C   UNL     1       5.016   5.422  18.315  0.00  0.00    +0.000 A 
ATOM      6  C   UNL     1       6.215   4.826  18.727  0.00  0.00    +0.000 A 
ATOM      7  C   UNL     1       7.432   5.409  18.383  0.00  0.00    +0.000 A 
ATOM      8  C   UNL     1       7.445   6.572  17.613  0.00  0.00    +0.000 A 
ATOM      9  C   UNL     1       6.243   7.145  17.177  0.00  0.00    +0.000 A 
ATOM     10  C   UNL     1       5.025   6.569  17.544  0.00  0.00    +0.000 A 
ATOM     11  O   UNL     1       3.871   7.087  17.031  0.00  0.00    +0.000 OA
ATOM     12  C   UNL     1       3.016   7.657  17.942  0.00  0.00    +0.000 A 
ATOM     13  N   UNL     1       2.575   8.871  17.510  0.00  0.00    +0.000 NA
ATOM     14  C   UNL     1       1.675   9.520  18.274  0.00  0.00    +0.000 A 
ATOM     15  C   UNL     1       1.193   9.017  19.461  0.00  0.00    +0.000 A 
ATOM     16  C   UNL     1       1.652   7.769  19.884  0.00  0.00    +0.000 A 
ATOM     17  C   UNL     1       2.579   7.034  19.122  0.00  0.00    +0.000 A 
ENDROOT
TORSDOF 0
ENDMDL
MODEL 5
REMARK VINA RESULT:      -6.6      1.868      4.931
REMARK  Name = 
REMARK  1 active torsions:
REMARK  status: ('A' for Active; 'I' for Inactive)
REMARK    1  A    between atoms: C_1  and  N_2
REMARK                            x       y       z     vdW  Elec       q    Type
REMARK                         _______ _______ _______ _____ _____    ______ ____
ROOT
ATOM      1  C   UNL     1       2.833   3.476  20.303  0.00  0.00    +0.000 C 
ATOM      2  N   UNL     1       3.127   4.493  19.305  0.00  0.00    +0.000 N 
ATOM      3  C   UNL     1       3.847   4.042  18.203  0.00  0.00    +0.000 C 
ATOM      4  O   UNL     1       3.763   2.903  17.745  0.00  0.00    +0.000 OA
ATOM      5  C   UNL     1       4.976   4.875  17.780  0.00  0.00    +0.000 A 
ATOM      6  C   UNL     1       6.242   4.275  17.745  0.00  0.00    +0.000 A 
ATOM      7  C   UNL     1       7.368   5.050  17.474  0.00  0.00    +0.000 A 
ATOM      8  C   UNL     1       7.220   6.413  17.218  0.00  0.00    +0.000 A 
ATOM      9  C   UNL     1       5.948   6.999  17.222  0.00  0.00    +0.000 A 
ATOM     10  C   UNL     1       4.825   6.223  17.517  0.00  0.00    +0.000 A 
ATOM     11  O   UNL     1       3.588   6.792  17.422  0.00  0.00    +0.000 OA
ATOM     12  C   UNL     1       2.890   6.901  18.600  0.00  0.00    +0.000 A 
ATOM     13  N   UNL     1       2.352   8.144  18.740  0.00  0.00    +0.000 NA
ATOM     14  C   UNL     1       1.582   8.378  19.820  0.00  0.00    +0.000 A 
ATOM     15  C   UNL     1       1.323   7.425  20.780  0.00  0.00    +0.000 A 
ATOM     16  C   UNL     1       1.878   6.155  20.616  0.00  0.00    +0.000 A 
ATOM     17  C   UNL     1       2.677   5.845  19.500  0.00  0.00    +0.000 A 
ENDROOT
TORSDOF 0
ENDMDL
MODEL 6
REMARK VINA RESULT:      -6.6      2.241      4.752
REMARK  Name = 
REMARK  1 active torsions:
REMARK  status: ('A' for Active; 'I' for Inactive)
REMARK    1  A    between atoms: C_1  and  N_2
REMARK                            x       y       z     vdW  Elec       q    Type
REMARK                         _______ _______ _______ _____ _____    ______ ____
ROOT
ATOM      1  C   UNL     1       2.228   7.145  18.169  0.00  0.00    +0.000 C 
ATOM      2  N   UNL     1       3.219   6.080  18.149  0.00  0.00    +0.000 N 
ATOM      3  C   UNL     1       4.461   6.446  17.639  0.00  0.00    +0.000 C 
ATOM      4  O   UNL     1       4.942   7.574  17.740  0.00  0.00    +0.000 OA
ATOM      5  C   UNL     1       5.066   5.522  16.676  0.00  0.00    +0.000 A 
ATOM      6  C   UNL     1       5.378   6.027  15.407  0.00  0.00    +0.000 A 
ATOM      7  C   UNL     1       5.836   5.165  14.412  0.00  0.00    +0.000 A 
ATOM      8  C   UNL     1       5.998   3.810  14.697  0.00  0.00    +0.000 A 
ATOM      9  C   UNL     1       5.715   3.317  15.977  0.00  0.00    +0.000 A 
ATOM     10  C   UNL     1       5.235   4.181  16.964  0.00  0.00    +0.000 A 
ATOM     11  O   UNL     1       5.056   3.701  18.229  0.00  0.00    +0.000 OA
ATOM     12  C   UNL     1       3.759   3.677  18.680  0.00  0.00    +0.000 A 
ATOM     13  N   UNL     1       3.461   2.480  19.258  0.00  0.00    +0.000 NA
ATOM     14  C   UNL     1       2.239   2.335  19.807  0.00  0.00    +0.000 A 
ATOM     15  C   UNL     1       1.288   3.331  19.804  0.00  0.00    +0.000 A 
ATOM     16  C   UNL     1       1.615   4.552  19.213  0.00  0.00    +0.000 A 
ATOM     17  C   UNL     1       2.880   4.771  18.637  0.00  0.00    +0.000 A 
ENDROOT
TORSDOF 0
ENDMDL
MODEL 7
REMARK VINA RESULT:      -6.5      2.339      4.135
REMARK  Name = 
REMARK  1 active torsions:
REMARK  status: ('A' for Active; 'I' for Inactive)
REMARK    1  A    between atoms: C_1  and  N_2
REMARK                            x       y       z     vdW  Elec       q    Type
REMARK                         _______ _______ _______ _____ _____    ______ ____
ROOT
ATOM      1  C   UNL     1       3.824   7.359  17.049  0.00  0.00    +0.000 C 
ATOM      2  N   UNL     1       3.284   6.776  18.268  0.00  0.00    +0.000 N 
ATOM      3  C   UNL     1       3.765   5.507  18.575  0.00  0.00    +0.000 C 
ATOM      4  O   UNL     1       4.895   5.112  18.291  0.00  0.00    +0.000 OA
ATOM      5  C   UNL     1       2.766   4.512  18.971  0.00  0.00    +0.000 A 
ATOM      6  C   UNL     1       2.688   3.338  18.210  0.00  0.00    +0.000 A 
ATOM      7  C   UNL     1       1.675   2.416  18.461  0.00  0.00    +0.000 A 
ATOM      8  C   UNL     1       0.758   2.661  19.483  0.00  0.00    +0.000 A 
ATOM      9  C   UNL     1       0.861   3.821  20.262  0.00  0.00    +0.000 A 
ATOM     10  C   UNL     1       1.865   4.753  19.991  0.00  0.00    +0.000 A 
ATOM     11  O   UNL     1       2.006   5.828  20.820  0.00  0.00    +0.000 OA
ATOM     12  C   UNL     1       1.758   7.055  20.254  0.00  0.00    +0.000 A 
ATOM     13  N   UNL     1       0.952   7.810  21.050  0.00  0.00    +0.000 NA
ATOM     14  C   UNL     1       0.676   9.068  20.653  0.00  0.00    +0.000 A 
ATOM     15  C   UNL     1       1.164   9.613  19.486  0.00  0.00    +0.000 A 
ATOM     16  C   UNL     1       1.992   8.825  18.686  0.00  0.00    +0.000 A 
ATOM     17  C   UNL     1       2.331   7.510  19.055  0.00  0.00    +0.000 A 
ENDROOT
TORSDOF 0
ENDMDL
MODEL 8
REMARK VINA RESULT:      -6.5      2.004      4.615
REMARK  Name = 
REMARK  1 active torsions:
REMARK  status: ('A' for Active; 'I' for Inactive)
REMARK    1  A    between atoms: C_1  and  N_2
REMARK                            x       y       z     vdW  Elec       q    Type
REMARK                         _______ _______ _______ _____ _____    ______ ____
ROOT
ATOM      1  C   UNL     1       1.845   6.057  18.231  0.00  0.00    +0.000 C 
ATOM      2  N   UNL     1       3.224   5.599  18.317  0.00  0.00    +0.000 N 
ATOM      3  C   UNL     1       4.154   6.418  17.684  0.00  0.00    +0.000 C 
ATOM      4  O   UNL     1       4.039   7.638  17.581  0.00  0.00    +0.000 OA
ATOM      5  C   UNL     1       5.145   5.744  16.842  0.00  0.00    +0.000 A 
ATOM      6  C   UNL     1       5.208   6.121  15.494  0.00  0.00    +0.000 A 
ATOM      7  C   UNL     1       6.041   5.427  14.619  0.00  0.00    +0.000 A 
ATOM      8  C   UNL     1       6.821   4.376  15.100  0.00  0.00    +0.000 A 
ATOM      9  C   UNL     1       6.778   4.026  16.455  0.00  0.00    +0.000 A 
ATOM     10  C   UNL     1       5.925   4.709  17.323  0.00  0.00    +0.000 A 
ATOM     11  O   UNL     1       5.968   4.417  18.655  0.00  0.00    +0.000 OA
ATOM     12  C   UNL     1       4.828   3.858  19.181  0.00  0.00    +0.000 A 
ATOM     13  N   UNL     1       5.122   2.776  19.953  0.00  0.00    +0.000 NA
ATOM     14  C   UNL     1       4.104   2.163  20.590  0.00  0.00    +0.000 A 
ATOM     15  C   UNL     1       2.794   2.578  20.488  0.00  0.00    +0.000 A 
ATOM     16  C   UNL     1       2.515   3.692  19.697  0.00  0.00    +0.000 A 
ATOM     17  C   UNL     1       3.536   4.385  19.021  0.00  0.00    +0.000 A 
ENDROOT
TORSDOF 0
ENDMDL
MODEL 9
REMARK VINA RESULT:      -6.4      1.891      2.089
REMARK  Name = 
REMARK  1 active torsions:
REMARK  status: ('A' for Active; 'I' for Inactive)
REMARK    1  A    between atoms: C_1  and  N_2
REMARK                            x       y       z     vdW  Elec       q    Type
REMARK                         _______ _______ _______ _____ _____    ______ ____
ROOT
ATOM      1  C   UNL     1       4.699   4.294  15.449  0.00  0.00    +0.000 C 
ATOM      2  N   UNL     1       4.768   4.079  16.886  0.00  0.00    +0.000 N 
ATOM      3  C   UNL     1       3.886   3.123  17.379  0.00  0.00    +0.000 C 
ATOM      4  O   UNL     1       3.514   2.137  16.744  0.00  0.00    +0.000 OA
ATOM      5  C   UNL     1       3.137   3.490  18.584  0.00  0.00    +0.000 A 
ATOM      6  C   UNL     1       1.739   3.466  18.508  0.00  0.00    +0.000 A 
ATOM      7  C   UNL     1       0.978   3.926  19.580  0.00  0.00    +0.000 A 
ATOM      8  C   UNL     1       1.618   4.388  20.730  0.00  0.00    +0.000 A 
ATOM      9  C   UNL     1       3.016   4.378  20.813  0.00  0.00    +0.000 A 
ATOM     10  C   UNL     1       3.775   3.938  19.726  0.00  0.00    +0.000 A 
ATOM     11  O   UNL     1       5.130   3.847  19.862  0.00  0.00    +0.000 OA
ATOM     12  C   UNL     1       5.867   4.693  19.069  0.00  0.00    +0.000 A 
ATOM     13  N   UNL     1       6.839   5.319  19.789  0.00  0.00    +0.000 NA
ATOM     14  C   UNL     1       7.685   6.132  19.126  0.00  0.00    +0.000 A 
ATOM     15  C   UNL     1       7.605   6.358  17.770  0.00  0.00    +0.000 A 
ATOM     16  C   UNL     1       6.607   5.703  17.050  0.00  0.00    +0.000 A 
ATOM     17  C   UNL     1       5.703   4.828  17.682  0.00  0.00    +0.000 A 
ENDROOT
TORSDOF 0
ENDMDL
