MODEL 1
REMARK VINA RESULT:      -9.0      0.000      0.000
REMARK  Name = 
REMARK  11 active torsions:
REMARK  status: ('A' for Active; 'I' for Inactive)
REMARK    1  A    between atoms: C_1  and  C_2
REMARK    2  A    between atoms: C_3  and  O_4
REMARK    3  A    between atoms: O_4  and  C_5
REMARK    4  A    between atoms: C_5  and  C_6
REMARK    5  A    between atoms: N_8  and  C_9
REMARK    6  A    between atoms: C_19  and  C_20
REMARK    7  A    between atoms: N_22  and  C_23
REMARK    8  A    between atoms: C_27  and  C_28
REMARK    9  A    between atoms: C_28  and  C_29
REMARK   10  A    between atoms: C_29  and  O_31
REMARK   11  A    between atoms: C_33  and  C_34
REMARK                            x       y       z     vdW  Elec       q    Type
REMARK                         _______ _______ _______ _____ _____    ______ ____
ROOT
ATOM      1  C   UNL     1       0.123   9.005  21.474  0.00  0.00    +0.000 C 
ATOM      2  C   UNL     1       0.865   8.997  20.155  0.00  0.00    +0.000 A 
ATOM      3  C   UNL     1       0.767  10.079  19.250  0.00  0.00    +0.000 A 
ATOM      4  C   UNL     1       1.482  10.020  18.043  0.00  0.00    +0.000 A 
ATOM      5  C   UNL     1       2.278   8.930  17.718  0.00  0.00    +0.000 A 
ATOM      6  C   UNL     1       2.380   7.853  18.598  0.00  0.00    +0.000 A 
ATOM      7  C   UNL     1       1.659   7.854  19.816  0.00  0.00    +0.000 A 
ATOM      8  C   UNL     1       1.706   6.682  20.771  0.00  0.00    +0.000 C 
ENDROOT
BRANCH   6   9
ATOM      9  C   UNL     1       3.165   6.692  18.111  0.00  0.00    +0.000 C 
ATOM     10  O   UNL     1       2.576   5.615  18.020  0.00  0.00    +0.000 OA
ATOM     11  N   UNL     1       4.486   6.950  17.758  0.00  0.00    +0.000 N 
ATOM     12  H   UNL     1       4.833   7.890  17.906  0.00  0.00    +0.000 HD
BRANCH  11  13
ATOM     13  C   UNL     1       5.422   5.996  17.290  0.00  0.00    +0.000 A 
ATOM     14  C   UNL     1       6.503   5.564  18.061  0.00  0.00    +0.000 A 
ATOM     15  C   UNL     1       7.450   4.686  17.538  0.00  0.00    +0.000 A 
ATOM     16  C   UNL     1       7.317   4.208  16.241  0.00  0.00    +0.000 A 
ATOM     17  C   UNL     1       6.220   4.582  15.455  0.00  0.00    +0.000 A 
ATOM     18  C   UNL     1       5.277   5.488  15.988  0.00  0.00    +0.000 A 
BRANCH  17  19
ATOM     19  C   UNL     1       6.164   4.086  14.026  0.00  0.00    +0.000 C 
BRANCH  19  20
ATOM     20  C   UNL     1       7.187   4.673  13.086  0.00  0.00    +0.000 C 
ATOM     21  O   UNL     1       7.306   4.343  11.916  0.00  0.00    +0.000 OA
BRANCH  20  22
ATOM     22  O   UNL     1       7.952   5.643  13.643  0.00  0.00    +0.000 OA
ATOM     23  H   UNL     1       7.759   6.536  13.296  0.00  0.00    +0.000 HD
ENDBRANCH  20  22
ENDBRANCH  19  20
ENDBRANCH  17  19
ENDBRANCH  11  13
ENDBRANCH   6   9
BRANCH   3  24
ATOM     24  O   UNL     1      -0.045  11.151  19.575  0.00  0.00    +0.000 OA
BRANCH  24  25
ATOM     25  C   UNL     1      -0.871  11.612  18.495  0.00  0.00    +0.000 C 
BRANCH  25  26
ATOM     26  C   UNL     1      -2.192  12.254  18.911  0.00  0.00    +0.000 C 
ATOM     27  C   UNL     1      -2.439  12.107  20.408  0.00  0.00    +0.000 C 
ATOM     28  N   UNL     1      -3.721  12.737  20.760  0.00  0.00    +0.000 N 
ATOM     29  C   UNL     1      -4.027  12.748  22.187  0.00  0.00    +0.000 C 
ATOM     30  C   UNL     1      -4.759  12.382  19.869  0.00  0.00    +0.000 A 
ATOM     31  C   UNL     1      -6.110  12.644  20.150  0.00  0.00    +0.000 A 
ATOM     32  C   UNL     1      -7.134  12.249  19.278  0.00  0.00    +0.000 A 
ATOM     33  C   UNL     1      -6.831  11.582  18.097  0.00  0.00    +0.000 A 
ATOM     34  C   UNL     1      -5.500  11.352  17.766  0.00  0.00    +0.000 A 
ATOM     35  C   UNL     1      -4.480  11.780  18.622  0.00  0.00    +0.000 A 
ATOM     36  O   UNL     1      -3.206  11.544  18.163  0.00  0.00    +0.000 OA
ENDBRANCH  25  26
ENDBRANCH  24  25
ENDBRANCH   3  24
TORSDOF 8
ENDMDL
MODEL 2
REMARK VINA RESULT:      -8.7      2.233      3.050
REMARK  Name = 
REMARK  11 active torsions:
REMARK  status: ('A' for Active; 'I' for Inactive)
REMARK    1  A    between atoms: C_1  and  C_2
REMARK    2  A    between atoms: C_3  and  O_4
REMARK    3  A    between atoms: O_4  and  C_5
REMARK    4  A    between atoms: C_5  and  C_6
REMARK    5  A    between atoms: N_8  and  C_9
REMARK    6  A    between atoms: C_19  and  C_20
REMARK    7  A    between atoms: N_22  and  C_23
REMARK    8  A    between atoms: C_27  and  C_28
REMARK    9  A    between atoms: C_28  and  C_29
REMARK   10  A    between atoms: C_29  and  O_31
REMARK   11  A    between atoms: C_33  and  C_34
REMARK                            x       y       z     vdW  Elec       q    Type
REMARK                         _______ _______ _______ _____ _____    ______ ____
ROOT
ATOM      1  C   UNL     1      -0.181   9.845  22.776  0.00  0.00    +0.000 C 
ATOM      2  C   UNL     1       0.268  10.192  21.373  0.00  0.00    +0.000 A 
ATOM      3  C   UNL     1       0.024  11.470  20.818  0.00  0.00    +0.000 A 
ATOM      4  C   UNL     1       0.468  11.738  19.514  0.00  0.00    +0.000 A 
ATOM      5  C   UNL     1       1.136  10.784  18.759  0.00  0.00    +0.000 A 
ATOM      6  C   UNL     1       1.378   9.518  19.289  0.00  0.00    +0.000 A 
ATOM      7  C   UNL     1       0.929   9.190  20.591  0.00  0.00    +0.000 A 
ATOM      8  C   UNL     1       1.129   7.811  21.180  0.00  0.00    +0.000 C 
ENDROOT
BRANCH   6   9
ATOM      9  C   UNL     1       1.998   8.536  18.365  0.00  0.00    +0.000 C 
ATOM     10  O   UNL     1       2.253   8.922  17.225  0.00  0.00    +0.000 OA
ATOM     11  N   UNL     1       2.274   7.281  18.900  0.00  0.00    +0.000 N 
ATOM     12  H   UNL     1       1.987   7.109  19.856  0.00  0.00    +0.000 HD
BRANCH  11  13
ATOM     13  C   UNL     1       2.842   6.188  18.202  0.00  0.00    +0.000 A 
ATOM     14  C   UNL     1       2.184   4.965  18.060  0.00  0.00    +0.000 A 
ATOM     15  C   UNL     1       2.807   3.884  17.437  0.00  0.00    +0.000 A 
ATOM     16  C   UNL     1       4.091   4.019  16.927  0.00  0.00    +0.000 A 
ATOM     17  C   UNL     1       4.764   5.246  17.009  0.00  0.00    +0.000 A 
ATOM     18  C   UNL     1       4.131   6.327  17.659  0.00  0.00    +0.000 A 
BRANCH  17  19
ATOM     19  C   UNL     1       6.187   5.315  16.498  0.00  0.00    +0.000 C 
BRANCH  19  20
ATOM     20  C   UNL     1       7.260   5.410  17.554  0.00  0.00    +0.000 C 
ATOM     21  O   UNL     1       7.663   6.464  18.022  0.00  0.00    +0.000 OA
BRANCH  20  22
ATOM     22  O   UNL     1       7.722   4.209  17.978  0.00  0.00    +0.000 OA
ATOM     23  H   UNL     1       7.071   3.709  18.508  0.00  0.00    +0.000 HD
ENDBRANCH  20  22
ENDBRANCH  19  20
ENDBRANCH  17  19
ENDBRANCH  11  13
ENDBRANCH   6   9
BRANCH   3  24
ATOM     24  O   UNL     1      -0.660  12.407  21.573  0.00  0.00    +0.000 OA
BRANCH  24  25
ATOM     25  C   UNL     1      -1.608  13.184  20.826  0.00  0.00    +0.000 C 
BRANCH  25  26
ATOM     26  C   UNL     1      -2.954  13.407  21.510  0.00  0.00    +0.000 C 
ATOM     27  C   UNL     1      -3.017  12.705  22.862  0.00  0.00    +0.000 C 
ATOM     28  N   UNL     1      -4.330  12.944  23.481  0.00  0.00    +0.000 N 
ATOM     29  C   UNL     1      -4.482  12.402  24.827  0.00  0.00    +0.000 C 
ATOM     30  C   UNL     1      -5.397  12.755  22.573  0.00  0.00    +0.000 A 
ATOM     31  C   UNL     1      -6.734  12.668  22.995  0.00  0.00    +0.000 A 
ATOM     32  C   UNL     1      -7.779  12.438  22.090  0.00  0.00    +0.000 A 
ATOM     33  C   UNL     1      -7.513  12.289  20.734  0.00  0.00    +0.000 A 
ATOM     34  C   UNL     1      -6.205  12.418  20.278  0.00  0.00    +0.000 A 
ATOM     35  C   UNL     1      -5.170  12.684  21.180  0.00  0.00    +0.000 A 
ATOM     36  O   UNL     1      -3.932  12.843  20.606  0.00  0.00    +0.000 OA
ENDBRANCH  25  26
ENDBRANCH  24  25
ENDBRANCH   3  24
TORSDOF 8
ENDMDL
MODEL 3
REMARK VINA RESULT:      -8.6      3.022      4.026
REMARK  Name = 
REMARK  11 active torsions:
REMARK  status: ('A' for Active; 'I' for Inactive)
REMARK    1  A    between atoms: C_1  and  C_2
REMARK    2  A    between atoms: C_3  and  O_4
REMARK    3  A    between atoms: O_4  and  C_5
REMARK    4  A    between atoms: C_5  and  C_6
REMARK    5  A    between atoms: N_8  and  C_9
REMARK    6  A    between atoms: C_19  and  C_20
REMARK    7  A    between atoms: N_22  and  C_23
REMARK    8  A    between atoms: C_27  and  C_28
REMARK    9  A    between atoms: C_28  and  C_29
REMARK   10  A    between atoms: C_29  and  O_31
REMARK   11  A    between atoms: C_33  and  C_34
REMARK                            x       y       z     vdW  Elec       q    Type
REMARK                         _______ _______ _______ _____ _____    ______ ____
ROOT
ATOM      1  C   UNL     1       0.115  11.931  19.194  0.00  0.00    +0.000 C 
ATOM      2  C   UNL     1       0.408  10.773  20.122  0.00  0.00    +0.000 A 
ATOM      3  C   UNL     1       0.176  10.870  21.515  0.00  0.00    +0.000 A 
ATOM      4  C   UNL     1       0.460   9.762  22.327  0.00  0.00    +0.000 A 
ATOM      5  C   UNL     1       0.961   8.578  21.802  0.00  0.00    +0.000 A 
ATOM      6  C   UNL     1       1.201   8.469  20.433  0.00  0.00    +0.000 A 
ATOM      7  C   UNL     1       0.953   9.567  19.574  0.00  0.00    +0.000 A 
ATOM      8  C   UNL     1       1.249   9.501  18.091  0.00  0.00    +0.000 C 
ENDROOT
BRANCH   6   9
ATOM      9  C   UNL     1       1.839   7.207  19.986  0.00  0.00    +0.000 C 
ATOM     10  O   UNL     1       1.791   6.250  20.758  0.00  0.00    +0.000 OA
ATOM     11  N   UNL     1       2.393   7.219  18.710  0.00  0.00    +0.000 N 
ATOM     12  H   UNL     1       2.369   8.093  18.199  0.00  0.00    +0.000 HD
BRANCH  11  13
ATOM     13  C   UNL     1       3.067   6.141  18.086  0.00  0.00    +0.000 A 
ATOM     14  C   UNL     1       2.439   4.926  17.804  0.00  0.00    +0.000 A 
ATOM     15  C   UNL     1       3.154   3.858  17.263  0.00  0.00    +0.000 A 
ATOM     16  C   UNL     1       4.505   3.999  16.975  0.00  0.00    +0.000 A 
ATOM     17  C   UNL     1       5.157   5.218  17.201  0.00  0.00    +0.000 A 
ATOM     18  C   UNL     1       4.428   6.286  17.767  0.00  0.00    +0.000 A 
BRANCH  17  19
ATOM     19  C   UNL     1       6.645   5.292  16.934  0.00  0.00    +0.000 C 
BRANCH  19  20
ATOM     20  C   UNL     1       7.538   4.859  18.070  0.00  0.00    +0.000 C 
ATOM     21  O   UNL     1       7.408   5.243  19.222  0.00  0.00    +0.000 OA
BRANCH  20  22
ATOM     22  O   UNL     1       8.489   3.964  17.710  0.00  0.00    +0.000 OA
ATOM     23  H   UNL     1       8.132   3.188  17.237  0.00  0.00    +0.000 HD
ENDBRANCH  20  22
ENDBRANCH  19  20
ENDBRANCH  17  19
ENDBRANCH  11  13
ENDBRANCH   6   9
BRANCH   3  24
ATOM     24  O   UNL     1      -0.305  12.061  22.030  0.00  0.00    +0.000 OA
BRANCH  24  25
ATOM     25  C   UNL     1      -1.410  11.906  22.932  0.00  0.00    +0.000 C 
BRANCH  25  26
ATOM     26  C   UNL     1      -2.590  12.844  22.687  0.00  0.00    +0.000 C 
ATOM     27  C   UNL     1      -2.289  14.259  23.167  0.00  0.00    +0.000 C 
ATOM     28  N   UNL     1      -3.452  15.124  22.913  0.00  0.00    +0.000 N 
ATOM     29  C   UNL     1      -3.253  16.531  23.242  0.00  0.00    +0.000 C 
ATOM     30  C   UNL     1      -4.668  14.522  23.310  0.00  0.00    +0.000 A 
ATOM     31  C   UNL     1      -5.865  15.249  23.409  0.00  0.00    +0.000 A 
ATOM     32  C   UNL     1      -7.056  14.651  23.845  0.00  0.00    +0.000 A 
ATOM     33  C   UNL     1      -7.080  13.305  24.192  0.00  0.00    +0.000 A 
ATOM     34  C   UNL     1      -5.921  12.546  24.057  0.00  0.00    +0.000 A 
ATOM     35  C   UNL     1      -4.745  13.139  23.587  0.00  0.00    +0.000 A 
ATOM     36  O   UNL     1      -3.683  12.278  23.446  0.00  0.00    +0.000 OA
ENDBRANCH  25  26
ENDBRANCH  24  25
ENDBRANCH   3  24
TORSDOF 8
ENDMDL
MODEL 4
REMARK VINA RESULT:      -8.6      2.949      4.210
REMARK  Name = 
REMARK  11 active torsions:
REMARK  status: ('A' for Active; 'I' for Inactive)
REMARK    1  A    between atoms: C_1  and  C_2
REMARK    2  A    between atoms: C_3  and  O_4
REMARK    3  A    between atoms: O_4  and  C_5
REMARK    4  A    between atoms: C_5  and  C_6
REMARK    5  A    between atoms: N_8  and  C_9
REMARK    6  A    between atoms: C_19  and  C_20
REMARK    7  A    between atoms: N_22  and  C_23
REMARK    8  A    between atoms: C_27  and  C_28
REMARK    9  A    between atoms: C_28  and  C_29
REMARK   10  A    between atoms: C_29  and  O_31
REMARK   11  A    between atoms: C_33  and  C_34
REMARK                            x       y       z     vdW  Elec       q    Type
REMARK                         _______ _______ _______ _____ _____    ______ ____
ROOT
ATOM      1  C   UNL     1      -0.837  11.979  20.013  0.00  0.00    +0.000 C 
ATOM      2  C   UNL     1      -0.117  10.833  20.690  0.00  0.00    +0.000 A 
ATOM      3  C   UNL     1      -0.044  10.741  22.100  0.00  0.00    +0.000 A 
ATOM      4  C   UNL     1       0.632   9.652  22.673  0.00  0.00    +0.000 A 
ATOM      5  C   UNL     1       1.229   8.670  21.895  0.00  0.00    +0.000 A 
ATOM      6  C   UNL     1       1.170   8.750  20.504  0.00  0.00    +0.000 A 
ATOM      7  C   UNL     1       0.521   9.841  19.877  0.00  0.00    +0.000 A 
ATOM      8  C   UNL     1       0.482   9.987  18.372  0.00  0.00    +0.000 C 
ENDROOT
BRANCH   6   9
ATOM      9  C   UNL     1       1.932   7.714  19.764  0.00  0.00    +0.000 C 
ATOM     10  O   UNL     1       2.338   8.011  18.641  0.00  0.00    +0.000 OA
ATOM     11  N   UNL     1       2.151   6.517  20.437  0.00  0.00    +0.000 N 
ATOM     12  H   UNL     1       1.736   6.416  21.356  0.00  0.00    +0.000 HD
BRANCH  11  13
ATOM     13  C   UNL     1       2.832   5.387  19.923  0.00  0.00    +0.000 A 
ATOM     14  C   UNL     1       2.268   4.109  19.918  0.00  0.00    +0.000 A 
ATOM     15  C   UNL     1       2.997   3.006  19.479  0.00  0.00    +0.000 A 
ATOM     16  C   UNL     1       4.296   3.168  19.015  0.00  0.00    +0.000 A 
ATOM     17  C   UNL     1       4.878   4.442  18.961  0.00  0.00    +0.000 A 
ATOM     18  C   UNL     1       4.137   5.549  19.427  0.00  0.00    +0.000 A 
BRANCH  17  19
ATOM     19  C   UNL     1       6.320   4.549  18.513  0.00  0.00    +0.000 C 
BRANCH  19  20
ATOM     20  C   UNL     1       6.537   4.670  17.025  0.00  0.00    +0.000 C 
ATOM     21  O   UNL     1       7.632   4.589  16.489  0.00  0.00    +0.000 OA
BRANCH  20  22
ATOM     22  O   UNL     1       5.396   4.839  16.315  0.00  0.00    +0.000 OA
ATOM     23  H   UNL     1       4.616   5.020  16.874  0.00  0.00    +0.000 HD
ENDBRANCH  20  22
ENDBRANCH  19  20
ENDBRANCH  17  19
ENDBRANCH  11  13
ENDBRANCH   6   9
BRANCH   3  24
ATOM     24  O   UNL     1      -0.625  11.736  22.865  0.00  0.00    +0.000 OA
BRANCH  24  25
ATOM     25  C   UNL     1      -1.958  11.436  23.305  0.00  0.00    +0.000 C 
BRANCH  25  26
ATOM     26  C   UNL     1      -2.998  12.518  23.023  0.00  0.00    +0.000 C 
ATOM     27  C   UNL     1      -2.578  13.862  23.606  0.00  0.00    +0.000 C 
ATOM     28  N   UNL     1      -3.609  14.870  23.313  0.00  0.00    +0.000 N 
ATOM     29  C   UNL     1      -3.279  16.227  23.737  0.00  0.00    +0.000 C 
ATOM     30  C   UNL     1      -4.915  14.399  23.579  0.00  0.00    +0.000 A 
ATOM     31  C   UNL     1      -6.026  15.257  23.627  0.00  0.00    +0.000 A 
ATOM     32  C   UNL     1      -7.309  14.784  23.934  0.00  0.00    +0.000 A 
ATOM     33  C   UNL     1      -7.515  13.436  24.200  0.00  0.00    +0.000 A 
ATOM     34  C   UNL     1      -6.444  12.552  24.112  0.00  0.00    +0.000 A 
ATOM     35  C   UNL     1      -5.173  13.023  23.770  0.00  0.00    +0.000 A 
ATOM     36  O   UNL     1      -4.208  12.050  23.662  0.00  0.00    +0.000 OA
ENDBRANCH  25  26
ENDBRANCH  24  25
ENDBRANCH   3  24
TORSDOF 8
ENDMDL
MODEL 5
REMARK VINA RESULT:      -8.5      2.713      4.163
REMARK  Name = 
REMARK  11 active torsions:
REMARK  status: ('A' for Active; 'I' for Inactive)
REMARK    1  A    between atoms: C_1  and  C_2
REMARK    2  A    between atoms: C_3  and  O_4
REMARK    3  A    between atoms: O_4  and  C_5
REMARK    4  A    between atoms: C_5  and  C_6
REMARK    5  A    between atoms: N_8  and  C_9
REMARK    6  A    between atoms: C_19  and  C_20
REMARK    7  A    between atoms: N_22  and  C_23
REMARK    8  A    between atoms: C_27  and  C_28
REMARK    9  A    between atoms: C_28  and  C_29
REMARK   10  A    between atoms: C_29  and  O_31
REMARK   11  A    between atoms: C_33  and  C_34
REMARK                            x       y       z     vdW  Elec       q    Type
REMARK                         _______ _______ _______ _____ _____    ______ ____
ROOT
ATOM      1  C   UNL     1       1.083   3.915  20.527  0.00  0.00    +0.000 C 
ATOM      2  C   UNL     1       2.032   4.744  19.689  0.00  0.00    +0.000 A 
ATOM      3  C   UNL     1       2.073   6.153  19.802  0.00  0.00    +0.000 A 
ATOM      4  C   UNL     1       2.978   6.870  19.003  0.00  0.00    +0.000 A 
ATOM      5  C   UNL     1       3.828   6.234  18.109  0.00  0.00    +0.000 A 
ATOM      6  C   UNL     1       3.795   4.846  17.982  0.00  0.00    +0.000 A 
ATOM      7  C   UNL     1       2.883   4.079  18.747  0.00  0.00    +0.000 A 
ATOM      8  C   UNL     1       2.785   2.577  18.599  0.00  0.00    +0.000 C 
ENDROOT
BRANCH   6   9
ATOM      9  C   UNL     1       4.661   4.272  16.923  0.00  0.00    +0.000 C 
ATOM     10  O   UNL     1       5.031   3.108  17.071  0.00  0.00    +0.000 OA
ATOM     11  N   UNL     1       4.931   5.099  15.837  0.00  0.00    +0.000 N 
ATOM     12  H   UNL     1       4.566   6.044  15.869  0.00  0.00    +0.000 HD
BRANCH  11  13
ATOM     13  C   UNL     1       5.744   4.773  14.726  0.00  0.00    +0.000 A 
ATOM     14  C   UNL     1       6.977   5.386  14.492  0.00  0.00    +0.000 A 
ATOM     15  C   UNL     1       7.714   5.098  13.344  0.00  0.00    +0.000 A 
ATOM     16  C   UNL     1       7.239   4.174  12.424  0.00  0.00    +0.000 A 
ATOM     17  C   UNL     1       6.029   3.504  12.649  0.00  0.00    +0.000 A 
ATOM     18  C   UNL     1       5.282   3.817  13.805  0.00  0.00    +0.000 A 
BRANCH  17  19
ATOM     19  C   UNL     1       5.526   2.559  11.578  0.00  0.00    +0.000 C 
BRANCH  19  20
ATOM     20  C   UNL     1       6.455   1.429  11.211  0.00  0.00    +0.000 C 
ATOM     21  O   UNL     1       7.571   1.590  10.742  0.00  0.00    +0.000 OA
BRANCH  20  22
ATOM     22  O   UNL     1       5.959   0.199  11.486  0.00  0.00    +0.000 OA
ATOM     23  H   UNL     1       6.284  -0.171  12.329  0.00  0.00    +0.000 HD
ENDBRANCH  20  22
ENDBRANCH  19  20
ENDBRANCH  17  19
ENDBRANCH  11  13
ENDBRANCH   6   9
BRANCH   3  24
ATOM     24  O   UNL     1       1.207   6.779  20.681  0.00  0.00    +0.000 OA
BRANCH  24  25
ATOM     25  C   UNL     1       1.806   7.839  21.441  0.00  0.00    +0.000 C 
BRANCH  25  26
ATOM     26  C   UNL     1       1.147   9.207  21.284  0.00  0.00    +0.000 C 
ATOM     27  C   UNL     1       0.101   9.451  22.366  0.00  0.00    +0.000 C 
ATOM     28  N   UNL     1      -0.508  10.777  22.174  0.00  0.00    +0.000 N 
ATOM     29  C   UNL     1      -1.461  11.169  23.206  0.00  0.00    +0.000 C 
ATOM     30  C   UNL     1      -0.863  11.017  20.827  0.00  0.00    +0.000 A 
ATOM     31  C   UNL     1      -1.688  12.089  20.449  0.00  0.00    +0.000 A 
ATOM     32  C   UNL     1      -2.068  12.292  19.115  0.00  0.00    +0.000 A 
ATOM     33  C   UNL     1      -1.630  11.425  18.121  0.00  0.00    +0.000 A 
ATOM     34  C   UNL     1      -0.772  10.382  18.456  0.00  0.00    +0.000 A 
ATOM     35  C   UNL     1      -0.366  10.206  19.782  0.00  0.00    +0.000 A 
ATOM     36  O   UNL     1       0.523   9.176  19.980  0.00  0.00    +0.000 OA
ENDBRANCH  25  26
ENDBRANCH  24  25
ENDBRANCH   3  24
TORSDOF 8
ENDMDL
MODEL 6
REMARK VINA RESULT:      -8.5      3.798      5.364
REMARK  Name = 
REMARK  11 active torsions:
REMARK  status: ('A' for Active; 'I' for Inactive)
REMARK    1  A    between atoms: C_1  and  C_2
REMARK    2  A    between atoms: C_3  and  O_4
REMARK    3  A    between atoms: O_4  and  C_5
REMARK    4  A    between atoms: C_5  and  C_6
REMARK    5  A    between atoms: N_8  and  C_9
REMARK    6  A    between atoms: C_19  and  C_20
REMARK    7  A    between atoms: N_22  and  C_23
REMARK    8  A    between atoms: C_27  and  C_28
REMARK    9  A    between atoms: C_28  and  C_29
REMARK   10  A    between atoms: C_29  and  O_31
REMARK   11  A    between atoms: C_33  and  C_34
REMARK                            x       y       z     vdW  Elec       q    Type
REMARK                         _______ _______ _______ _____ _____    ______ ____
ROOT
ATOM      1  C   UNL     1      -2.392  11.920  19.026  0.00  0.00    +0.000 C 
ATOM      2  C   UNL     1      -1.005  11.456  19.415  0.00  0.00    +0.000 A 
ATOM      3  C   UNL     1      -0.321  12.027  20.514  0.00  0.00    +0.000 A 
ATOM      4  C   UNL     1       0.961  11.553  20.833  0.00  0.00    +0.000 A 
ATOM      5  C   UNL     1       1.572  10.544  20.101  0.00  0.00    +0.000 A 
ATOM      6  C   UNL     1       0.912   9.976  19.012  0.00  0.00    +0.000 A 
ATOM      7  C   UNL     1      -0.372  10.435  18.634  0.00  0.00    +0.000 A 
ATOM      8  C   UNL     1      -1.096   9.877  17.429  0.00  0.00    +0.000 C 
ENDROOT
BRANCH   6   9
ATOM      9  C   UNL     1       1.691   8.985  18.229  0.00  0.00    +0.000 C 
ATOM     10  O   UNL     1       2.057   9.323  17.104  0.00  0.00    +0.000 OA
ATOM     11  N   UNL     1       1.972   7.782  18.869  0.00  0.00    +0.000 N 
ATOM     12  H   UNL     1       1.585   7.646  19.795  0.00  0.00    +0.000 HD
BRANCH  11  13
ATOM     13  C   UNL     1       2.680   6.690  18.311  0.00  0.00    +0.000 A 
ATOM     14  C   UNL     1       2.104   5.428  18.146  0.00  0.00    +0.000 A 
ATOM     15  C   UNL     1       2.854   4.355  17.669  0.00  0.00    +0.000 A 
ATOM     16  C   UNL     1       4.188   4.534  17.328  0.00  0.00    +0.000 A 
ATOM     17  C   UNL     1       4.786   5.797  17.435  0.00  0.00    +0.000 A 
ATOM     18  C   UNL     1       4.022   6.872  17.938  0.00  0.00    +0.000 A 
BRANCH  17  19
ATOM     19  C   UNL     1       6.261   5.917  17.116  0.00  0.00    +0.000 C 
BRANCH  19  20
ATOM     20  C   UNL     1       7.171   4.961  17.845  0.00  0.00    +0.000 C 
ATOM     21  O   UNL     1       7.238   4.878  19.062  0.00  0.00    +0.000 OA
BRANCH  20  22
ATOM     22  O   UNL     1       7.894   4.159  17.027  0.00  0.00    +0.000 OA
ATOM     23  H   UNL     1       7.453   3.978  16.174  0.00  0.00    +0.000 HD
ENDBRANCH  20  22
ENDBRANCH  19  20
ENDBRANCH  17  19
ENDBRANCH  11  13
ENDBRANCH   6   9
BRANCH   3  24
ATOM     24  O   UNL     1      -0.930  13.046  21.224  0.00  0.00    +0.000 OA
BRANCH  24  25
ATOM     25  C   UNL     1      -0.122  14.223  21.374  0.00  0.00    +0.000 C 
BRANCH  25  26
ATOM     26  C   UNL     1       0.367  14.849  20.070  0.00  0.00    +0.000 C 
ATOM     27  C   UNL     1       1.773  15.418  20.216  0.00  0.00    +0.000 C 
ATOM     28  N   UNL     1       2.200  16.012  18.940  0.00  0.00    +0.000 N 
ATOM     29  C   UNL     1       3.572  16.508  18.922  0.00  0.00    +0.000 C 
ATOM     30  C   UNL     1       1.200  16.828  18.363  0.00  0.00    +0.000 A 
ATOM     31  C   UNL     1       1.468  17.699  17.294  0.00  0.00    +0.000 A 
ATOM     32  C   UNL     1       0.478  18.534  16.759  0.00  0.00    +0.000 A 
ATOM     33  C   UNL     1      -0.810  18.518  17.279  0.00  0.00    +0.000 A 
ATOM     34  C   UNL     1      -1.120  17.631  18.306  0.00  0.00    +0.000 A 
ATOM     35  C   UNL     1      -0.138  16.774  18.812  0.00  0.00    +0.000 A 
ATOM     36  O   UNL     1      -0.576  15.908  19.785  0.00  0.00    +0.000 OA
ENDBRANCH  25  26
ENDBRANCH  24  25
ENDBRANCH   3  24
TORSDOF 8
ENDMDL
MODEL 7
REMARK VINA RESULT:      -8.5      2.205      3.386
REMARK  Name = 
REMARK  11 active torsions:
REMARK  status: ('A' for Active; 'I' for Inactive)
REMARK    1  A    between atoms: C_1  and  C_2
REMARK    2  A    between atoms: C_3  and  O_4
REMARK    3  A    between atoms: O_4  and  C_5
REMARK    4  A    between atoms: C_5  and  C_6
REMARK    5  A    between atoms: N_8  and  C_9
REMARK    6  A    between atoms: C_19  and  C_20
REMARK    7  A    between atoms: N_22  and  C_23
REMARK    8  A    between atoms: C_27  and  C_28
REMARK    9  A    between atoms: C_28  and  C_29
REMARK   10  A    between atoms: C_29  and  O_31
REMARK   11  A    between atoms: C_33  and  C_34
REMARK                            x       y       z     vdW  Elec       q    Type
REMARK                         _______ _______ _______ _____ _____    ______ ____
ROOT
ATOM      1  C   UNL     1      -0.840  10.327  23.164  0.00  0.00    +0.000 C 
ATOM      2  C   UNL     1      -0.152  10.670  21.861  0.00  0.00    +0.000 A 
ATOM      3  C   UNL     1       0.013  12.014  21.449  0.00  0.00    +0.000 A 
ATOM      4  C   UNL     1       0.665  12.273  20.233  0.00  0.00    +0.000 A 
ATOM      5  C   UNL     1       1.148  11.250  19.429  0.00  0.00    +0.000 A 
ATOM      6  C   UNL     1       0.987   9.921  19.819  0.00  0.00    +0.000 A 
ATOM      7  C   UNL     1       0.316   9.606  21.024  0.00  0.00    +0.000 A 
ATOM      8  C   UNL     1       0.079   8.175  21.454  0.00  0.00    +0.000 C 
ENDROOT
BRANCH   6   9
ATOM      9  C   UNL     1       1.437   8.901  18.840  0.00  0.00    +0.000 C 
ATOM     10  O   UNL     1       1.099   9.060  17.668  0.00  0.00    +0.000 OA
ATOM     11  N   UNL     1       2.242   7.883  19.343  0.00  0.00    +0.000 N 
ATOM     12  H   UNL     1       2.419   7.879  20.340  0.00  0.00    +0.000 HD
BRANCH  11  13
ATOM     13  C   UNL     1       2.768   6.797  18.602  0.00  0.00    +0.000 A 
ATOM     14  C   UNL     1       2.313   5.487  18.765  0.00  0.00    +0.000 A 
ATOM     15  C   UNL     1       2.909   4.431  18.078  0.00  0.00    +0.000 A 
ATOM     16  C   UNL     1       3.956   4.674  17.198  0.00  0.00    +0.000 A 
ATOM     17  C   UNL     1       4.407   5.982  16.974  0.00  0.00    +0.000 A 
ATOM     18  C   UNL     1       3.809   7.041  17.690  0.00  0.00    +0.000 A 
BRANCH  17  19
ATOM     19  C   UNL     1       5.597   6.179  16.059  0.00  0.00    +0.000 C 
BRANCH  19  20
ATOM     20  C   UNL     1       6.940   6.274  16.739  0.00  0.00    +0.000 C 
ATOM     21  O   UNL     1       7.442   7.323  17.111  0.00  0.00    +0.000 OA
BRANCH  20  22
ATOM     22  O   UNL     1       7.539   5.076  16.942  0.00  0.00    +0.000 OA
ATOM     23  H   UNL     1       8.376   5.141  17.442  0.00  0.00    +0.000 HD
ENDBRANCH  20  22
ENDBRANCH  19  20
ENDBRANCH  17  19
ENDBRANCH  11  13
ENDBRANCH   6   9
BRANCH   3  24
ATOM     24  O   UNL     1      -0.489  13.025  22.249  0.00  0.00    +0.000 OA
BRANCH  24  25
ATOM     25  C   UNL     1      -1.596  13.734  21.672  0.00  0.00    +0.000 C 
BRANCH  25  26
ATOM     26  C   UNL     1      -2.859  12.907  21.451  0.00  0.00    +0.000 C 
ATOM     27  C   UNL     1      -3.262  12.882  19.982  0.00  0.00    +0.000 C 
ATOM     28  N   UNL     1      -4.482  12.077  19.818  0.00  0.00    +0.000 N 
ATOM     29  C   UNL     1      -4.917  11.896  18.437  0.00  0.00    +0.000 C 
ATOM     30  C   UNL     1      -5.469  12.391  20.780  0.00  0.00    +0.000 A 
ATOM     31  C   UNL     1      -6.796  11.949  20.665  0.00  0.00    +0.000 A 
ATOM     32  C   UNL     1      -7.775  12.303  21.604  0.00  0.00    +0.000 A 
ATOM     33  C   UNL     1      -7.449  13.109  22.687  0.00  0.00    +0.000 A 
ATOM     34  C   UNL     1      -6.132  13.523  22.857  0.00  0.00    +0.000 A 
ATOM     35  C   UNL     1      -5.151  13.137  21.938  0.00  0.00    +0.000 A 
ATOM     36  O   UNL     1      -3.879  13.562  22.240  0.00  0.00    +0.000 OA
ENDBRANCH  25  26
ENDBRANCH  24  25
ENDBRANCH   3  24
TORSDOF 8
ENDMDL
MODEL 8
REMARK VINA RESULT:      -8.5      2.022      3.197
REMARK  Name = 
REMARK  11 active torsions:
REMARK  status: ('A' for Active; 'I' for Inactive)
REMARK    1  A    between atoms: C_1  and  C_2
REMARK    2  A    between atoms: C_3  and  O_4
REMARK    3  A    between atoms: O_4  and  C_5
REMARK    4  A    between atoms: C_5  and  C_6
REMARK    5  A    between atoms: N_8  and  C_9
REMARK    6  A    between atoms: C_19  and  C_20
REMARK    7  A    between atoms: N_22  and  C_23
REMARK    8  A    between atoms: C_27  and  C_28
REMARK    9  A    between atoms: C_28  and  C_29
REMARK   10  A    between atoms: C_29  and  O_31
REMARK   11  A    between atoms: C_33  and  C_34
REMARK                            x       y       z     vdW  Elec       q    Type
REMARK                         _______ _______ _______ _____ _____    ______ ____
ROOT
ATOM      1  C   UNL     1      -0.388  11.338  22.086  0.00  0.00    +0.000 C 
ATOM      2  C   UNL     1       0.080  10.754  20.771  0.00  0.00    +0.000 A 
ATOM      3  C   UNL     1      -0.191  11.399  19.541  0.00  0.00    +0.000 A 
ATOM      4  C   UNL     1       0.273  10.814  18.353  0.00  0.00    +0.000 A 
ATOM      5  C   UNL     1       0.986   9.623  18.354  0.00  0.00    +0.000 A 
ATOM      6  C   UNL     1       1.255   8.972  19.557  0.00  0.00    +0.000 A 
ATOM      7  C   UNL     1       0.788   9.508  20.781  0.00  0.00    +0.000 A 
ATOM      8  C   UNL     1       1.018   8.804  22.099  0.00  0.00    +0.000 C 
ENDROOT
BRANCH   6   9
ATOM      9  C   UNL     1       1.924   7.652  19.443  0.00  0.00    +0.000 C 
ATOM     10  O   UNL     1       2.145   7.043  20.489  0.00  0.00    +0.000 OA
ATOM     11  N   UNL     1       2.195   7.212  18.151  0.00  0.00    +0.000 N 
ATOM     12  H   UNL     1       1.968   7.839  17.388  0.00  0.00    +0.000 HD
BRANCH  11  13
ATOM     13  C   UNL     1       2.841   6.001  17.804  0.00  0.00    +0.000 A 
ATOM     14  C   UNL     1       2.197   4.764  17.861  0.00  0.00    +0.000 A 
ATOM     15  C   UNL     1       2.886   3.583  17.590  0.00  0.00    +0.000 A 
ATOM     16  C   UNL     1       4.228   3.625  17.236  0.00  0.00    +0.000 A 
ATOM     17  C   UNL     1       4.895   4.853  17.122  0.00  0.00    +0.000 A 
ATOM     18  C   UNL     1       4.192   6.040  17.418  0.00  0.00    +0.000 A 
BRANCH  17  19
ATOM     19  C   UNL     1       6.374   4.833  16.801  0.00  0.00    +0.000 C 
BRANCH  19  20
ATOM     20  C   UNL     1       7.299   4.645  17.977  0.00  0.00    +0.000 C 
ATOM     21  O   UNL     1       7.036   5.005  19.114  0.00  0.00    +0.000 OA
BRANCH  20  22
ATOM     22  O   UNL     1       8.450   3.998  17.673  0.00  0.00    +0.000 OA
ATOM     23  H   UNL     1       8.378   3.026  17.744  0.00  0.00    +0.000 HD
ENDBRANCH  20  22
ENDBRANCH  19  20
ENDBRANCH  17  19
ENDBRANCH  11  13
ENDBRANCH   6   9
BRANCH   3  24
ATOM     24  O   UNL     1      -0.919  12.576  19.551  0.00  0.00    +0.000 OA
BRANCH  24  25
ATOM     25  C   UNL     1      -2.068  12.562  18.691  0.00  0.00    +0.000 C 
BRANCH  25  26
ATOM     26  C   UNL     1      -3.342  11.993  19.312  0.00  0.00    +0.000 C 
ATOM     27  C   UNL     1      -4.510  12.039  18.334  0.00  0.00    +0.000 C 
ATOM     28  N   UNL     1      -5.712  11.484  18.975  0.00  0.00    +0.000 N 
ATOM     29  C   UNL     1      -6.880  11.384  18.106  0.00  0.00    +0.000 C 
ATOM     30  C   UNL     1      -5.908  11.988  20.281  0.00  0.00    +0.000 A 
ATOM     31  C   UNL     1      -7.113  11.811  20.980  0.00  0.00    +0.000 A 
ATOM     32  C   UNL     1      -7.310  12.351  22.259  0.00  0.00    +0.000 A 
ATOM     33  C   UNL     1      -6.302  13.085  22.873  0.00  0.00    +0.000 A 
ATOM     34  C   UNL     1      -5.079  13.237  22.227  0.00  0.00    +0.000 A 
ATOM     35  C   UNL     1      -4.875  12.664  20.968  0.00  0.00    +0.000 A 
ATOM     36  O   UNL     1      -3.611  12.836  20.455  0.00  0.00    +0.000 OA
ENDBRANCH  25  26
ENDBRANCH  24  25
ENDBRANCH   3  24
TORSDOF 8
ENDMDL
MODEL 9
REMARK VINA RESULT:      -8.4      3.009      4.133
REMARK  Name = 
REMARK  11 active torsions:
REMARK  status: ('A' for Active; 'I' for Inactive)
REMARK    1  A    between atoms: C_1  and  C_2
REMARK    2  A    between atoms: C_3  and  O_4
REMARK    3  A    between atoms: O_4  and  C_5
REMARK    4  A    between atoms: C_5  and  C_6
REMARK    5  A    between atoms: N_8  and  C_9
REMARK    6  A    between atoms: C_19  and  C_20
REMARK    7  A    between atoms: N_22  and  C_23
REMARK    8  A    between atoms: C_27  and  C_28
REMARK    9  A    between atoms: C_28  and  C_29
REMARK   10  A    between atoms: C_29  and  O_31
REMARK   11  A    between atoms: C_33  and  C_34
REMARK                            x       y       z     vdW  Elec       q    Type
REMARK                         _______ _______ _______ _____ _____    ______ ____
ROOT
ATOM      1  C   UNL     1      -1.093  12.028  20.125  0.00  0.00    +0.000 C 
ATOM      2  C   UNL     1      -0.201  10.887  20.559  0.00  0.00    +0.000 A 
ATOM      3  C   UNL     1       0.086  10.656  21.925  0.00  0.00    +0.000 A 
ATOM      4  C   UNL     1       0.916   9.578  22.270  0.00  0.00    +0.000 A 
ATOM      5  C   UNL     1       1.460   8.737  21.310  0.00  0.00    +0.000 A 
ATOM      6  C   UNL     1       1.192   8.955  19.959  0.00  0.00    +0.000 A 
ATOM      7  C   UNL     1       0.381  10.043  19.557  0.00  0.00    +0.000 A 
ATOM      8  C   UNL     1       0.109  10.340  18.099  0.00  0.00    +0.000 C 
ENDROOT
BRANCH   6   9
ATOM      9  C   UNL     1       1.909   8.072  19.006  0.00  0.00    +0.000 C 
ATOM     10  O   UNL     1       2.180   8.541  17.902  0.00  0.00    +0.000 OA
ATOM     11  N   UNL     1       2.245   6.807  19.478  0.00  0.00    +0.000 N 
ATOM     12  H   UNL     1       1.935   6.559  20.410  0.00  0.00    +0.000 HD
BRANCH  11  13
ATOM     13  C   UNL     1       2.909   5.795  18.743  0.00  0.00    +0.000 A 
ATOM     14  C   UNL     1       2.223   4.775  18.082  0.00  0.00    +0.000 A 
ATOM     15  C   UNL     1       2.911   3.750  17.435  0.00  0.00    +0.000 A 
ATOM     16  C   UNL     1       4.300   3.743  17.422  0.00  0.00    +0.000 A 
ATOM     17  C   UNL     1       5.022   4.777  18.034  0.00  0.00    +0.000 A 
ATOM     18  C   UNL     1       4.314   5.799  18.702  0.00  0.00    +0.000 A 
BRANCH  17  19
ATOM     19  C   UNL     1       6.532   4.681  18.047  0.00  0.00    +0.000 C 
BRANCH  19  20
ATOM     20  C   UNL     1       7.274   5.940  17.671  0.00  0.00    +0.000 C 
ATOM     21  O   UNL     1       7.772   6.705  18.482  0.00  0.00    +0.000 OA
BRANCH  20  22
ATOM     22  O   UNL     1       7.378   6.136  16.335  0.00  0.00    +0.000 OA
ATOM     23  H   UNL     1       8.276   5.969  15.987  0.00  0.00    +0.000 HD
ENDBRANCH  20  22
ENDBRANCH  19  20
ENDBRANCH  17  19
ENDBRANCH  11  13
ENDBRANCH   6   9
BRANCH   3  24
ATOM     24  O   UNL     1      -0.446  11.513  22.873  0.00  0.00    +0.000 OA
BRANCH  24  25
ATOM     25  C   UNL     1      -1.812  11.234  23.216  0.00  0.00    +0.000 C 
BRANCH  25  26
ATOM     26  C   UNL     1      -2.794  12.376  22.968  0.00  0.00    +0.000 C 
ATOM     27  C   UNL     1      -2.301  13.681  23.582  0.00  0.00    +0.000 C 
ATOM     28  N   UNL     1      -3.278  14.749  23.321  0.00  0.00    +0.000 N 
ATOM     29  C   UNL     1      -2.874  16.075  23.777  0.00  0.00    +0.000 C 
ATOM     30  C   UNL     1      -4.606  14.342  23.582  0.00  0.00    +0.000 A 
ATOM     31  C   UNL     1      -5.669  15.255  23.659  0.00  0.00    +0.000 A 
ATOM     32  C   UNL     1      -6.975  14.843  23.961  0.00  0.00    +0.000 A 
ATOM     33  C   UNL     1      -7.251  13.502  24.193  0.00  0.00    +0.000 A 
ATOM     34  C   UNL     1      -6.229  12.565  24.076  0.00  0.00    +0.000 A 
ATOM     35  C   UNL     1      -4.935  12.976  23.739  0.00  0.00    +0.000 A 
ATOM     36  O   UNL     1      -4.024  11.957  23.601  0.00  0.00    +0.000 OA
ENDBRANCH  25  26
ENDBRANCH  24  25
ENDBRANCH   3  24
TORSDOF 8
ENDMDL
