MODEL 1
REMARK VINA RESULT:      -8.0      0.000      0.000
REMARK  Name = 
REMARK  9 active torsions:
REMARK  status: ('A' for Active; 'I' for Inactive)
REMARK    1  A    between atoms: C_1  and  O_2
REMARK    2  A    between atoms: O_2  and  C_3
REMARK    3  A    between atoms: C_5  and  N_6
REMARK    4  A    between atoms: C_7  and  C_9
REMARK    5  A    between atoms: C_9  and  S_10
REMARK    6  A    between atoms: S_10  and  C_11
REMARK    7  A    between atoms: N_15  and  C_16
REMARK    8  A    between atoms: C_27  and  O_28
REMARK    9  A    between atoms: O_28  and  C_29
REMARK                            x       y       z     vdW  Elec       q    Type
REMARK                         _______ _______ _______ _____ _____    ______ ____
ROOT
ATOM      1  S   UNL     1       0.865   3.278  18.530  0.00  0.00    +0.000 S 
ENDROOT
BRANCH   1   2
ATOM      2  C   UNL     1       1.516   3.574  20.104  0.00  0.00    +0.000 A 
ATOM      3  N   UNL     1       1.463   2.702  21.088  0.00  0.00    +0.000 NA
ATOM      4  N   UNL     1       2.084   3.284  22.151  0.00  0.00    +0.000 NA
ATOM      5  N   UNL     1       2.512   4.497  21.844  0.00  0.00    +0.000 NA
ATOM      6  N   UNL     1       2.129   4.739  20.558  0.00  0.00    +0.000 N 
BRANCH   6   7
ATOM      7  C   UNL     1       2.258   6.055  20.019  0.00  0.00    +0.000 A 
ATOM      8  C   UNL     1       2.832   6.323  18.769  0.00  0.00    +0.000 A 
ATOM      9  C   UNL     1       2.655   7.569  18.159  0.00  0.00    +0.000 A 
ATOM     10  C   UNL     1       1.918   8.553  18.802  0.00  0.00    +0.000 A 
ATOM     11  C   UNL     1       1.477   8.349  20.099  0.00  0.00    +0.000 A 
ATOM     12  C   UNL     1       1.664   7.117  20.722  0.00  0.00    +0.000 A 
ATOM     13  O   UNL     1       0.791   9.305  20.799  0.00  0.00    +0.000 OA
ATOM     14  C   UNL     1      -0.050  10.013  19.889  0.00  0.00    +0.000 C 
ATOM     15  C   UNL     1       0.749  10.596  18.726  0.00  0.00    +0.000 C 
ATOM     16  O   UNL     1       1.621   9.671  18.067  0.00  0.00    +0.000 OA
ENDBRANCH   6   7
ENDBRANCH   1   2
BRANCH   1  17
ATOM     17  C   UNL     1       1.724   1.749  18.075  0.00  0.00    +0.000 C 
BRANCH  17  19
ATOM     18  N   UNL     1       3.474   3.249  17.277  0.00  0.00    +0.000 N 
ATOM     19  C   UNL     1       3.206   2.026  17.886  0.00  0.00    +0.000 C 
ATOM     20  O   UNL     1       4.038   1.192  18.234  0.00  0.00    +0.000 OA
ATOM     21  H   UNL     1       2.704   3.899  17.205  0.00  0.00    +0.000 HD
BRANCH  18  24
ATOM     22  C   UNL     1       6.390   4.343  15.199  0.00  0.00    +0.000 A 
ATOM     23  C   UNL     1       5.130   3.845  15.543  0.00  0.00    +0.000 A 
ATOM     24  C   UNL     1       4.742   3.728  16.877  0.00  0.00    +0.000 A 
ATOM     25  C   UNL     1       5.643   4.125  17.871  0.00  0.00    +0.000 A 
ATOM     26  C   UNL     1       6.913   4.616  17.541  0.00  0.00    +0.000 A 
ATOM     27  C   UNL     1       7.286   4.718  16.197  0.00  0.00    +0.000 A 
BRANCH  22  29
ATOM     28  C   UNL     1       7.742   5.163  13.415  0.00  0.00    +0.000 C 
ATOM     29  O   UNL     1       6.615   4.417  13.846  0.00  0.00    +0.000 OA
ENDBRANCH  22  29
BRANCH  26  30
ATOM     30  O   UNL     1       7.697   4.961  18.609  0.00  0.00    +0.000 OA
ATOM     31  C   UNL     1       7.895   6.353  18.838  0.00  0.00    +0.000 C 
ENDBRANCH  26  30
ENDBRANCH  18  24
ENDBRANCH  17  19
ENDBRANCH   1  17
TORSDOF 7
ENDMDL
MODEL 2
REMARK VINA RESULT:      -7.8      0.958      2.325
REMARK  Name = 
REMARK  9 active torsions:
REMARK  status: ('A' for Active; 'I' for Inactive)
REMARK    1  A    between atoms: C_1  and  O_2
REMARK    2  A    between atoms: O_2  and  C_3
REMARK    3  A    between atoms: C_5  and  N_6
REMARK    4  A    between atoms: C_7  and  C_9
REMARK    5  A    between atoms: C_9  and  S_10
REMARK    6  A    between atoms: S_10  and  C_11
REMARK    7  A    between atoms: N_15  and  C_16
REMARK    8  A    between atoms: C_27  and  O_28
REMARK    9  A    between atoms: O_28  and  C_29
REMARK                            x       y       z     vdW  Elec       q    Type
REMARK                         _______ _______ _______ _____ _____    ______ ____
ROOT
ATOM      1  S   UNL     1       0.781   2.941  18.769  0.00  0.00    +0.000 S 
ENDROOT
BRANCH   1   2
ATOM      2  C   UNL     1       1.508   3.310  20.294  0.00  0.00    +0.000 A 
ATOM      3  N   UNL     1       1.494   2.489  21.322  0.00  0.00    +0.000 NA
ATOM      4  N   UNL     1       2.170   3.119  22.324  0.00  0.00    +0.000 NA
ATOM      5  N   UNL     1       2.592   4.310  21.936  0.00  0.00    +0.000 NA
ATOM      6  N   UNL     1       2.151   4.491  20.658  0.00  0.00    +0.000 N 
BRANCH   6   7
ATOM      7  C   UNL     1       2.264   5.776  20.047  0.00  0.00    +0.000 A 
ATOM      8  C   UNL     1       2.708   5.967  18.731  0.00  0.00    +0.000 A 
ATOM      9  C   UNL     1       2.507   7.192  18.086  0.00  0.00    +0.000 A 
ATOM     10  C   UNL     1       1.877   8.230  18.756  0.00  0.00    +0.000 A 
ATOM     11  C   UNL     1       1.573   8.099  20.102  0.00  0.00    +0.000 A 
ATOM     12  C   UNL     1       1.785   6.889  20.758  0.00  0.00    +0.000 A 
ATOM     13  O   UNL     1       0.999   9.110  20.825  0.00  0.00    +0.000 OA
ATOM     14  C   UNL     1       0.089   9.809  19.978  0.00  0.00    +0.000 C 
ATOM     15  C   UNL     1       0.775  10.311  18.710  0.00  0.00    +0.000 C 
ATOM     16  O   UNL     1       1.540   9.326  18.006  0.00  0.00    +0.000 OA
ENDBRANCH   6   7
ENDBRANCH   1   2
BRANCH   1  17
ATOM     17  C   UNL     1       2.113   2.020  17.957  0.00  0.00    +0.000 C 
BRANCH  17  19
ATOM     18  N   UNL     1       4.314   3.031  17.664  0.00  0.00    +0.000 N 
ATOM     19  C   UNL     1       3.008   2.978  17.187  0.00  0.00    +0.000 C 
ATOM     20  O   UNL     1       2.548   3.637  16.257  0.00  0.00    +0.000 OA
ATOM     21  H   UNL     1       4.588   2.310  18.318  0.00  0.00    +0.000 HD
BRANCH  18  24
ATOM     22  C   UNL     1       7.113   5.516  17.600  0.00  0.00    +0.000 A 
ATOM     23  C   UNL     1       6.101   4.684  18.086  0.00  0.00    +0.000 A 
ATOM     24  C   UNL     1       5.335   3.902  17.222  0.00  0.00    +0.000 A 
ATOM     25  C   UNL     1       5.604   3.964  15.851  0.00  0.00    +0.000 A 
ATOM     26  C   UNL     1       6.609   4.802  15.348  0.00  0.00    +0.000 A 
ATOM     27  C   UNL     1       7.360   5.584  16.231  0.00  0.00    +0.000 A 
BRANCH  22  29
ATOM     28  C   UNL     1       8.127   7.556  18.301  0.00  0.00    +0.000 C 
ATOM     29  O   UNL     1       7.791   6.205  18.575  0.00  0.00    +0.000 OA
ENDBRANCH  22  29
BRANCH  26  30
ATOM     30  O   UNL     1       6.763   4.772  13.988  0.00  0.00    +0.000 OA
ATOM     31  C   UNL     1       6.159   3.684  13.296  0.00  0.00    +0.000 C 
ENDBRANCH  26  30
ENDBRANCH  18  24
ENDBRANCH  17  19
ENDBRANCH   1  17
TORSDOF 7
ENDMDL
MODEL 3
REMARK VINA RESULT:      -7.6      5.003      7.614
REMARK  Name = 
REMARK  9 active torsions:
REMARK  status: ('A' for Active; 'I' for Inactive)
REMARK    1  A    between atoms: C_1  and  O_2
REMARK    2  A    between atoms: O_2  and  C_3
REMARK    3  A    between atoms: C_5  and  N_6
REMARK    4  A    between atoms: C_7  and  C_9
REMARK    5  A    between atoms: C_9  and  S_10
REMARK    6  A    between atoms: S_10  and  C_11
REMARK    7  A    between atoms: N_15  and  C_16
REMARK    8  A    between atoms: C_27  and  O_28
REMARK    9  A    between atoms: O_28  and  C_29
REMARK                            x       y       z     vdW  Elec       q    Type
REMARK                         _______ _______ _______ _____ _____    ______ ____
ROOT
ATOM      1  S   UNL     1       7.066   6.096  17.828  0.00  0.00    +0.000 S 
ENDROOT
BRANCH   1   2
ATOM      2  C   UNL     1       6.703   5.268  16.354  0.00  0.00    +0.000 A 
ATOM      3  N   UNL     1       7.400   5.416  15.248  0.00  0.00    +0.000 NA
ATOM      4  N   UNL     1       6.825   4.601  14.321  0.00  0.00    +0.000 NA
ATOM      5  N   UNL     1       5.787   3.960  14.830  0.00  0.00    +0.000 NA
ATOM      6  N   UNL     1       5.646   4.392  16.116  0.00  0.00    +0.000 N 
BRANCH   6   7
ATOM      7  C   UNL     1       4.476   4.042  16.855  0.00  0.00    +0.000 A 
ATOM      8  C   UNL     1       4.108   2.719  17.134  0.00  0.00    +0.000 A 
ATOM      9  C   UNL     1       3.145   2.441  18.109  0.00  0.00    +0.000 A 
ATOM     10  C   UNL     1       2.538   3.482  18.796  0.00  0.00    +0.000 A 
ATOM     11  C   UNL     1       2.785   4.793  18.422  0.00  0.00    +0.000 A 
ATOM     12  C   UNL     1       3.730   5.080  17.440  0.00  0.00    +0.000 A 
ATOM     13  O   UNL     1       2.175   5.857  19.031  0.00  0.00    +0.000 OA
ATOM     14  C   UNL     1       2.018   5.554  20.416  0.00  0.00    +0.000 C 
ATOM     15  C   UNL     1       1.260   4.245  20.622  0.00  0.00    +0.000 C 
ATOM     16  O   UNL     1       1.755   3.133  19.866  0.00  0.00    +0.000 OA
ENDBRANCH   6   7
ENDBRANCH   1   2
BRANCH   1  17
ATOM     17  C   UNL     1       7.335   7.784  17.229  0.00  0.00    +0.000 C 
BRANCH  17  19
ATOM     18  N   UNL     1       8.324   9.899  17.935  0.00  0.00    +0.000 N 
ATOM     19  C   UNL     1       8.248   8.532  18.186  0.00  0.00    +0.000 C 
ATOM     20  O   UNL     1       8.859   7.920  19.060  0.00  0.00    +0.000 OA
ATOM     21  H   UNL     1       7.639  10.282  17.299  0.00  0.00    +0.000 HD
BRANCH  18  24
ATOM     22  C   UNL     1      10.943  12.488  18.608  0.00  0.00    +0.000 A 
ATOM     23  C   UNL     1      10.146  11.568  17.922  0.00  0.00    +0.000 A 
ATOM     24  C   UNL     1       9.169  10.826  18.586  0.00  0.00    +0.000 A 
ATOM     25  C   UNL     1       8.998  11.026  19.960  0.00  0.00    +0.000 A 
ATOM     26  C   UNL     1       9.798  11.937  20.663  0.00  0.00    +0.000 A 
ATOM     27  C   UNL     1      10.778  12.665  19.980  0.00  0.00    +0.000 A 
BRANCH  22  29
ATOM     28  C   UNL     1      12.306  14.414  18.272  0.00  0.00    +0.000 C 
ATOM     29  O   UNL     1      11.844  13.154  17.814  0.00  0.00    +0.000 OA
ENDBRANCH  22  29
BRANCH  26  30
ATOM     30  O   UNL     1       9.531  12.030  22.002  0.00  0.00    +0.000 OA
ATOM     31  C   UNL     1       9.006  13.268  22.469  0.00  0.00    +0.000 C 
ENDBRANCH  26  30
ENDBRANCH  18  24
ENDBRANCH  17  19
ENDBRANCH   1  17
TORSDOF 7
ENDMDL
MODEL 4
REMARK VINA RESULT:      -7.5      2.222      7.883
REMARK  Name = 
REMARK  9 active torsions:
REMARK  status: ('A' for Active; 'I' for Inactive)
REMARK    1  A    between atoms: C_1  and  O_2
REMARK    2  A    between atoms: O_2  and  C_3
REMARK    3  A    between atoms: C_5  and  N_6
REMARK    4  A    between atoms: C_7  and  C_9
REMARK    5  A    between atoms: C_9  and  S_10
REMARK    6  A    between atoms: S_10  and  C_11
REMARK    7  A    between atoms: N_15  and  C_16
REMARK    8  A    between atoms: C_27  and  O_28
REMARK    9  A    between atoms: O_28  and  C_29
REMARK                            x       y       z     vdW  Elec       q    Type
REMARK                         _______ _______ _______ _____ _____    ______ ____
ROOT
ATOM      1  S   UNL     1       1.920   5.151  19.225  0.00  0.00    +0.000 S 
ENDROOT
BRANCH   1   2
ATOM      2  C   UNL     1       3.097   3.960  19.657  0.00  0.00    +0.000 A 
ATOM      3  N   UNL     1       2.970   3.156  20.690  0.00  0.00    +0.000 NA
ATOM      4  N   UNL     1       4.077   2.361  20.695  0.00  0.00    +0.000 NA
ATOM      5  N   UNL     1       4.882   2.663  19.691  0.00  0.00    +0.000 NA
ATOM      6  N   UNL     1       4.315   3.712  19.029  0.00  0.00    +0.000 N 
BRANCH   6   7
ATOM      7  C   UNL     1       5.062   4.402  18.028  0.00  0.00    +0.000 A 
ATOM      8  C   UNL     1       6.239   5.115  18.298  0.00  0.00    +0.000 A 
ATOM      9  C   UNL     1       7.088   5.503  17.257  0.00  0.00    +0.000 A 
ATOM     10  C   UNL     1       6.758   5.193  15.945  0.00  0.00    +0.000 A 
ATOM     11  C   UNL     1       5.528   4.625  15.659  0.00  0.00    +0.000 A 
ATOM     12  C   UNL     1       4.667   4.251  16.688  0.00  0.00    +0.000 A 
ATOM     13  O   UNL     1       5.129   4.346  14.379  0.00  0.00    +0.000 OA
ATOM     14  C   UNL     1       6.271   3.930  13.632  0.00  0.00    +0.000 C 
ATOM     15  C   UNL     1       7.387   4.970  13.687  0.00  0.00    +0.000 C 
ATOM     16  O   UNL     1       7.724   5.428  15.002  0.00  0.00    +0.000 OA
ENDBRANCH   6   7
ENDBRANCH   1   2
BRANCH   1  17
ATOM     17  C   UNL     1       2.885   6.676  19.387  0.00  0.00    +0.000 C 
BRANCH  17  19
ATOM     18  N   UNL     1       1.724   8.663  18.577  0.00  0.00    +0.000 N 
ATOM     19  C   UNL     1       1.958   7.845  19.678  0.00  0.00    +0.000 C 
ATOM     20  O   UNL     1       1.515   8.011  20.813  0.00  0.00    +0.000 OA
ATOM     21  H   UNL     1       2.014   8.306  17.677  0.00  0.00    +0.000 HD
BRANCH  18  24
ATOM     22  C   UNL     1       0.808  12.283  18.840  0.00  0.00    +0.000 A 
ATOM     23  C   UNL     1       1.566  11.110  18.880  0.00  0.00    +0.000 A 
ATOM     24  C   UNL     1       0.997   9.875  18.570  0.00  0.00    +0.000 A 
ATOM     25  C   UNL     1      -0.355   9.834  18.213  0.00  0.00    +0.000 A 
ATOM     26  C   UNL     1      -1.129  11.001  18.179  0.00  0.00    +0.000 A 
ATOM     27  C   UNL     1      -0.542  12.228  18.502  0.00  0.00    +0.000 A 
BRANCH  22  29
ATOM     28  C   UNL     1       0.836  14.659  19.028  0.00  0.00    +0.000 C 
ATOM     29  O   UNL     1       1.515  13.419  19.151  0.00  0.00    +0.000 OA
ENDBRANCH  22  29
BRANCH  26  30
ATOM     30  O   UNL     1      -2.438  10.819  17.820  0.00  0.00    +0.000 OA
ATOM     31  C   UNL     1      -2.771  11.066  16.458  0.00  0.00    +0.000 C 
ENDBRANCH  26  30
ENDBRANCH  18  24
ENDBRANCH  17  19
ENDBRANCH   1  17
TORSDOF 7
ENDMDL
MODEL 5
REMARK VINA RESULT:      -7.5      2.086      7.814
REMARK  Name = 
REMARK  9 active torsions:
REMARK  status: ('A' for Active; 'I' for Inactive)
REMARK    1  A    between atoms: C_1  and  O_2
REMARK    2  A    between atoms: O_2  and  C_3
REMARK    3  A    between atoms: C_5  and  N_6
REMARK    4  A    between atoms: C_7  and  C_9
REMARK    5  A    between atoms: C_9  and  S_10
REMARK    6  A    between atoms: S_10  and  C_11
REMARK    7  A    between atoms: N_15  and  C_16
REMARK    8  A    between atoms: C_27  and  O_28
REMARK    9  A    between atoms: O_28  and  C_29
REMARK                            x       y       z     vdW  Elec       q    Type
REMARK                         _______ _______ _______ _____ _____    ______ ____
ROOT
ATOM      1  S   UNL     1       1.977   4.897  19.281  0.00  0.00    +0.000 S 
ENDROOT
BRANCH   1   2
ATOM      2  C   UNL     1       3.199   3.766  19.748  0.00  0.00    +0.000 A 
ATOM      3  N   UNL     1       3.095   2.975  20.793  0.00  0.00    +0.000 NA
ATOM      4  N   UNL     1       4.234   2.229  20.825  0.00  0.00    +0.000 NA
ATOM      5  N   UNL     1       5.039   2.549  19.826  0.00  0.00    +0.000 NA
ATOM      6  N   UNL     1       4.435   3.560  19.139  0.00  0.00    +0.000 N 
BRANCH   6   7
ATOM      7  C   UNL     1       5.164   4.265  18.134  0.00  0.00    +0.000 A 
ATOM      8  C   UNL     1       6.362   4.947  18.387  0.00  0.00    +0.000 A 
ATOM      9  C   UNL     1       7.186   5.348  17.330  0.00  0.00    +0.000 A 
ATOM     10  C   UNL     1       6.809   5.083  16.022  0.00  0.00    +0.000 A 
ATOM     11  C   UNL     1       5.559   4.547  15.759  0.00  0.00    +0.000 A 
ATOM     12  C   UNL     1       4.723   4.160  16.804  0.00  0.00    +0.000 A 
ATOM     13  O   UNL     1       5.115   4.314  14.485  0.00  0.00    +0.000 OA
ATOM     14  C   UNL     1       6.225   3.897  13.690  0.00  0.00    +0.000 C 
ATOM     15  C   UNL     1       7.362   4.914  13.739  0.00  0.00    +0.000 C 
ATOM     16  O   UNL     1       7.749   5.327  15.055  0.00  0.00    +0.000 OA
ENDBRANCH   6   7
ENDBRANCH   1   2
BRANCH   1  17
ATOM     17  C   UNL     1       2.793   6.472  19.655  0.00  0.00    +0.000 C 
BRANCH  17  19
ATOM     18  N   UNL     1       1.525   8.500  19.175  0.00  0.00    +0.000 N 
ATOM     19  C   UNL     1       1.761   7.492  20.106  0.00  0.00    +0.000 C 
ATOM     20  O   UNL     1       1.243   7.395  21.216  0.00  0.00    +0.000 OA
ATOM     21  H   UNL     1       1.893   8.354  18.246  0.00  0.00    +0.000 HD
BRANCH  18  24
ATOM     22  C   UNL     1      -0.864  11.318  18.573  0.00  0.00    +0.000 A 
ATOM     23  C   UNL     1      -0.053  10.205  18.336  0.00  0.00    +0.000 A 
ATOM     24  C   UNL     1       0.706   9.637  19.358  0.00  0.00    +0.000 A 
ATOM     25  C   UNL     1       0.636  10.204  20.635  0.00  0.00    +0.000 A 
ATOM     26  C   UNL     1      -0.164  11.327  20.885  0.00  0.00    +0.000 A 
ATOM     27  C   UNL     1      -0.911  11.887  19.843  0.00  0.00    +0.000 A 
BRANCH  22  29
ATOM     28  C   UNL     1      -2.899  11.289  17.332  0.00  0.00    +0.000 C 
ATOM     29  O   UNL     1      -1.565  11.749  17.472  0.00  0.00    +0.000 OA
ENDBRANCH  22  29
BRANCH  26  30
ATOM     30  O   UNL     1      -0.136  11.784  22.174  0.00  0.00    +0.000 OA
ATOM     31  C   UNL     1      -0.841  11.017  23.145  0.00  0.00    +0.000 C 
ENDBRANCH  26  30
ENDBRANCH  18  24
ENDBRANCH  17  19
ENDBRANCH   1  17
TORSDOF 7
ENDMDL
MODEL 6
REMARK VINA RESULT:      -7.4      1.740      3.088
REMARK  Name = 
REMARK  9 active torsions:
REMARK  status: ('A' for Active; 'I' for Inactive)
REMARK    1  A    between atoms: C_1  and  O_2
REMARK    2  A    between atoms: O_2  and  C_3
REMARK    3  A    between atoms: C_5  and  N_6
REMARK    4  A    between atoms: C_7  and  C_9
REMARK    5  A    between atoms: C_9  and  S_10
REMARK    6  A    between atoms: S_10  and  C_11
REMARK    7  A    between atoms: N_15  and  C_16
REMARK    8  A    between atoms: C_27  and  O_28
REMARK    9  A    between atoms: O_28  and  C_29
REMARK                            x       y       z     vdW  Elec       q    Type
REMARK                         _______ _______ _______ _____ _____    ______ ____
ROOT
ATOM      1  S   UNL     1       2.288   3.071  19.711  0.00  0.00    +0.000 S 
ENDROOT
BRANCH   1   2
ATOM      2  C   UNL     1       3.699   4.071  19.742  0.00  0.00    +0.000 A 
ATOM      3  N   UNL     1       4.914   3.605  19.932  0.00  0.00    +0.000 NA
ATOM      4  N   UNL     1       5.750   4.680  19.877  0.00  0.00    +0.000 NA
ATOM      5  N   UNL     1       5.073   5.796  19.664  0.00  0.00    +0.000 NA
ATOM      6  N   UNL     1       3.754   5.457  19.617  0.00  0.00    +0.000 N 
BRANCH   6   7
ATOM      7  C   UNL     1       2.761   6.483  19.618  0.00  0.00    +0.000 A 
ATOM      8  C   UNL     1       1.958   6.779  20.728  0.00  0.00    +0.000 A 
ATOM      9  C   UNL     1       1.234   7.974  20.782  0.00  0.00    +0.000 A 
ATOM     10  C   UNL     1       1.298   8.868  19.722  0.00  0.00    +0.000 A 
ATOM     11  C   UNL     1       1.965   8.515  18.561  0.00  0.00    +0.000 A 
ATOM     12  C   UNL     1       2.675   7.318  18.491  0.00  0.00    +0.000 A 
ATOM     13  O   UNL     1       2.016   9.336  17.466  0.00  0.00    +0.000 OA
ATOM     14  C   UNL     1       2.089  10.687  17.920  0.00  0.00    +0.000 C 
ATOM     15  C   UNL     1       0.933  11.027  18.856  0.00  0.00    +0.000 C 
ATOM     16  O   UNL     1       0.725  10.096  19.925  0.00  0.00    +0.000 OA
ENDBRANCH   6   7
ENDBRANCH   1   2
BRANCH   1  17
ATOM     17  C   UNL     1       2.640   2.009  18.287  0.00  0.00    +0.000 C 
BRANCH  17  19
ATOM     18  N   UNL     1       4.585   2.863  17.087  0.00  0.00    +0.000 N 
ATOM     19  C   UNL     1       3.194   2.844  17.144  0.00  0.00    +0.000 C 
ATOM     20  O   UNL     1       2.429   3.447  16.394  0.00  0.00    +0.000 OA
ATOM     21  H   UNL     1       5.071   2.186  17.659  0.00  0.00    +0.000 HD
BRANCH  18  24
ATOM     22  C   UNL     1       6.894   5.467  15.709  0.00  0.00    +0.000 A 
ATOM     23  C   UNL     1       6.108   4.750  16.615  0.00  0.00    +0.000 A 
ATOM     24  C   UNL     1       5.379   3.633  16.207  0.00  0.00    +0.000 A 
ATOM     25  C   UNL     1       5.454   3.239  14.867  0.00  0.00    +0.000 A 
ATOM     26  C   UNL     1       6.230   3.956  13.946  0.00  0.00    +0.000 A 
ATOM     27  C   UNL     1       6.947   5.078  14.373  0.00  0.00    +0.000 A 
BRANCH  22  29
ATOM     28  C   UNL     1       7.500   6.671  17.675  0.00  0.00    +0.000 C 
ATOM     29  O   UNL     1       7.566   6.528  16.266  0.00  0.00    +0.000 OA
ENDBRANCH  22  29
BRANCH  26  30
ATOM     30  O   UNL     1       6.210   3.467  12.667  0.00  0.00    +0.000 OA
ATOM     31  C   UNL     1       7.102   4.069  11.735  0.00  0.00    +0.000 C 
ENDBRANCH  26  30
ENDBRANCH  18  24
ENDBRANCH  17  19
ENDBRANCH   1  17
TORSDOF 7
ENDMDL
MODEL 7
REMARK VINA RESULT:      -7.3      2.251      8.451
REMARK  Name = 
REMARK  9 active torsions:
REMARK  status: ('A' for Active; 'I' for Inactive)
REMARK    1  A    between atoms: C_1  and  O_2
REMARK    2  A    between atoms: O_2  and  C_3
REMARK    3  A    between atoms: C_5  and  N_6
REMARK    4  A    between atoms: C_7  and  C_9
REMARK    5  A    between atoms: C_9  and  S_10
REMARK    6  A    between atoms: S_10  and  C_11
REMARK    7  A    between atoms: N_15  and  C_16
REMARK    8  A    between atoms: C_27  and  O_28
REMARK    9  A    between atoms: O_28  and  C_29
REMARK                            x       y       z     vdW  Elec       q    Type
REMARK                         _______ _______ _______ _____ _____    ______ ____
ROOT
ATOM      1  S   UNL     1       1.986   5.200  19.227  0.00  0.00    +0.000 S 
ENDROOT
BRANCH   1   2
ATOM      2  C   UNL     1       3.124   3.970  19.655  0.00  0.00    +0.000 A 
ATOM      3  N   UNL     1       2.973   3.169  20.687  0.00  0.00    +0.000 NA
ATOM      4  N   UNL     1       4.053   2.338  20.689  0.00  0.00    +0.000 NA
ATOM      5  N   UNL     1       4.866   2.616  19.684  0.00  0.00    +0.000 NA
ATOM      6  N   UNL     1       4.332   3.683  19.025  0.00  0.00    +0.000 N 
BRANCH   6   7
ATOM      7  C   UNL     1       5.100   4.351  18.023  0.00  0.00    +0.000 A 
ATOM      8  C   UNL     1       6.310   5.006  18.289  0.00  0.00    +0.000 A 
ATOM      9  C   UNL     1       7.166   5.366  17.243  0.00  0.00    +0.000 A 
ATOM     10  C   UNL     1       6.809   5.088  15.932  0.00  0.00    +0.000 A 
ATOM     11  C   UNL     1       5.551   4.580  15.652  0.00  0.00    +0.000 A 
ATOM     12  C   UNL     1       4.684   4.233  16.686  0.00  0.00    +0.000 A 
ATOM     13  O   UNL     1       5.126   4.335  14.374  0.00  0.00    +0.000 OA
ATOM     14  C   UNL     1       6.241   3.876  13.610  0.00  0.00    +0.000 C 
ATOM     15  C   UNL     1       7.403   4.863  13.664  0.00  0.00    +0.000 C 
ATOM     16  O   UNL     1       7.774   5.290  14.980  0.00  0.00    +0.000 OA
ENDBRANCH   6   7
ENDBRANCH   1   2
BRANCH   1  17
ATOM     17  C   UNL     1       1.951   6.192  20.743  0.00  0.00    +0.000 C 
BRANCH  17  19
ATOM     18  N   UNL     1       0.590   8.140  21.294  0.00  0.00    +0.000 N 
ATOM     19  C   UNL     1       1.537   7.618  20.417  0.00  0.00    +0.000 C 
ATOM     20  O   UNL     1       2.011   8.188  19.437  0.00  0.00    +0.000 OA
ATOM     21  H   UNL     1       0.424   7.622  22.145  0.00  0.00    +0.000 HD
BRANCH  18  24
ATOM     22  C   UNL     1      -0.948  11.455  22.106  0.00  0.00    +0.000 A 
ATOM     23  C   UNL     1      -0.321  10.217  22.273  0.00  0.00    +0.000 A 
ATOM     24  C   UNL     1      -0.058   9.391  21.181  0.00  0.00    +0.000 A 
ATOM     25  C   UNL     1      -0.431   9.831  19.906  0.00  0.00    +0.000 A 
ATOM     26  C   UNL     1      -1.069  11.065  19.726  0.00  0.00    +0.000 A 
ATOM     27  C   UNL     1      -1.332  11.875  20.835  0.00  0.00    +0.000 A 
BRANCH  22  29
ATOM     28  C   UNL     1      -0.917  13.563  23.219  0.00  0.00    +0.000 C 
ATOM     29  O   UNL     1      -1.119  12.160  23.273  0.00  0.00    +0.000 OA
ENDBRANCH  22  29
BRANCH  26  30
ATOM     30  O   UNL     1      -1.386  11.370  18.429  0.00  0.00    +0.000 OA
ATOM     31  C   UNL     1      -2.629  10.878  17.938  0.00  0.00    +0.000 C 
ENDBRANCH  26  30
ENDBRANCH  18  24
ENDBRANCH  17  19
ENDBRANCH   1  17
TORSDOF 7
ENDMDL
MODEL 8
REMARK VINA RESULT:      -7.3      2.224      7.672
REMARK  Name = 
REMARK  9 active torsions:
REMARK  status: ('A' for Active; 'I' for Inactive)
REMARK    1  A    between atoms: C_1  and  O_2
REMARK    2  A    between atoms: O_2  and  C_3
REMARK    3  A    between atoms: C_5  and  N_6
REMARK    4  A    between atoms: C_7  and  C_9
REMARK    5  A    between atoms: C_9  and  S_10
REMARK    6  A    between atoms: S_10  and  C_11
REMARK    7  A    between atoms: N_15  and  C_16
REMARK    8  A    between atoms: C_27  and  O_28
REMARK    9  A    between atoms: O_28  and  C_29
REMARK                            x       y       z     vdW  Elec       q    Type
REMARK                         _______ _______ _______ _____ _____    ______ ____
ROOT
ATOM      1  S   UNL     1       1.708   5.391  19.304  0.00  0.00    +0.000 S 
ENDROOT
BRANCH   1   2
ATOM      2  C   UNL     1       2.844   4.148  19.696  0.00  0.00    +0.000 A 
ATOM      3  N   UNL     1       2.699   3.327  20.714  0.00  0.00    +0.000 NA
ATOM      4  N   UNL     1       3.776   2.492  20.689  0.00  0.00    +0.000 NA
ATOM      5  N   UNL     1       4.581   2.787  19.683  0.00  0.00    +0.000 NA
ATOM      6  N   UNL     1       4.046   3.869  19.050  0.00  0.00    +0.000 N 
BRANCH   6   7
ATOM      7  C   UNL     1       4.807   4.554  18.055  0.00  0.00    +0.000 A 
ATOM      8  C   UNL     1       5.899   5.381  18.353  0.00  0.00    +0.000 A 
ATOM      9  C   UNL     1       6.789   5.770  17.347  0.00  0.00    +0.000 A 
ATOM     10  C   UNL     1       6.584   5.347  16.042  0.00  0.00    +0.000 A 
ATOM     11  C   UNL     1       5.428   4.658  15.713  0.00  0.00    +0.000 A 
ATOM     12  C   UNL     1       4.526   4.280  16.705  0.00  0.00    +0.000 A 
ATOM     13  O   UNL     1       5.150   4.262  14.432  0.00  0.00    +0.000 OA
ATOM     14  C   UNL     1       6.374   3.896  13.798  0.00  0.00    +0.000 C 
ATOM     15  C   UNL     1       7.395   5.030  13.854  0.00  0.00    +0.000 C 
ATOM     16  O   UNL     1       7.595   5.601  15.152  0.00  0.00    +0.000 OA
ENDBRANCH   6   7
ENDBRANCH   1   2
BRANCH   1  17
ATOM     17  C   UNL     1       2.673   6.880  19.667  0.00  0.00    +0.000 C 
BRANCH  17  19
ATOM     18  N   UNL     1       1.403   8.963  19.715  0.00  0.00    +0.000 N 
ATOM     19  C   UNL     1       2.097   8.066  18.909  0.00  0.00    +0.000 C 
ATOM     20  O   UNL     1       2.243   8.147  17.691  0.00  0.00    +0.000 OA
ATOM     21  H   UNL     1       1.514   8.856  20.714  0.00  0.00    +0.000 HD
BRANCH  18  24
ATOM     22  C   UNL     1      -1.250  11.153  18.238  0.00  0.00    +0.000 A 
ATOM     23  C   UNL     1      -0.558  10.005  18.633  0.00  0.00    +0.000 A 
ATOM     24  C   UNL     1       0.674  10.093  19.279  0.00  0.00    +0.000 A 
ATOM     25  C   UNL     1       1.206  11.362  19.531  0.00  0.00    +0.000 A 
ATOM     26  C   UNL     1       0.529  12.522  19.132  0.00  0.00    +0.000 A 
ATOM     27  C   UNL     1      -0.702  12.411  18.477  0.00  0.00    +0.000 A 
BRANCH  22  29
ATOM     28  C   UNL     1      -2.487   9.892  16.638  0.00  0.00    +0.000 C 
ATOM     29  O   UNL     1      -2.457  10.903  17.633  0.00  0.00    +0.000 OA
ENDBRANCH  22  29
BRANCH  26  30
ATOM     30  O   UNL     1       1.163  13.696  19.434  0.00  0.00    +0.000 OA
ATOM     31  C   UNL     1       2.586  13.666  19.478  0.00  0.00    +0.000 C 
ENDBRANCH  26  30
ENDBRANCH  18  24
ENDBRANCH  17  19
ENDBRANCH   1  17
TORSDOF 7
ENDMDL
MODEL 9
REMARK VINA RESULT:      -7.2      2.129      7.734
REMARK  Name = 
REMARK  9 active torsions:
REMARK  status: ('A' for Active; 'I' for Inactive)
REMARK    1  A    between atoms: C_1  and  O_2
REMARK    2  A    between atoms: O_2  and  C_3
REMARK    3  A    between atoms: C_5  and  N_6
REMARK    4  A    between atoms: C_7  and  C_9
REMARK    5  A    between atoms: C_9  and  S_10
REMARK    6  A    between atoms: S_10  and  C_11
REMARK    7  A    between atoms: N_15  and  C_16
REMARK    8  A    between atoms: C_27  and  O_28
REMARK    9  A    between atoms: O_28  and  C_29
REMARK                            x       y       z     vdW  Elec       q    Type
REMARK                         _______ _______ _______ _____ _____    ______ ____
ROOT
ATOM      1  S   UNL     1       1.840   4.854  18.575  0.00  0.00    +0.000 S 
ENDROOT
BRANCH   1   2
ATOM      2  C   UNL     1       3.085   3.829  19.199  0.00  0.00    +0.000 A 
ATOM      3  N   UNL     1       2.949   3.099  20.284  0.00  0.00    +0.000 NA
ATOM      4  N   UNL     1       4.123   2.427  20.445  0.00  0.00    +0.000 NA
ATOM      5  N   UNL     1       4.980   2.734  19.486  0.00  0.00    +0.000 NA
ATOM      6  N   UNL     1       4.372   3.662  18.693  0.00  0.00    +0.000 N 
BRANCH   6   7
ATOM      7  C   UNL     1       5.133   4.347  17.698  0.00  0.00    +0.000 A 
ATOM      8  C   UNL     1       6.293   5.080  17.983  0.00  0.00    +0.000 A 
ATOM      9  C   UNL     1       7.161   5.463  16.955  0.00  0.00    +0.000 A 
ATOM     10  C   UNL     1       6.865   5.128  15.642  0.00  0.00    +0.000 A 
ATOM     11  C   UNL     1       5.649   4.539  15.337  0.00  0.00    +0.000 A 
ATOM     12  C   UNL     1       4.770   4.169  16.352  0.00  0.00    +0.000 A 
ATOM     13  O   UNL     1       5.283   4.235  14.053  0.00  0.00    +0.000 OA
ATOM     14  C   UNL     1       6.447   3.823  13.338  0.00  0.00    +0.000 C 
ATOM     15  C   UNL     1       7.547   4.879  13.402  0.00  0.00    +0.000 C 
ATOM     16  O   UNL     1       7.848   5.362  14.716  0.00  0.00    +0.000 OA
ENDBRANCH   6   7
ENDBRANCH   1   2
BRANCH   1  17
ATOM     17  C   UNL     1       2.787   6.333  18.133  0.00  0.00    +0.000 C 
BRANCH  17  19
ATOM     18  N   UNL     1       1.825   8.571  17.997  0.00  0.00    +0.000 N 
ATOM     19  C   UNL     1       2.217   7.545  18.852  0.00  0.00    +0.000 C 
ATOM     20  O   UNL     1       2.164   7.563  20.080  0.00  0.00    +0.000 OA
ATOM     21  H   UNL     1       1.769   8.346  17.014  0.00  0.00    +0.000 HD
BRANCH  18  24
ATOM     22  C   UNL     1      -0.269  11.351  19.377  0.00  0.00    +0.000 A 
ATOM     23  C   UNL     1       0.134  10.067  19.000  0.00  0.00    +0.000 A 
ATOM     24  C   UNL     1       1.364   9.851  18.379  0.00  0.00    +0.000 A 
ATOM     25  C   UNL     1       2.193  10.952  18.142  0.00  0.00    +0.000 A 
ATOM     26  C   UNL     1       1.798  12.247  18.504  0.00  0.00    +0.000 A 
ATOM     27  C   UNL     1       0.557  12.442  19.119  0.00  0.00    +0.000 A 
BRANCH  22  29
ATOM     28  C   UNL     1      -2.220  12.612  19.907  0.00  0.00    +0.000 C 
ATOM     29  O   UNL     1      -1.494  11.397  19.996  0.00  0.00    +0.000 OA
ENDBRANCH  22  29
BRANCH  26  30
ATOM     30  O   UNL     1       2.700  13.233  18.209  0.00  0.00    +0.000 OA
ATOM     31  C   UNL     1       2.516  14.488  18.856  0.00  0.00    +0.000 C 
ENDBRANCH  26  30
ENDBRANCH  18  24
ENDBRANCH  17  19
ENDBRANCH   1  17
TORSDOF 7
ENDMDL
