MODEL 1
REMARK VINA RESULT:      -7.9      0.000      0.000
REMARK  Name = 
REMARK  7 active torsions:
REMARK  status: ('A' for Active; 'I' for Inactive)
REMARK    1  A    between atoms: C_5  and  C_7
REMARK    2  A    between atoms: N_12  and  C_13
REMARK    3  A    between atoms: C_13  and  C_14
REMARK    4  A    between atoms: C_14  and  S_15
REMARK    5  A    between atoms: S_15  and  C_18
REMARK    6  A    between atoms: C_18  and  C_19
REMARK    7  A    between atoms: C_26  and  N_27
REMARK                            x       y       z     vdW  Elec       q    Type
REMARK                         _______ _______ _______ _____ _____    ______ ____
ROOT
ATOM      1  C   UNL     1       1.295   9.823  19.137  0.00  0.00    +0.000 A 
ATOM      2  N   UNL     1       2.133   9.275  18.218  0.00  0.00    +0.000 NA
ATOM      3  C   UNL     1       2.540   8.020  18.518  0.00  0.00    +0.000 A 
ATOM      4 CL   UNL     1       3.551   7.319  17.314  0.00  0.00    +0.000 Cl
ATOM      5  C   UNL     1       2.109   7.292  19.648  0.00  0.00    +0.000 A 
ATOM      6  N   UNL     1       2.437   5.938  19.796  0.00  0.00    +0.000 N 
ATOM      7  N   UNL     1       1.306   7.884  20.567  0.00  0.00    +0.000 NA
ATOM      8  C   UNL     1       0.908   9.158  20.320  0.00  0.00    +0.000 A 
ATOM      9  H   UNL     1       3.437   5.824  19.952  0.00  0.00    +0.000 HD
ENDROOT
BRANCH   1  14
ATOM     10  N   UNL     1      -2.520  11.821  17.337  0.00  0.00    +0.000 NA
ATOM     11  C   UNL     1      -1.356  12.112  17.786  0.00  0.00    +0.000 C 
ATOM     12  N   UNL     1      -0.892  13.380  17.871  0.00  0.00    +0.000 N 
ATOM     13  N   UNL     1      -0.579  11.066  18.190  0.00  0.00    +0.000 N 
ATOM     14  C   UNL     1       0.690  11.139  18.757  0.00  0.00    +0.000 C 
ATOM     15  O   UNL     1       1.249  12.199  19.015  0.00  0.00    +0.000 OA
ATOM     16  H   UNL     1      -2.978  12.690  17.040  0.00  0.00    +0.000 HD
ATOM     17  H   UNL     1      -1.574  14.117  17.984  0.00  0.00    +0.000 HD
ATOM     18  H   UNL     1      -0.070  13.484  18.460  0.00  0.00    +0.000 HD
ATOM     19  H   UNL     1      -1.008  10.153  18.082  0.00  0.00    +0.000 HD
ENDBRANCH   1  14
BRANCH   8  20
ATOM     20  N   UNL     1       0.182   9.747  21.347  0.00  0.00    +0.000 N 
ATOM     21  H   UNL     1       0.776  10.245  21.997  0.00  0.00    +0.000 HD
ATOM     22  H   UNL     1      -0.500   9.121  21.777  0.00  0.00    +0.000 HD
ENDBRANCH   8  20
BRANCH   6  23
ATOM     23  C   UNL     1       1.592   5.097  20.640  0.00  0.00    +0.000 C 
BRANCH  23  24
ATOM     24  C   UNL     1       1.862   3.618  20.397  0.00  0.00    +0.000 C 
BRANCH  24  25
ATOM     25  S   UNL     1       1.464   3.128  18.736  0.00  0.00    +0.000 S 
ATOM     26  O   UNL     1       0.337   2.217  18.842  0.00  0.00    +0.000 OA
ATOM     27  O   UNL     1       1.366   4.345  17.951  0.00  0.00    +0.000 OA
BRANCH  25  28
ATOM     28  C   UNL     1       2.902   2.194  18.199  0.00  0.00    +0.000 C 
BRANCH  28  29
ATOM     29  C   UNL     1       4.033   3.141  17.888  0.00  0.00    +0.000 A 
ATOM     30  C   UNL     1       4.847   3.647  18.915  0.00  0.00    +0.000 A 
ATOM     31  C   UNL     1       5.885   4.535  18.625  0.00  0.00    +0.000 A 
ATOM     32  C   UNL     1       6.120   4.931  17.311  0.00  0.00    +0.000 A 
ATOM     33  C   UNL     1       5.320   4.435  16.284  0.00  0.00    +0.000 A 
ATOM     34  C   UNL     1       4.284   3.543  16.569  0.00  0.00    +0.000 A 
ENDBRANCH  28  29
ENDBRANCH  25  28
ENDBRANCH  24  25
ENDBRANCH  23  24
ENDBRANCH   6  23
TORSDOF 7
ENDMDL
MODEL 2
REMARK VINA RESULT:      -7.9      7.154     10.165
REMARK  Name = 
REMARK  7 active torsions:
REMARK  status: ('A' for Active; 'I' for Inactive)
REMARK    1  A    between atoms: C_5  and  C_7
REMARK    2  A    between atoms: N_12  and  C_13
REMARK    3  A    between atoms: C_13  and  C_14
REMARK    4  A    between atoms: C_14  and  S_15
REMARK    5  A    between atoms: S_15  and  C_18
REMARK    6  A    between atoms: C_18  and  C_19
REMARK    7  A    between atoms: C_26  and  N_27
REMARK                            x       y       z     vdW  Elec       q    Type
REMARK                         _______ _______ _______ _____ _____    ______ ____
ROOT
ATOM      1  C   UNL     1       5.624   5.117  17.734  0.00  0.00    +0.000 A 
ATOM      2  N   UNL     1       6.423   4.836  18.797  0.00  0.00    +0.000 NA
ATOM      3  C   UNL     1       7.415   5.734  18.997  0.00  0.00    +0.000 A 
ATOM      4 CL   UNL     1       8.379   5.395  20.382  0.00  0.00    +0.000 Cl
ATOM      5  C   UNL     1       7.600   6.901  18.225  0.00  0.00    +0.000 A 
ATOM      6  N   UNL     1       8.540   7.869  18.604  0.00  0.00    +0.000 N 
ATOM      7  N   UNL     1       6.811   7.129  17.146  0.00  0.00    +0.000 NA
ATOM      8  C   UNL     1       5.829   6.228  16.889  0.00  0.00    +0.000 A 
ATOM      9  H   UNL     1       9.488   7.508  18.508  0.00  0.00    +0.000 HD
ENDROOT
BRANCH   1  14
ATOM     10  N   UNL     1       3.997   0.803  18.464  0.00  0.00    +0.000 NA
ATOM     11  C   UNL     1       3.642   1.939  17.989  0.00  0.00    +0.000 C 
ATOM     12  N   UNL     1       2.403   2.183  17.504  0.00  0.00    +0.000 N 
ATOM     13  N   UNL     1       4.585   2.925  17.994  0.00  0.00    +0.000 N 
ATOM     14  C   UNL     1       4.417   4.243  17.583  0.00  0.00    +0.000 C 
ATOM     15  O   UNL     1       3.342   4.696  17.205  0.00  0.00    +0.000 OA
ATOM     16  H   UNL     1       3.209   0.153  18.367  0.00  0.00    +0.000 HD
ATOM     17  H   UNL     1       1.641   1.636  17.881  0.00  0.00    +0.000 HD
ATOM     18  H   UNL     1       2.187   3.169  17.390  0.00  0.00    +0.000 HD
ATOM     19  H   UNL     1       5.485   2.647  18.371  0.00  0.00    +0.000 HD
ENDBRANCH   1  14
BRANCH   8  20
ATOM     20  N   UNL     1       5.128   6.456  15.712  0.00  0.00    +0.000 N 
ATOM     21  H   UNL     1       4.134   6.307  15.825  0.00  0.00    +0.000 HD
ATOM     22  H   UNL     1       5.542   6.005  14.896  0.00  0.00    +0.000 HD
ENDBRANCH   8  20
BRANCH   6  23
ATOM     23  C   UNL     1       8.364   9.241  18.137  0.00  0.00    +0.000 C 
BRANCH  23  24
ATOM     24  C   UNL     1       9.201  10.217  18.954  0.00  0.00    +0.000 C 
BRANCH  24  25
ATOM     25  S   UNL     1       9.300  11.817  18.190  0.00  0.00    +0.000 S 
ATOM     26  O   UNL     1      10.609  11.886  17.561  0.00  0.00    +0.000 OA
ATOM     27  O   UNL     1       8.090  11.985  17.407  0.00  0.00    +0.000 OA
BRANCH  25  28
ATOM     28  C   UNL     1       9.272  12.964  19.573  0.00  0.00    +0.000 C 
BRANCH  28  29
ATOM     29  C   UNL     1      10.138  14.157  19.258  0.00  0.00    +0.000 A 
ATOM     30  C   UNL     1       9.734  15.104  18.303  0.00  0.00    +0.000 A 
ATOM     31  C   UNL     1      10.545  16.200  18.003  0.00  0.00    +0.000 A 
ATOM     32  C   UNL     1      11.768  16.362  18.650  0.00  0.00    +0.000 A 
ATOM     33  C   UNL     1      12.179  15.431  19.601  0.00  0.00    +0.000 A 
ATOM     34  C   UNL     1      11.368  14.335  19.906  0.00  0.00    +0.000 A 
ENDBRANCH  28  29
ENDBRANCH  25  28
ENDBRANCH  24  25
ENDBRANCH  23  24
ENDBRANCH   6  23
TORSDOF 7
ENDMDL
MODEL 3
REMARK VINA RESULT:      -7.8      6.753     10.064
REMARK  Name = 
REMARK  7 active torsions:
REMARK  status: ('A' for Active; 'I' for Inactive)
REMARK    1  A    between atoms: C_5  and  C_7
REMARK    2  A    between atoms: N_12  and  C_13
REMARK    3  A    between atoms: C_13  and  C_14
REMARK    4  A    between atoms: C_14  and  S_15
REMARK    5  A    between atoms: S_15  and  C_18
REMARK    6  A    between atoms: C_18  and  C_19
REMARK    7  A    between atoms: C_26  and  N_27
REMARK                            x       y       z     vdW  Elec       q    Type
REMARK                         _______ _______ _______ _____ _____    ______ ____
ROOT
ATOM      1  C   UNL     1       5.612   5.065  17.767  0.00  0.00    +0.000 A 
ATOM      2  N   UNL     1       6.408   4.794  18.835  0.00  0.00    +0.000 NA
ATOM      3  C   UNL     1       7.403   5.691  19.026  0.00  0.00    +0.000 A 
ATOM      4 CL   UNL     1       8.362   5.366  20.417  0.00  0.00    +0.000 Cl
ATOM      5  C   UNL     1       7.593   6.848  18.240  0.00  0.00    +0.000 A 
ATOM      6  N   UNL     1       8.536   7.817  18.608  0.00  0.00    +0.000 N 
ATOM      7  N   UNL     1       6.808   7.066  17.156  0.00  0.00    +0.000 NA
ATOM      8  C   UNL     1       5.822   6.165  16.909  0.00  0.00    +0.000 A 
ATOM      9  H   UNL     1       9.483   7.452  18.518  0.00  0.00    +0.000 HD
ENDROOT
BRANCH   1  14
ATOM     10  N   UNL     1       3.988   0.749  18.490  0.00  0.00    +0.000 NA
ATOM     11  C   UNL     1       3.628   1.888  18.026  0.00  0.00    +0.000 C 
ATOM     12  N   UNL     1       2.385   2.137  17.556  0.00  0.00    +0.000 N 
ATOM     13  N   UNL     1       4.573   2.872  18.026  0.00  0.00    +0.000 N 
ATOM     14  C   UNL     1       4.402   4.193  17.625  0.00  0.00    +0.000 C 
ATOM     15  O   UNL     1       3.324   4.650  17.261  0.00  0.00    +0.000 OA
ATOM     16  H   UNL     1       3.198   0.100  18.398  0.00  0.00    +0.000 HD
ATOM     17  H   UNL     1       1.626   1.588  17.938  0.00  0.00    +0.000 HD
ATOM     18  H   UNL     1       2.169   3.123  17.450  0.00  0.00    +0.000 HD
ATOM     19  H   UNL     1       5.477   2.592  18.391  0.00  0.00    +0.000 HD
ENDBRANCH   1  14
BRANCH   8  20
ATOM     20  N   UNL     1       5.125   6.380  15.727  0.00  0.00    +0.000 N 
ATOM     21  H   UNL     1       4.492   7.167  15.796  0.00  0.00    +0.000 HD
ATOM     22  H   UNL     1       4.718   5.532  15.332  0.00  0.00    +0.000 HD
ENDBRANCH   8  20
BRANCH   6  23
ATOM     23  C   UNL     1       8.365   9.184  18.124  0.00  0.00    +0.000 C 
BRANCH  23  24
ATOM     24  C   UNL     1       9.066  10.186  19.032  0.00  0.00    +0.000 C 
BRANCH  24  25
ATOM     25  S   UNL     1       9.463  11.696  18.185  0.00  0.00    +0.000 S 
ATOM     26  O   UNL     1      10.724  11.457  17.503  0.00  0.00    +0.000 OA
ATOM     27  O   UNL     1       8.278  12.085  17.442  0.00  0.00    +0.000 OA
BRANCH  25  28
ATOM     28  C   UNL     1       9.746  12.878  19.508  0.00  0.00    +0.000 C 
BRANCH  28  29
ATOM     29  C   UNL     1       9.510  14.276  18.995  0.00  0.00    +0.000 A 
ATOM     30  C   UNL     1      10.336  14.825  18.001  0.00  0.00    +0.000 A 
ATOM     31  C   UNL     1      10.123  16.125  17.539  0.00  0.00    +0.000 A 
ATOM     32  C   UNL     1       9.088  16.893  18.064  0.00  0.00    +0.000 A 
ATOM     33  C   UNL     1       8.259  16.360  19.050  0.00  0.00    +0.000 A 
ATOM     34  C   UNL     1       8.467  15.058  19.511  0.00  0.00    +0.000 A 
ENDBRANCH  28  29
ENDBRANCH  25  28
ENDBRANCH  24  25
ENDBRANCH  23  24
ENDBRANCH   6  23
TORSDOF 7
ENDMDL
MODEL 4
REMARK VINA RESULT:      -7.8      3.281      4.826
REMARK  Name = 
REMARK  7 active torsions:
REMARK  status: ('A' for Active; 'I' for Inactive)
REMARK    1  A    between atoms: C_5  and  C_7
REMARK    2  A    between atoms: N_12  and  C_13
REMARK    3  A    between atoms: C_13  and  C_14
REMARK    4  A    between atoms: C_14  and  S_15
REMARK    5  A    between atoms: S_15  and  C_18
REMARK    6  A    between atoms: C_18  and  C_19
REMARK    7  A    between atoms: C_26  and  N_27
REMARK                            x       y       z     vdW  Elec       q    Type
REMARK                         _______ _______ _______ _____ _____    ______ ____
ROOT
ATOM      1  C   UNL     1       1.804   7.272  19.890  0.00  0.00    +0.000 A 
ATOM      2  N   UNL     1       1.723   6.271  20.806  0.00  0.00    +0.000 NA
ATOM      3  C   UNL     1       2.325   5.121  20.425  0.00  0.00    +0.000 A 
ATOM      4 CL   UNL     1       2.266   3.886  21.623  0.00  0.00    +0.000 Cl
ATOM      5  C   UNL     1       3.033   4.956  19.215  0.00  0.00    +0.000 A 
ATOM      6  N   UNL     1       3.776   3.793  18.973  0.00  0.00    +0.000 N 
ATOM      7  N   UNL     1       3.057   5.960  18.304  0.00  0.00    +0.000 NA
ATOM      8  C   UNL     1       2.430   7.118  18.634  0.00  0.00    +0.000 A 
ATOM      9  H   UNL     1       3.161   2.987  18.866  0.00  0.00    +0.000 HD
ENDROOT
BRANCH   1  14
ATOM     10  N   UNL     1       0.287   9.645  23.612  0.00  0.00    +0.000 NA
ATOM     11  C   UNL     1       0.498   9.783  22.355  0.00  0.00    +0.000 C 
ATOM     12  N   UNL     1       0.293  10.946  21.694  0.00  0.00    +0.000 N 
ATOM     13  N   UNL     1       0.953   8.683  21.689  0.00  0.00    +0.000 N 
ATOM     14  C   UNL     1       1.300   8.607  20.343  0.00  0.00    +0.000 C 
ATOM     15  O   UNL     1       1.284   9.575  19.591  0.00  0.00    +0.000 OA
ATOM     16  H   UNL     1      -0.082  10.531  23.976  0.00  0.00    +0.000 HD
ATOM     17  H   UNL     1       0.380  11.802  22.224  0.00  0.00    +0.000 HD
ATOM     18  H   UNL     1       0.724  10.983  20.775  0.00  0.00    +0.000 HD
ATOM     19  H   UNL     1       1.070   7.857  22.265  0.00  0.00    +0.000 HD
ENDBRANCH   1  14
BRANCH   8  20
ATOM     20  N   UNL     1       2.394   8.066  17.620  0.00  0.00    +0.000 N 
ATOM     21  H   UNL     1       2.406   7.642  16.702  0.00  0.00    +0.000 HD
ATOM     22  H   UNL     1       3.056   8.831  17.752  0.00  0.00    +0.000 HD
ENDBRANCH   8  20
BRANCH   6  23
ATOM     23  C   UNL     1       4.875   3.848  18.014  0.00  0.00    +0.000 C 
BRANCH  23  24
ATOM     24  C   UNL     1       6.032   4.686  18.543  0.00  0.00    +0.000 C 
BRANCH  24  25
ATOM     25  S   UNL     1       7.056   5.316  17.236  0.00  0.00    +0.000 S 
ATOM     26  O   UNL     1       7.662   6.535  17.748  0.00  0.00    +0.000 OA
ATOM     27  O   UNL     1       7.879   4.213  16.778  0.00  0.00    +0.000 OA
BRANCH  25  28
ATOM     28  C   UNL     1       5.891   5.760  15.942  0.00  0.00    +0.000 C 
BRANCH  28  29
ATOM     29  C   UNL     1       6.296   5.100  14.649  0.00  0.00    +0.000 A 
ATOM     30  C   UNL     1       7.429   5.537  13.945  0.00  0.00    +0.000 A 
ATOM     31  C   UNL     1       7.793   4.933  12.740  0.00  0.00    +0.000 A 
ATOM     32  C   UNL     1       7.030   3.890  12.222  0.00  0.00    +0.000 A 
ATOM     33  C   UNL     1       5.904   3.446  12.912  0.00  0.00    +0.000 A 
ATOM     34  C   UNL     1       5.540   4.045  14.120  0.00  0.00    +0.000 A 
ENDBRANCH  28  29
ENDBRANCH  25  28
ENDBRANCH  24  25
ENDBRANCH  23  24
ENDBRANCH   6  23
TORSDOF 7
ENDMDL
MODEL 5
REMARK VINA RESULT:      -7.8      1.508      1.714
REMARK  Name = 
REMARK  7 active torsions:
REMARK  status: ('A' for Active; 'I' for Inactive)
REMARK    1  A    between atoms: C_5  and  C_7
REMARK    2  A    between atoms: N_12  and  C_13
REMARK    3  A    between atoms: C_13  and  C_14
REMARK    4  A    between atoms: C_14  and  S_15
REMARK    5  A    between atoms: S_15  and  C_18
REMARK    6  A    between atoms: C_18  and  C_19
REMARK    7  A    between atoms: C_26  and  N_27
REMARK                            x       y       z     vdW  Elec       q    Type
REMARK                         _______ _______ _______ _____ _____    ______ ____
ROOT
ATOM      1  C   UNL     1       0.113   9.884  20.294  0.00  0.00    +0.000 A 
ATOM      2  N   UNL     1       0.847   9.779  19.155  0.00  0.00    +0.000 NA
ATOM      3  C   UNL     1       1.673   8.708  19.125  0.00  0.00    +0.000 A 
ATOM      4 CL   UNL     1       2.549   8.557  17.652  0.00  0.00    +0.000 Cl
ATOM      5  C   UNL     1       1.751   7.733  20.144  0.00  0.00    +0.000 A 
ATOM      6  N   UNL     1       2.500   6.563  19.961  0.00  0.00    +0.000 N 
ATOM      7  N   UNL     1       1.036   7.891  21.285  0.00  0.00    +0.000 NA
ATOM      8  C   UNL     1       0.225   8.977  21.369  0.00  0.00    +0.000 A 
ATOM      9  H   UNL     1       3.495   6.775  19.919  0.00  0.00    +0.000 HD
ENDROOT
BRANCH   1  14
ATOM     10  N   UNL     1      -3.149  11.943  17.666  0.00  0.00    +0.000 NA
ATOM     11  C   UNL     1      -2.625  11.998  18.834  0.00  0.00    +0.000 C 
ATOM     12  N   UNL     1      -3.030  12.867  19.788  0.00  0.00    +0.000 N 
ATOM     13  N   UNL     1      -1.613  11.118  19.090  0.00  0.00    +0.000 N 
ATOM     14  C   UNL     1      -0.933  10.956  20.293  0.00  0.00    +0.000 C 
ATOM     15  O   UNL     1      -1.216  11.576  21.312  0.00  0.00    +0.000 OA
ATOM     16  H   UNL     1      -3.866  12.675  17.601  0.00  0.00    +0.000 HD
ATOM     17  H   UNL     1      -3.991  13.181  19.751  0.00  0.00    +0.000 HD
ATOM     18  H   UNL     1      -2.704  12.642  20.723  0.00  0.00    +0.000 HD
ATOM     19  H   UNL     1      -1.374  10.510  18.314  0.00  0.00    +0.000 HD
ENDBRANCH   1  14
BRANCH   8  20
ATOM     20  N   UNL     1      -0.394   9.143  22.601  0.00  0.00    +0.000 N 
ATOM     21  H   UNL     1      -0.020   9.932  23.112  0.00  0.00    +0.000 HD
ATOM     22  H   UNL     1      -0.474   8.280  23.139  0.00  0.00    +0.000 HD
ENDBRANCH   8  20
BRANCH   6  23
ATOM     23  C   UNL     1       2.164   5.383  20.751  0.00  0.00    +0.000 C 
BRANCH  23  24
ATOM     24  C   UNL     1       1.233   4.450  19.988  0.00  0.00    +0.000 C 
BRANCH  24  25
ATOM     25  S   UNL     1       2.059   3.630  18.646  0.00  0.00    +0.000 S 
ATOM     26  O   UNL     1       1.838   2.207  18.843  0.00  0.00    +0.000 OA
ATOM     27  O   UNL     1       1.631   4.286  17.424  0.00  0.00    +0.000 OA
BRANCH  25  28
ATOM     28  C   UNL     1       3.800   3.980  18.924  0.00  0.00    +0.000 C 
BRANCH  28  29
ATOM     29  C   UNL     1       4.418   4.513  17.657  0.00  0.00    +0.000 A 
ATOM     30  C   UNL     1       4.641   5.889  17.491  0.00  0.00    +0.000 A 
ATOM     31  C   UNL     1       5.200   6.380  16.310  0.00  0.00    +0.000 A 
ATOM     32  C   UNL     1       5.539   5.506  15.281  0.00  0.00    +0.000 A 
ATOM     33  C   UNL     1       5.325   4.138  15.433  0.00  0.00    +0.000 A 
ATOM     34  C   UNL     1       4.769   3.643  16.615  0.00  0.00    +0.000 A 
ENDBRANCH  28  29
ENDBRANCH  25  28
ENDBRANCH  24  25
ENDBRANCH  23  24
ENDBRANCH   6  23
TORSDOF 7
ENDMDL
MODEL 6
REMARK VINA RESULT:      -7.7      1.189      1.424
REMARK  Name = 
REMARK  7 active torsions:
REMARK  status: ('A' for Active; 'I' for Inactive)
REMARK    1  A    between atoms: C_5  and  C_7
REMARK    2  A    between atoms: N_12  and  C_13
REMARK    3  A    between atoms: C_13  and  C_14
REMARK    4  A    between atoms: C_14  and  S_15
REMARK    5  A    between atoms: S_15  and  C_18
REMARK    6  A    between atoms: C_18  and  C_19
REMARK    7  A    between atoms: C_26  and  N_27
REMARK                            x       y       z     vdW  Elec       q    Type
REMARK                         _______ _______ _______ _____ _____    ______ ____
ROOT
ATOM      1  C   UNL     1       0.750   9.646  19.813  0.00  0.00    +0.000 A 
ATOM      2  N   UNL     1       1.590   9.312  18.798  0.00  0.00    +0.000 NA
ATOM      3  C   UNL     1       2.216   8.124  18.965  0.00  0.00    +0.000 A 
ATOM      4 CL   UNL     1       3.227   7.689  17.642  0.00  0.00    +0.000 Cl
ATOM      5  C   UNL     1       1.998   7.256  20.056  0.00  0.00    +0.000 A 
ATOM      6  N   UNL     1       2.550   5.968  20.069  0.00  0.00    +0.000 N 
ATOM      7  N   UNL     1       1.187   7.639  21.073  0.00  0.00    +0.000 NA
ATOM      8  C   UNL     1       0.571   8.844  20.960  0.00  0.00    +0.000 A 
ATOM      9  H   UNL     1       3.565   6.012  20.148  0.00  0.00    +0.000 HD
ENDROOT
BRANCH   1  14
ATOM     10  N   UNL     1      -1.994  11.790  16.705  0.00  0.00    +0.000 NA
ATOM     11  C   UNL     1      -1.510  11.939  17.883  0.00  0.00    +0.000 C 
ATOM     12  N   UNL     1      -1.788  13.004  18.668  0.00  0.00    +0.000 N 
ATOM     13  N   UNL     1      -0.682  10.951  18.331  0.00  0.00    +0.000 N 
ATOM     14  C   UNL     1      -0.086  10.867  19.586  0.00  0.00    +0.000 C 
ATOM     15  O   UNL     1      -0.290  11.680  20.481  0.00  0.00    +0.000 OA
ATOM     16  H   UNL     1      -2.565  12.614  16.486  0.00  0.00    +0.000 HD
ATOM     17  H   UNL     1      -2.675  13.468  18.524  0.00  0.00    +0.000 HD
ATOM     18  H   UNL     1      -1.542  12.878  19.645  0.00  0.00    +0.000 HD
ATOM     19  H   UNL     1      -0.528  10.196  17.672  0.00  0.00    +0.000 HD
ENDBRANCH   1  14
BRANCH   8  20
ATOM     20  N   UNL     1      -0.157   9.229  22.078  0.00  0.00    +0.000 N 
ATOM     21  H   UNL     1      -1.066   8.786  22.112  0.00  0.00    +0.000 HD
ATOM     22  H   UNL     1      -0.161  10.237  22.237  0.00  0.00    +0.000 HD
ENDBRANCH   8  20
BRANCH   6  23
ATOM     23  C   UNL     1       1.921   4.941  20.894  0.00  0.00    +0.000 C 
BRANCH  23  24
ATOM     24  C   UNL     1       2.655   3.611  20.780  0.00  0.00    +0.000 C 
BRANCH  24  25
ATOM     25  S   UNL     1       3.175   3.273  19.115  0.00  0.00    +0.000 S 
ATOM     26  O   UNL     1       3.043   1.837  18.934  0.00  0.00    +0.000 OA
ATOM     27  O   UNL     1       2.461   4.199  18.256  0.00  0.00    +0.000 OA
BRANCH  25  28
ATOM     28  C   UNL     1       4.922   3.690  19.109  0.00  0.00    +0.000 C 
BRANCH  28  29
ATOM     29  C   UNL     1       5.287   4.323  17.790  0.00  0.00    +0.000 A 
ATOM     30  C   UNL     1       5.966   5.551  17.748  0.00  0.00    +0.000 A 
ATOM     31  C   UNL     1       6.289   6.142  16.525  0.00  0.00    +0.000 A 
ATOM     32  C   UNL     1       5.935   5.517  15.332  0.00  0.00    +0.000 A 
ATOM     33  C   UNL     1       5.263   4.297  15.360  0.00  0.00    +0.000 A 
ATOM     34  C   UNL     1       4.942   3.701  16.582  0.00  0.00    +0.000 A 
ENDBRANCH  28  29
ENDBRANCH  25  28
ENDBRANCH  24  25
ENDBRANCH  23  24
ENDBRANCH   6  23
TORSDOF 7
ENDMDL
MODEL 7
REMARK VINA RESULT:      -7.6      4.084      8.320
REMARK  Name = 
REMARK  7 active torsions:
REMARK  status: ('A' for Active; 'I' for Inactive)
REMARK    1  A    between atoms: C_5  and  C_7
REMARK    2  A    between atoms: N_12  and  C_13
REMARK    3  A    between atoms: C_13  and  C_14
REMARK    4  A    between atoms: C_14  and  S_15
REMARK    5  A    between atoms: S_15  and  C_18
REMARK    6  A    between atoms: C_18  and  C_19
REMARK    7  A    between atoms: C_26  and  N_27
REMARK                            x       y       z     vdW  Elec       q    Type
REMARK                         _______ _______ _______ _____ _____    ______ ____
ROOT
ATOM      1  C   UNL     1       5.318   5.057  16.149  0.00  0.00    +0.000 A 
ATOM      2  N   UNL     1       4.402   4.091  16.422  0.00  0.00    +0.000 NA
ATOM      3  C   UNL     1       3.560   4.396  17.436  0.00  0.00    +0.000 A 
ATOM      4 CL   UNL     1       2.370   3.187  17.726  0.00  0.00    +0.000 Cl
ATOM      5  C   UNL     1       3.566   5.622  18.135  0.00  0.00    +0.000 A 
ATOM      6  N   UNL     1       2.552   5.930  19.051  0.00  0.00    +0.000 N 
ATOM      7  N   UNL     1       4.520   6.547  17.866  0.00  0.00    +0.000 NA
ATOM      8  C   UNL     1       5.409   6.261  16.881  0.00  0.00    +0.000 A 
ATOM      9  H   UNL     1       2.609   5.323  19.868  0.00  0.00    +0.000 HD
ENDROOT
BRANCH   1  14
ATOM     10  N   UNL     1       5.327   3.078  11.921  0.00  0.00    +0.000 NA
ATOM     11  C   UNL     1       6.080   3.746  12.715  0.00  0.00    +0.000 C 
ATOM     12  N   UNL     1       7.337   4.128  12.395  0.00  0.00    +0.000 N 
ATOM     13  N   UNL     1       5.550   4.071  13.929  0.00  0.00    +0.000 N 
ATOM     14  C   UNL     1       6.153   4.831  14.926  0.00  0.00    +0.000 C 
ATOM     15  O   UNL     1       7.253   5.357  14.796  0.00  0.00    +0.000 OA
ATOM     16  H   UNL     1       5.859   2.875  11.068  0.00  0.00    +0.000 HD
ATOM     17  H   UNL     1       7.546   4.264  11.415  0.00  0.00    +0.000 HD
ATOM     18  H   UNL     1       7.722   4.845  13.002  0.00  0.00    +0.000 HD
ATOM     19  H   UNL     1       4.605   3.737  14.082  0.00  0.00    +0.000 HD
ENDBRANCH   1  14
BRANCH   8  20
ATOM     20  N   UNL     1       6.425   7.194  16.728  0.00  0.00    +0.000 N 
ATOM     21  H   UNL     1       7.337   6.801  16.924  0.00  0.00    +0.000 HD
ATOM     22  H   UNL     1       6.234   8.086  17.184  0.00  0.00    +0.000 HD
ENDBRANCH   8  20
BRANCH   6  23
ATOM     23  C   UNL     1       2.280   7.331  19.354  0.00  0.00    +0.000 C 
BRANCH  23  24
ATOM     24  C   UNL     1       1.819   7.508  20.796  0.00  0.00    +0.000 C 
BRANCH  24  25
ATOM     25  S   UNL     1       0.836   8.972  21.010  0.00  0.00    +0.000 S 
ATOM     26  O   UNL     1      -0.533   8.517  21.189  0.00  0.00    +0.000 OA
ATOM     27  O   UNL     1       1.492   9.774  22.027  0.00  0.00    +0.000 OA
BRANCH  25  28
ATOM     28  C   UNL     1       0.954   9.814  19.427  0.00  0.00    +0.000 C 
BRANCH  28  29
ATOM     29  C   UNL     1      -0.372  10.449  19.093  0.00  0.00    +0.000 A 
ATOM     30  C   UNL     1      -1.120  10.008  17.990  0.00  0.00    +0.000 A 
ATOM     31  C   UNL     1      -2.341  10.608  17.674  0.00  0.00    +0.000 A 
ATOM     32  C   UNL     1      -2.827  11.655  18.452  0.00  0.00    +0.000 A 
ATOM     33  C   UNL     1      -2.094  12.101  19.550  0.00  0.00    +0.000 A 
ATOM     34  C   UNL     1      -0.875  11.500  19.871  0.00  0.00    +0.000 A 
ENDBRANCH  28  29
ENDBRANCH  25  28
ENDBRANCH  24  25
ENDBRANCH  23  24
ENDBRANCH   6  23
TORSDOF 7
ENDMDL
MODEL 8
REMARK VINA RESULT:      -7.6      1.679      1.976
REMARK  Name = 
REMARK  7 active torsions:
REMARK  status: ('A' for Active; 'I' for Inactive)
REMARK    1  A    between atoms: C_5  and  C_7
REMARK    2  A    between atoms: N_12  and  C_13
REMARK    3  A    between atoms: C_13  and  C_14
REMARK    4  A    between atoms: C_14  and  S_15
REMARK    5  A    between atoms: S_15  and  C_18
REMARK    6  A    between atoms: C_18  and  C_19
REMARK    7  A    between atoms: C_26  and  N_27
REMARK                            x       y       z     vdW  Elec       q    Type
REMARK                         _______ _______ _______ _____ _____    ______ ____
ROOT
ATOM      1  C   UNL     1       0.327  10.202  20.788  0.00  0.00    +0.000 A 
ATOM      2  N   UNL     1       0.831  10.059  19.534  0.00  0.00    +0.000 NA
ATOM      3  C   UNL     1       1.543   8.924  19.349  0.00  0.00    +0.000 A 
ATOM      4 CL   UNL     1       2.120   8.730  17.739  0.00  0.00    +0.000 Cl
ATOM      5  C   UNL     1       1.722   7.926  20.332  0.00  0.00    +0.000 A 
ATOM      6  N   UNL     1       2.322   6.702  20.010  0.00  0.00    +0.000 N 
ATOM      7  N   UNL     1       1.243   8.120  21.586  0.00  0.00    +0.000 NA
ATOM      8  C   UNL     1       0.556   9.267  21.821  0.00  0.00    +0.000 A 
ATOM      9  H   UNL     1       3.308   6.832  19.787  0.00  0.00    +0.000 HD
ENDROOT
BRANCH   1  14
ATOM     10  N   UNL     1      -3.363  12.397  18.958  0.00  0.00    +0.000 NA
ATOM     11  C   UNL     1      -2.547  12.464  19.943  0.00  0.00    +0.000 C 
ATOM     12  N   UNL     1      -2.626  13.410  20.907  0.00  0.00    +0.000 N 
ATOM     13  N   UNL     1      -1.566  11.516  19.989  0.00  0.00    +0.000 N 
ATOM     14  C   UNL     1      -0.606  11.357  20.984  0.00  0.00    +0.000 C 
ATOM     15  O   UNL     1      -0.567  12.048  21.996  0.00  0.00    +0.000 OA
ATOM     16  H   UNL     1      -4.019  13.182  19.029  0.00  0.00    +0.000 HD
ATOM     17  H   UNL     1      -3.539  13.802  21.098  0.00  0.00    +0.000 HD
ATOM     18  H   UNL     1      -2.082  13.204  21.739  0.00  0.00    +0.000 HD
ATOM     19  H   UNL     1      -1.582  10.853  19.222  0.00  0.00    +0.000 HD
ENDBRANCH   1  14
BRANCH   8  20
ATOM     20  N   UNL     1       0.188   9.460  23.146  0.00  0.00    +0.000 N 
ATOM     21  H   UNL     1       0.591  10.303  23.535  0.00  0.00    +0.000 HD
ATOM     22  H   UNL     1       0.291   8.626  23.725  0.00  0.00    +0.000 HD
ENDBRANCH   8  20
BRANCH   6  23
ATOM     23  C   UNL     1       2.037   5.538  20.843  0.00  0.00    +0.000 C 
BRANCH  23  24
ATOM     24  C   UNL     1       1.128   4.550  20.124  0.00  0.00    +0.000 C 
BRANCH  24  25
ATOM     25  S   UNL     1       1.808   4.025  18.569  0.00  0.00    +0.000 S 
ATOM     26  O   UNL     1       1.069   2.832  18.186  0.00  0.00    +0.000 OA
ATOM     27  O   UNL     1       1.834   5.191  17.706  0.00  0.00    +0.000 OA
BRANCH  25  28
ATOM     28  C   UNL     1       3.494   3.547  18.966  0.00  0.00    +0.000 C 
BRANCH  28  29
ATOM     29  C   UNL     1       4.454   4.289  18.072  0.00  0.00    +0.000 A 
ATOM     30  C   UNL     1       4.583   3.945  16.717  0.00  0.00    +0.000 A 
ATOM     31  C   UNL     1       5.484   4.625  15.895  0.00  0.00    +0.000 A 
ATOM     32  C   UNL     1       6.267   5.652  16.415  0.00  0.00    +0.000 A 
ATOM     33  C   UNL     1       6.147   6.004  17.758  0.00  0.00    +0.000 A 
ATOM     34  C   UNL     1       5.244   5.328  18.582  0.00  0.00    +0.000 A 
ENDBRANCH  28  29
ENDBRANCH  25  28
ENDBRANCH  24  25
ENDBRANCH  23  24
ENDBRANCH   6  23
TORSDOF 7
ENDMDL
MODEL 9
REMARK VINA RESULT:      -7.6      1.294      1.732
REMARK  Name = 
REMARK  7 active torsions:
REMARK  status: ('A' for Active; 'I' for Inactive)
REMARK    1  A    between atoms: C_5  and  C_7
REMARK    2  A    between atoms: N_12  and  C_13
REMARK    3  A    between atoms: C_13  and  C_14
REMARK    4  A    between atoms: C_14  and  S_15
REMARK    5  A    between atoms: S_15  and  C_18
REMARK    6  A    between atoms: C_18  and  C_19
REMARK    7  A    between atoms: C_26  and  N_27
REMARK                            x       y       z     vdW  Elec       q    Type
REMARK                         _______ _______ _______ _____ _____    ______ ____
ROOT
ATOM      1  C   UNL     1       0.646   9.898  19.878  0.00  0.00    +0.000 A 
ATOM      2  N   UNL     1       1.457   9.596  18.830  0.00  0.00    +0.000 NA
ATOM      3  C   UNL     1       2.100   8.412  18.951  0.00  0.00    +0.000 A 
ATOM      4 CL   UNL     1       3.074   8.017  17.588  0.00  0.00    +0.000 Cl
ATOM      5  C   UNL     1       1.925   7.517  20.028  0.00  0.00    +0.000 A 
ATOM      6  N   UNL     1       2.490   6.235  19.995  0.00  0.00    +0.000 N 
ATOM      7  N   UNL     1       1.142   7.869  21.078  0.00  0.00    +0.000 NA
ATOM      8  C   UNL     1       0.510   9.069  21.011  0.00  0.00    +0.000 A 
ATOM      9  H   UNL     1       3.507   6.288  20.044  0.00  0.00    +0.000 HD
ENDROOT
BRANCH   1  14
ATOM     10  N   UNL     1       0.747  14.434  18.781  0.00  0.00    +0.000 NA
ATOM     11  C   UNL     1      -0.067  13.507  19.128  0.00  0.00    +0.000 C 
ATOM     12  N   UNL     1      -1.399  13.701  19.254  0.00  0.00    +0.000 N 
ATOM     13  N   UNL     1       0.476  12.278  19.369  0.00  0.00    +0.000 N 
ATOM     14  C   UNL     1      -0.210  11.115  19.703  0.00  0.00    +0.000 C 
ATOM     15  O   UNL     1      -1.433  11.052  19.769  0.00  0.00    +0.000 OA
ATOM     16  H   UNL     1       0.214  15.304  18.666  0.00  0.00    +0.000 HD
ATOM     17  H   UNL     1      -1.818  14.428  18.689  0.00  0.00    +0.000 HD
ATOM     18  H   UNL     1      -1.943  12.845  19.293  0.00  0.00    +0.000 HD
ATOM     19  H   UNL     1       1.482  12.230  19.256  0.00  0.00    +0.000 HD
ENDBRANCH   1  14
BRANCH   8  20
ATOM     20  N   UNL     1      -0.186   9.421  22.160  0.00  0.00    +0.000 N 
ATOM     21  H   UNL     1      -0.932   8.769  22.368  0.00  0.00    +0.000 HD
ATOM     22  H   UNL     1      -0.452  10.405  22.192  0.00  0.00    +0.000 HD
ENDBRANCH   8  20
BRANCH   6  23
ATOM     23  C   UNL     1       1.898   5.184  20.816  0.00  0.00    +0.000 C 
BRANCH  23  24
ATOM     24  C   UNL     1       2.595   3.848  20.593  0.00  0.00    +0.000 C 
BRANCH  24  25
ATOM     25  S   UNL     1       2.230   3.160  18.996  0.00  0.00    +0.000 S 
ATOM     26  O   UNL     1       1.430   1.971  19.241  0.00  0.00    +0.000 OA
ATOM     27  O   UNL     1       1.720   4.244  18.178  0.00  0.00    +0.000 OA
BRANCH  25  28
ATOM     28  C   UNL     1       3.832   2.647  18.364  0.00  0.00    +0.000 C 
BRANCH  28  29
ATOM     29  C   UNL     1       4.585   3.851  17.858  0.00  0.00    +0.000 A 
ATOM     30  C   UNL     1       4.519   4.222  16.505  0.00  0.00    +0.000 A 
ATOM     31  C   UNL     1       5.229   5.329  16.037  0.00  0.00    +0.000 A 
ATOM     32  C   UNL     1       6.014   6.077  16.911  0.00  0.00    +0.000 A 
ATOM     33  C   UNL     1       6.087   5.720  18.256  0.00  0.00    +0.000 A 
ATOM     34  C   UNL     1       5.374   4.616  18.728  0.00  0.00    +0.000 A 
ENDBRANCH  28  29
ENDBRANCH  25  28
ENDBRANCH  24  25
ENDBRANCH  23  24
ENDBRANCH   6  23
TORSDOF 7
ENDMDL
