MODEL 1
REMARK VINA RESULT:      -7.5      0.000      0.000
REMARK  Name = 
REMARK  11 active torsions:
REMARK  status: ('A' for Active; 'I' for Inactive)
REMARK    1  A    between atoms: C_1  and  O_2
REMARK    2  A    between atoms: O_2  and  C_3
REMARK    3  A    between atoms: C_3  and  C_4
REMARK    4  A    between atoms: C_10  and  C_12
REMARK    5  A    between atoms: C_15  and  O_16
REMARK    6  A    between atoms: O_16  and  C_17
REMARK    7  A    between atoms: C_18  and  O_19
REMARK    8  A    between atoms: O_19  and  C_20
REMARK    9  A    between atoms: N_23  and  C_24
REMARK   10  A    between atoms: C_24  and  C_25
REMARK   11  A    between atoms: C_24  and  C_26
REMARK                            x       y       z     vdW  Elec       q    Type
REMARK                         _______ _______ _______ _____ _____    ______ ____
ROOT
ATOM      1  C   UNL     1       2.086   6.167  19.759  0.00  0.00    +0.000 A 
ATOM      2  C   UNL     1       1.428   4.941  19.708  0.00  0.00    +0.000 A 
ATOM      3  C   UNL     1       2.016   3.859  19.051  0.00  0.00    +0.000 A 
ATOM      4  C   UNL     1       3.308   3.922  18.514  0.00  0.00    +0.000 A 
ATOM      5  C   UNL     1       4.053   5.108  18.657  0.00  0.00    +0.000 A 
ATOM      6  C   UNL     1       3.416   6.222  19.260  0.00  0.00    +0.000 A 
ENDROOT
BRANCH   1  13
ATOM      7  C   UNL     1       0.891   9.860  20.488  0.00  0.00    +0.000 C 
ATOM      8  C   UNL     1      -0.454  10.162  19.792  0.00  0.00    +0.000 C 
ATOM      9  C   UNL     1      -0.275  10.332  18.281  0.00  0.00    +0.000 C 
ATOM     10  C   UNL     1       0.503   9.162  17.675  0.00  0.00    +0.000 C 
ATOM     11  C   UNL     1       1.818   8.945  18.433  0.00  0.00    +0.000 C 
ATOM     12  N   UNL     1       1.516   8.668  19.839  0.00  0.00    +0.000 N 
ATOM     13  C   UNL     1       1.527   7.394  20.441  0.00  0.00    +0.000 C 
ATOM     14  O   UNL     1       1.107   7.200  21.583  0.00  0.00    +0.000 OA
BRANCH   7  15
ATOM     15  C   UNL     1       0.707   9.926  22.018  0.00  0.00    +0.000 C 
BRANCH  15  17
ATOM     16  C   UNL     1      -1.157  10.809  23.149  0.00  0.00    +0.000 C 
ATOM     17  O   UNL     1       0.018  11.117  22.406  0.00  0.00    +0.000 OA
ENDBRANCH  15  17
ENDBRANCH   7  15
ENDBRANCH   1  13
BRANCH   4  18
ATOM     18  O   UNL     1       3.649   2.741  17.912  0.00  0.00    +0.000 OA
ATOM     19  C   UNL     1       3.468   1.513  18.597  0.00  0.00    +0.000 C 
ENDBRANCH   4  18
BRANCH   5  20
ATOM     20  O   UNL     1       5.364   5.117  18.229  0.00  0.00    +0.000 OA
BRANCH  20  21
ATOM     21  C   UNL     1       5.896   6.281  17.578  0.00  0.00    +0.000 C 
ATOM     22  C   UNL     1       5.080   6.610  16.327  0.00  0.00    +0.000 C 
ATOM     23  C   UNL     1       5.319   5.652  15.160  0.00  0.00    +0.000 C 
ATOM     24  N   UNL     1       6.737   5.462  14.799  0.00  0.00    +0.000 NA
ATOM     25  C   UNL     1       7.549   5.151  15.990  0.00  0.00    +0.000 C 
ATOM     26  C   UNL     1       7.356   6.095  17.180  0.00  0.00    +0.000 C 
BRANCH  24  27
ATOM     27  C   UNL     1       6.873   4.391  13.759  0.00  0.00    +0.000 C 
ATOM     28  C   UNL     1       5.518   3.778  13.363  0.00  0.00    +0.000 C 
ATOM     29  C   UNL     1       7.562   4.863  12.466  0.00  0.00    +0.000 C 
ENDBRANCH  24  27
ENDBRANCH  20  21
ENDBRANCH   5  20
TORSDOF 7
ENDMDL
MODEL 2
REMARK VINA RESULT:      -7.4      0.964      1.166
REMARK  Name = 
REMARK  11 active torsions:
REMARK  status: ('A' for Active; 'I' for Inactive)
REMARK    1  A    between atoms: C_1  and  O_2
REMARK    2  A    between atoms: O_2  and  C_3
REMARK    3  A    between atoms: C_3  and  C_4
REMARK    4  A    between atoms: C_10  and  C_12
REMARK    5  A    between atoms: C_15  and  O_16
REMARK    6  A    between atoms: O_16  and  C_17
REMARK    7  A    between atoms: C_18  and  O_19
REMARK    8  A    between atoms: O_19  and  C_20
REMARK    9  A    between atoms: N_23  and  C_24
REMARK   10  A    between atoms: C_24  and  C_25
REMARK   11  A    between atoms: C_24  and  C_26
REMARK                            x       y       z     vdW  Elec       q    Type
REMARK                         _______ _______ _______ _____ _____    ______ ____
ROOT
ATOM      1  C   UNL     1       2.036   6.759  20.120  0.00  0.00    +0.000 A 
ATOM      2  C   UNL     1       1.507   5.563  20.597  0.00  0.00    +0.000 A 
ATOM      3  C   UNL     1       2.049   4.345  20.182  0.00  0.00    +0.000 A 
ATOM      4  C   UNL     1       3.185   4.270  19.369  0.00  0.00    +0.000 A 
ATOM      5  C   UNL     1       3.821   5.460  18.968  0.00  0.00    +0.000 A 
ATOM      6  C   UNL     1       3.218   6.690  19.334  0.00  0.00    +0.000 A 
ENDROOT
BRANCH   1  13
ATOM      7  C   UNL     1       0.749  10.489  19.954  0.00  0.00    +0.000 C 
ATOM      8  C   UNL     1      -0.699  10.561  19.421  0.00  0.00    +0.000 C 
ATOM      9  C   UNL     1      -0.753  10.291  17.915  0.00  0.00    +0.000 C 
ATOM     10  C   UNL     1      -0.006   9.006  17.550  0.00  0.00    +0.000 C 
ATOM     11  C   UNL     1       1.416   9.034  18.122  0.00  0.00    +0.000 C 
ATOM     12  N   UNL     1       1.340   9.170  19.579  0.00  0.00    +0.000 N 
ATOM     13  C   UNL     1       1.512   8.123  20.506  0.00  0.00    +0.000 C 
ATOM     14  O   UNL     1       1.276   8.260  21.707  0.00  0.00    +0.000 OA
BRANCH   7  15
ATOM     15  C   UNL     1       0.788  10.991  21.413  0.00  0.00    +0.000 C 
BRANCH  15  17
ATOM     16  C   UNL     1       1.858  12.733  20.250  0.00  0.00    +0.000 C 
ATOM     17  O   UNL     1       1.275  12.333  21.486  0.00  0.00    +0.000 OA
ENDBRANCH  15  17
ENDBRANCH   7  15
ENDBRANCH   1  13
BRANCH   4  18
ATOM     18  O   UNL     1       3.509   2.969  19.092  0.00  0.00    +0.000 OA
ATOM     19  C   UNL     1       2.505   2.054  18.688  0.00  0.00    +0.000 C 
ENDBRANCH   4  18
BRANCH   5  20
ATOM     20  O   UNL     1       5.006   5.370  18.267  0.00  0.00    +0.000 OA
BRANCH  20  21
ATOM     21  C   UNL     1       5.559   6.540  17.644  0.00  0.00    +0.000 C 
ATOM     22  C   UNL     1       4.883   6.794  16.296  0.00  0.00    +0.000 C 
ATOM     23  C   UNL     1       5.302   5.817  15.198  0.00  0.00    +0.000 C 
ATOM     24  N   UNL     1       6.760   5.685  15.012  0.00  0.00    +0.000 NA
ATOM     25  C   UNL     1       7.437   5.447  16.299  0.00  0.00    +0.000 C 
ATOM     26  C   UNL     1       7.063   6.413  17.426  0.00  0.00    +0.000 C 
BRANCH  24  27
ATOM     27  C   UNL     1       7.065   4.593  14.031  0.00  0.00    +0.000 C 
ATOM     28  C   UNL     1       5.807   3.826  13.591  0.00  0.00    +0.000 C 
ATOM     29  C   UNL     1       7.777   5.083  12.757  0.00  0.00    +0.000 C 
ENDBRANCH  24  27
ENDBRANCH  20  21
ENDBRANCH   5  20
TORSDOF 7
ENDMDL
MODEL 3
REMARK VINA RESULT:      -7.3      1.577      2.410
REMARK  Name = 
REMARK  11 active torsions:
REMARK  status: ('A' for Active; 'I' for Inactive)
REMARK    1  A    between atoms: C_1  and  O_2
REMARK    2  A    between atoms: O_2  and  C_3
REMARK    3  A    between atoms: C_3  and  C_4
REMARK    4  A    between atoms: C_10  and  C_12
REMARK    5  A    between atoms: C_15  and  O_16
REMARK    6  A    between atoms: O_16  and  C_17
REMARK    7  A    between atoms: C_18  and  O_19
REMARK    8  A    between atoms: O_19  and  C_20
REMARK    9  A    between atoms: N_23  and  C_24
REMARK   10  A    between atoms: C_24  and  C_25
REMARK   11  A    between atoms: C_24  and  C_26
REMARK                            x       y       z     vdW  Elec       q    Type
REMARK                         _______ _______ _______ _____ _____    ______ ____
ROOT
ATOM      1  C   UNL     1       1.962   7.225  19.708  0.00  0.00    +0.000 A 
ATOM      2  C   UNL     1       1.512   6.359  20.701  0.00  0.00    +0.000 A 
ATOM      3  C   UNL     1       2.037   5.068  20.792  0.00  0.00    +0.000 A 
ATOM      4  C   UNL     1       3.086   4.628  19.976  0.00  0.00    +0.000 A 
ATOM      5  C   UNL     1       3.650   5.519  19.043  0.00  0.00    +0.000 A 
ATOM      6  C   UNL     1       3.058   6.801  18.910  0.00  0.00    +0.000 A 
ENDROOT
BRANCH   1  13
ATOM      7  C   UNL     1      -0.125  10.557  20.094  0.00  0.00    +0.000 C 
ATOM      8  C   UNL     1       0.277  11.325  21.371  0.00  0.00    +0.000 C 
ATOM      9  C   UNL     1      -0.259  10.638  22.630  0.00  0.00    +0.000 C 
ATOM     10  C   UNL     1       0.098   9.149  22.648  0.00  0.00    +0.000 C 
ATOM     11  C   UNL     1      -0.342   8.479  21.342  0.00  0.00    +0.000 C 
ATOM     12  N   UNL     1       0.328   9.138  20.219  0.00  0.00    +0.000 N 
ATOM     13  C   UNL     1       1.449   8.636  19.528  0.00  0.00    +0.000 C 
ATOM     14  O   UNL     1       2.070   9.306  18.702  0.00  0.00    +0.000 OA
BRANCH   7  15
ATOM     15  C   UNL     1       0.230  11.397  18.851  0.00  0.00    +0.000 C 
BRANCH  15  17
ATOM     16  C   UNL     1       2.020  12.860  18.414  0.00  0.00    +0.000 C 
ATOM     17  O   UNL     1       0.870  12.622  19.219  0.00  0.00    +0.000 OA
ENDBRANCH  15  17
ENDBRANCH   7  15
ENDBRANCH   1  13
BRANCH   4  18
ATOM     18  O   UNL     1       3.410   3.326  20.249  0.00  0.00    +0.000 OA
ATOM     19  C   UNL     1       2.951   2.285  19.404  0.00  0.00    +0.000 C 
ENDBRANCH   4  18
BRANCH   5  20
ATOM     20  O   UNL     1       4.759   5.112  18.331  0.00  0.00    +0.000 OA
BRANCH  20  21
ATOM     21  C   UNL     1       5.837   6.032  18.099  0.00  0.00    +0.000 C 
ATOM     22  C   UNL     1       5.578   6.845  16.830  0.00  0.00    +0.000 C 
ATOM     23  C   UNL     1       5.764   6.053  15.536  0.00  0.00    +0.000 C 
ATOM     24  N   UNL     1       7.055   5.347  15.425  0.00  0.00    +0.000 NA
ATOM     25  C   UNL     1       7.333   4.560  16.641  0.00  0.00    +0.000 C 
ATOM     26  C   UNL     1       7.177   5.317  17.962  0.00  0.00    +0.000 C 
BRANCH  24  27
ATOM     27  C   UNL     1       7.073   4.478  14.204  0.00  0.00    +0.000 C 
ATOM     28  C   UNL     1       5.669   3.988  13.807  0.00  0.00    +0.000 C 
ATOM     29  C   UNL     1       7.693   5.154  12.969  0.00  0.00    +0.000 C 
ENDBRANCH  24  27
ENDBRANCH  20  21
ENDBRANCH   5  20
TORSDOF 7
ENDMDL
MODEL 4
REMARK VINA RESULT:      -7.2      1.659      2.532
REMARK  Name = 
REMARK  11 active torsions:
REMARK  status: ('A' for Active; 'I' for Inactive)
REMARK    1  A    between atoms: C_1  and  O_2
REMARK    2  A    between atoms: O_2  and  C_3
REMARK    3  A    between atoms: C_3  and  C_4
REMARK    4  A    between atoms: C_10  and  C_12
REMARK    5  A    between atoms: C_15  and  O_16
REMARK    6  A    between atoms: O_16  and  C_17
REMARK    7  A    between atoms: C_18  and  O_19
REMARK    8  A    between atoms: O_19  and  C_20
REMARK    9  A    between atoms: N_23  and  C_24
REMARK   10  A    between atoms: C_24  and  C_25
REMARK   11  A    between atoms: C_24  and  C_26
REMARK                            x       y       z     vdW  Elec       q    Type
REMARK                         _______ _______ _______ _____ _____    ______ ____
ROOT
ATOM      1  C   UNL     1       1.805   7.423  19.762  0.00  0.00    +0.000 A 
ATOM      2  C   UNL     1       1.487   6.582  20.825  0.00  0.00    +0.000 A 
ATOM      3  C   UNL     1       2.048   5.305  20.897  0.00  0.00    +0.000 A 
ATOM      4  C   UNL     1       3.009   4.858  19.984  0.00  0.00    +0.000 A 
ATOM      5  C   UNL     1       3.446   5.727  18.967  0.00  0.00    +0.000 A 
ATOM      6  C   UNL     1       2.815   6.993  18.860  0.00  0.00    +0.000 A 
ENDROOT
BRANCH   1  13
ATOM      7  C   UNL     1      -0.377  10.686  20.199  0.00  0.00    +0.000 C 
ATOM      8  C   UNL     1       0.028  11.465  21.469  0.00  0.00    +0.000 C 
ATOM      9  C   UNL     1      -0.460  10.759  22.738  0.00  0.00    +0.000 C 
ATOM     10  C   UNL     1      -0.057   9.282  22.745  0.00  0.00    +0.000 C 
ATOM     11  C   UNL     1      -0.503   8.600  21.446  0.00  0.00    +0.000 C 
ATOM     12  N   UNL     1       0.123   9.282  20.311  0.00  0.00    +0.000 N 
ATOM     13  C   UNL     1       1.244   8.817  19.596  0.00  0.00    +0.000 C 
ATOM     14  O   UNL     1       1.827   9.507  18.759  0.00  0.00    +0.000 OA
BRANCH   7  15
ATOM     15  C   UNL     1      -0.075  11.540  18.951  0.00  0.00    +0.000 C 
BRANCH  15  17
ATOM     16  C   UNL     1      -2.080  11.427  17.727  0.00  0.00    +0.000 C 
ATOM     17  O   UNL     1      -1.235  12.255  18.519  0.00  0.00    +0.000 OA
ENDBRANCH  15  17
ENDBRANCH   7  15
ENDBRANCH   1  13
BRANCH   4  18
ATOM     18  O   UNL     1       3.390   3.572  20.260  0.00  0.00    +0.000 OA
ATOM     19  C   UNL     1       2.603   2.763  21.118  0.00  0.00    +0.000 C 
ENDBRANCH   4  18
BRANCH   5  20
ATOM     20  O   UNL     1       4.478   5.316  18.148  0.00  0.00    +0.000 OA
BRANCH  20  21
ATOM     21  C   UNL     1       5.664   6.119  18.035  0.00  0.00    +0.000 C 
ATOM     22  C   UNL     1       5.613   6.966  16.763  0.00  0.00    +0.000 C 
ATOM     23  C   UNL     1       5.838   6.170  15.478  0.00  0.00    +0.000 C 
ATOM     24  N   UNL     1       7.053   5.332  15.476  0.00  0.00    +0.000 NA
ATOM     25  C   UNL     1       7.130   4.510  16.697  0.00  0.00    +0.000 C 
ATOM     26  C   UNL     1       6.929   5.267  18.012  0.00  0.00    +0.000 C 
BRANCH  24  27
ATOM     27  C   UNL     1       7.095   4.476  14.246  0.00  0.00    +0.000 C 
ATOM     28  C   UNL     1       5.711   3.928  13.859  0.00  0.00    +0.000 C 
ATOM     29  C   UNL     1       7.670   5.192  13.010  0.00  0.00    +0.000 C 
ENDBRANCH  24  27
ENDBRANCH  20  21
ENDBRANCH   5  20
TORSDOF 7
ENDMDL
MODEL 5
REMARK VINA RESULT:      -7.2      2.716      8.985
REMARK  Name = 
REMARK  11 active torsions:
REMARK  status: ('A' for Active; 'I' for Inactive)
REMARK    1  A    between atoms: C_1  and  O_2
REMARK    2  A    between atoms: O_2  and  C_3
REMARK    3  A    between atoms: C_3  and  C_4
REMARK    4  A    between atoms: C_10  and  C_12
REMARK    5  A    between atoms: C_15  and  O_16
REMARK    6  A    between atoms: O_16  and  C_17
REMARK    7  A    between atoms: C_18  and  O_19
REMARK    8  A    between atoms: O_19  and  C_20
REMARK    9  A    between atoms: N_23  and  C_24
REMARK   10  A    between atoms: C_24  and  C_25
REMARK   11  A    between atoms: C_24  and  C_26
REMARK                            x       y       z     vdW  Elec       q    Type
REMARK                         _______ _______ _______ _____ _____    ______ ____
ROOT
ATOM      1  C   UNL     1       2.622   7.580  18.398  0.00  0.00    +0.000 A 
ATOM      2  C   UNL     1       2.441   8.546  17.412  0.00  0.00    +0.000 A 
ATOM      3  C   UNL     1       1.454   9.522  17.562  0.00  0.00    +0.000 A 
ATOM      4  C   UNL     1       0.686   9.636  18.727  0.00  0.00    +0.000 A 
ATOM      5  C   UNL     1       0.927   8.753  19.797  0.00  0.00    +0.000 A 
ATOM      6  C   UNL     1       1.880   7.721  19.602  0.00  0.00    +0.000 A 
ENDROOT
BRANCH   1  13
ATOM      7  C   UNL     1       4.435   4.081  18.657  0.00  0.00    +0.000 C 
ATOM      8  C   UNL     1       3.960   3.120  17.546  0.00  0.00    +0.000 C 
ATOM      9  C   UNL     1       2.545   2.603  17.820  0.00  0.00    +0.000 C 
ATOM     10  C   UNL     1       1.579   3.752  18.119  0.00  0.00    +0.000 C 
ATOM     11  C   UNL     1       2.139   4.645  19.233  0.00  0.00    +0.000 C 
ATOM     12  N   UNL     1       3.434   5.180  18.808  0.00  0.00    +0.000 N 
ATOM     13  C   UNL     1       3.659   6.483  18.321  0.00  0.00    +0.000 C 
ATOM     14  O   UNL     1       4.733   6.827  17.825  0.00  0.00    +0.000 OA
BRANCH   7  15
ATOM     15  C   UNL     1       5.934   4.392  18.466  0.00  0.00    +0.000 C 
BRANCH  15  17
ATOM     16  C   UNL     1       7.664   5.703  19.371  0.00  0.00    +0.000 C 
ATOM     17  O   UNL     1       6.508   4.925  19.662  0.00  0.00    +0.000 OA
ENDBRANCH  15  17
ENDBRANCH   7  15
ENDBRANCH   1  13
BRANCH   4  18
ATOM     18  O   UNL     1      -0.218  10.658  18.623  0.00  0.00    +0.000 OA
ATOM     19  C   UNL     1      -1.586  10.378  18.380  0.00  0.00    +0.000 C 
ENDBRANCH   4  18
BRANCH   5  20
ATOM     20  O   UNL     1       0.248   8.952  20.981  0.00  0.00    +0.000 OA
BRANCH  20  21
ATOM     21  C   UNL     1       0.886   9.649  22.062  0.00  0.00    +0.000 C 
ATOM     22  C   UNL     1       0.049   9.534  23.336  0.00  0.00    +0.000 C 
ATOM     23  C   UNL     1      -1.219  10.388  23.325  0.00  0.00    +0.000 C 
ATOM     24  N   UNL     1      -1.004  11.809  22.991  0.00  0.00    +0.000 NA
ATOM     25  C   UNL     1      -0.191  11.948  21.769  0.00  0.00    +0.000 C 
ATOM     26  C   UNL     1       1.099  11.125  21.742  0.00  0.00    +0.000 C 
BRANCH  24  27
ATOM     27  C   UNL     1      -2.317  12.518  22.850  0.00  0.00    +0.000 C 
ATOM     28  C   UNL     1      -2.318  13.900  23.527  0.00  0.00    +0.000 C 
ATOM     29  C   UNL     1      -2.762  12.717  21.390  0.00  0.00    +0.000 C 
ENDBRANCH  24  27
ENDBRANCH  20  21
ENDBRANCH   5  20
TORSDOF 7
ENDMDL
MODEL 6
REMARK VINA RESULT:      -7.0      3.358      9.341
REMARK  Name = 
REMARK  11 active torsions:
REMARK  status: ('A' for Active; 'I' for Inactive)
REMARK    1  A    between atoms: C_1  and  O_2
REMARK    2  A    between atoms: O_2  and  C_3
REMARK    3  A    between atoms: C_3  and  C_4
REMARK    4  A    between atoms: C_10  and  C_12
REMARK    5  A    between atoms: C_15  and  O_16
REMARK    6  A    between atoms: O_16  and  C_17
REMARK    7  A    between atoms: C_18  and  O_19
REMARK    8  A    between atoms: O_19  and  C_20
REMARK    9  A    between atoms: N_23  and  C_24
REMARK   10  A    between atoms: C_24  and  C_25
REMARK   11  A    between atoms: C_24  and  C_26
REMARK                            x       y       z     vdW  Elec       q    Type
REMARK                         _______ _______ _______ _____ _____    ______ ____
ROOT
ATOM      1  C   UNL     1       1.396   8.737  19.091  0.00  0.00    +0.000 A 
ATOM      2  C   UNL     1       1.099   9.046  20.416  0.00  0.00    +0.000 A 
ATOM      3  C   UNL     1       0.117   9.995  20.709  0.00  0.00    +0.000 A 
ATOM      4  C   UNL     1      -0.666  10.593  19.714  0.00  0.00    +0.000 A 
ATOM      5  C   UNL     1      -0.477  10.213  18.372  0.00  0.00    +0.000 A 
ATOM      6  C   UNL     1       0.573   9.304  18.081  0.00  0.00    +0.000 A 
ENDROOT
BRANCH   1  13
ATOM      7  C   UNL     1       3.712   5.541  18.971  0.00  0.00    +0.000 C 
ATOM      8  C   UNL     1       2.942   4.309  18.449  0.00  0.00    +0.000 C 
ATOM      9  C   UNL     1       1.964   3.775  19.500  0.00  0.00    +0.000 C 
ATOM     10  C   UNL     1       1.075   4.891  20.053  0.00  0.00    +0.000 C 
ATOM     11  C   UNL     1       1.932   6.063  20.544  0.00  0.00    +0.000 C 
ATOM     12  N   UNL     1       2.731   6.571  19.426  0.00  0.00    +0.000 N 
ATOM     13  C   UNL     1       2.445   7.730  18.678  0.00  0.00    +0.000 C 
ATOM     14  O   UNL     1       3.056   8.019  17.649  0.00  0.00    +0.000 OA
BRANCH   7  15
ATOM     15  C   UNL     1       4.841   5.901  17.983  0.00  0.00    +0.000 C 
BRANCH  15  17
ATOM     16  C   UNL     1       5.208   6.010  15.662  0.00  0.00    +0.000 C 
ATOM     17  O   UNL     1       4.661   5.241  16.727  0.00  0.00    +0.000 OA
ENDBRANCH  15  17
ENDBRANCH   7  15
ENDBRANCH   1  13
BRANCH   4  18
ATOM     18  O   UNL     1      -1.543  11.495  20.253  0.00  0.00    +0.000 OA
ATOM     19  C   UNL     1      -1.233  12.878  20.254  0.00  0.00    +0.000 C 
ENDBRANCH   4  18
BRANCH   5  20
ATOM     20  O   UNL     1      -1.334  10.720  17.417  0.00  0.00    +0.000 OA
BRANCH  20  21
ATOM     21  C   UNL     1      -2.312   9.862  16.808  0.00  0.00    +0.000 C 
ATOM     22  C   UNL     1      -3.064  10.612  15.707  0.00  0.00    +0.000 C 
ATOM     23  C   UNL     1      -4.062  11.644  16.230  0.00  0.00    +0.000 C 
ATOM     24  N   UNL     1      -5.018  11.128  17.230  0.00  0.00    +0.000 NA
ATOM     25  C   UNL     1      -4.318  10.394  18.299  0.00  0.00    +0.000 C 
ATOM     26  C   UNL     1      -3.320   9.335  17.824  0.00  0.00    +0.000 C 
BRANCH  24  27
ATOM     27  C   UNL     1      -5.841  12.248  17.793  0.00  0.00    +0.000 C 
ATOM     28  C   UNL     1      -6.422  13.161  16.699  0.00  0.00    +0.000 C 
ATOM     29  C   UNL     1      -7.012  11.776  18.673  0.00  0.00    +0.000 C 
ENDBRANCH  24  27
ENDBRANCH  20  21
ENDBRANCH   5  20
TORSDOF 7
ENDMDL
MODEL 7
REMARK VINA RESULT:      -7.0      2.334      9.088
REMARK  Name = 
REMARK  11 active torsions:
REMARK  status: ('A' for Active; 'I' for Inactive)
REMARK    1  A    between atoms: C_1  and  O_2
REMARK    2  A    between atoms: O_2  and  C_3
REMARK    3  A    between atoms: C_3  and  C_4
REMARK    4  A    between atoms: C_10  and  C_12
REMARK    5  A    between atoms: C_15  and  O_16
REMARK    6  A    between atoms: O_16  and  C_17
REMARK    7  A    between atoms: C_18  and  O_19
REMARK    8  A    between atoms: O_19  and  C_20
REMARK    9  A    between atoms: N_23  and  C_24
REMARK   10  A    between atoms: C_24  and  C_25
REMARK   11  A    between atoms: C_24  and  C_26
REMARK                            x       y       z     vdW  Elec       q    Type
REMARK                         _______ _______ _______ _____ _____    ______ ____
ROOT
ATOM      1  C   UNL     1       2.595   7.329  18.661  0.00  0.00    +0.000 A 
ATOM      2  C   UNL     1       2.677   8.260  17.630  0.00  0.00    +0.000 A 
ATOM      3  C   UNL     1       1.847   9.383  17.635  0.00  0.00    +0.000 A 
ATOM      4  C   UNL     1       0.988   9.673  18.702  0.00  0.00    +0.000 A 
ATOM      5  C   UNL     1       0.970   8.818  19.820  0.00  0.00    +0.000 A 
ATOM      6  C   UNL     1       1.761   7.642  19.768  0.00  0.00    +0.000 A 
ENDROOT
BRANCH   1  13
ATOM      7  C   UNL     1       5.358   4.601  17.941  0.00  0.00    +0.000 C 
ATOM      8  C   UNL     1       6.743   5.056  18.449  0.00  0.00    +0.000 C 
ATOM      9  C   UNL     1       7.337   6.146  17.553  0.00  0.00    +0.000 C 
ATOM     10  C   UNL     1       6.341   7.285  17.322  0.00  0.00    +0.000 C 
ATOM     11  C   UNL     1       5.003   6.731  16.819  0.00  0.00    +0.000 C 
ATOM     12  N   UNL     1       4.471   5.795  17.813  0.00  0.00    +0.000 N 
ATOM     13  C   UNL     1       3.446   6.082  18.737  0.00  0.00    +0.000 C 
ATOM     14  O   UNL     1       3.152   5.315  19.655  0.00  0.00    +0.000 OA
BRANCH   7  15
ATOM     15  C   UNL     1       4.904   3.353  18.726  0.00  0.00    +0.000 C 
BRANCH  15  17
ATOM     16  C   UNL     1       3.534   1.442  18.709  0.00  0.00    +0.000 C 
ATOM     17  O   UNL     1       3.950   2.591  17.981  0.00  0.00    +0.000 OA
ENDBRANCH  15  17
ENDBRANCH   7  15
ENDBRANCH   1  13
BRANCH   4  18
ATOM     18  O   UNL     1       0.274  10.817  18.463  0.00  0.00    +0.000 OA
ATOM     19  C   UNL     1      -1.127  10.754  18.257  0.00  0.00    +0.000 C 
ENDBRANCH   4  18
BRANCH   5  20
ATOM     20  O   UNL     1       0.208   9.179  20.912  0.00  0.00    +0.000 OA
BRANCH  20  21
ATOM     21  C   UNL     1       0.828   9.837  22.029  0.00  0.00    +0.000 C 
ATOM     22  C   UNL     1      -0.059   9.727  23.269  0.00  0.00    +0.000 C 
ATOM     23  C   UNL     1      -1.298  10.621  23.227  0.00  0.00    +0.000 C 
ATOM     24  N   UNL     1      -1.026  12.041  22.927  0.00  0.00    +0.000 NA
ATOM     25  C   UNL     1      -0.164  12.174  21.739  0.00  0.00    +0.000 C 
ATOM     26  C   UNL     1       1.100  11.310  21.744  0.00  0.00    +0.000 C 
BRANCH  24  27
ATOM     27  C   UNL     1      -2.310  12.794  22.751  0.00  0.00    +0.000 C 
ATOM     28  C   UNL     1      -2.843  12.722  21.309  0.00  0.00    +0.000 C 
ATOM     29  C   UNL     1      -3.439  12.325  23.686  0.00  0.00    +0.000 C 
ENDBRANCH  24  27
ENDBRANCH  20  21
ENDBRANCH   5  20
TORSDOF 7
ENDMDL
MODEL 8
REMARK VINA RESULT:      -6.9      3.306      9.346
REMARK  Name = 
REMARK  11 active torsions:
REMARK  status: ('A' for Active; 'I' for Inactive)
REMARK    1  A    between atoms: C_1  and  O_2
REMARK    2  A    between atoms: O_2  and  C_3
REMARK    3  A    between atoms: C_3  and  C_4
REMARK    4  A    between atoms: C_10  and  C_12
REMARK    5  A    between atoms: C_15  and  O_16
REMARK    6  A    between atoms: O_16  and  C_17
REMARK    7  A    between atoms: C_18  and  O_19
REMARK    8  A    between atoms: O_19  and  C_20
REMARK    9  A    between atoms: N_23  and  C_24
REMARK   10  A    between atoms: C_24  and  C_25
REMARK   11  A    between atoms: C_24  and  C_26
REMARK                            x       y       z     vdW  Elec       q    Type
REMARK                         _______ _______ _______ _____ _____    ______ ____
ROOT
ATOM      1  C   UNL     1       1.482   8.891  18.754  0.00  0.00    +0.000 A 
ATOM      2  C   UNL     1       1.333   9.042  20.130  0.00  0.00    +0.000 A 
ATOM      3  C   UNL     1       0.360   9.905  20.636  0.00  0.00    +0.000 A 
ATOM      4  C   UNL     1      -0.557  10.566  19.810  0.00  0.00    +0.000 A 
ATOM      5  C   UNL     1      -0.516  10.341  18.422  0.00  0.00    +0.000 A 
ATOM      6  C   UNL     1       0.524   9.521  17.914  0.00  0.00    +0.000 A 
ENDROOT
BRANCH   1  13
ATOM      7  C   UNL     1       3.940   5.879  18.055  0.00  0.00    +0.000 C 
ATOM      8  C   UNL     1       3.172   4.626  17.583  0.00  0.00    +0.000 C 
ATOM      9  C   UNL     1       2.413   3.967  18.738  0.00  0.00    +0.000 C 
ATOM     10  C   UNL     1       1.559   4.984  19.498  0.00  0.00    +0.000 C 
ATOM     11  C   UNL     1       2.410   6.186  19.923  0.00  0.00    +0.000 C 
ATOM     12  N   UNL     1       2.984   6.810  18.728  0.00  0.00    +0.000 N 
ATOM     13  C   UNL     1       2.509   7.985  18.113  0.00  0.00    +0.000 C 
ATOM     14  O   UNL     1       2.925   8.373  17.021  0.00  0.00    +0.000 OA
BRANCH   7  15
ATOM     15  C   UNL     1       4.868   6.374  16.927  0.00  0.00    +0.000 C 
BRANCH  15  17
ATOM     16  C   UNL     1       7.215   6.348  17.072  0.00  0.00    +0.000 C 
ATOM     17  O   UNL     1       6.025   7.027  17.456  0.00  0.00    +0.000 OA
ENDBRANCH  15  17
ENDBRANCH   7  15
ENDBRANCH   1  13
BRANCH   4  18
ATOM     18  O   UNL     1      -1.395  11.362  20.544  0.00  0.00    +0.000 OA
ATOM     19  C   UNL     1      -1.020  11.789  21.842  0.00  0.00    +0.000 C 
ENDBRANCH   4  18
BRANCH   5  20
ATOM     20  O   UNL     1      -1.498  10.905  17.634  0.00  0.00    +0.000 OA
BRANCH  20  21
ATOM     21  C   UNL     1      -2.383  10.059  16.882  0.00  0.00    +0.000 C 
ATOM     22  C   UNL     1      -3.124  10.874  15.822  0.00  0.00    +0.000 C 
ATOM     23  C   UNL     1      -4.214  11.784  16.387  0.00  0.00    +0.000 C 
ATOM     24  N   UNL     1      -5.185  11.109  17.270  0.00  0.00    +0.000 NA
ATOM     25  C   UNL     1      -4.496  10.308  18.298  0.00  0.00    +0.000 C 
ATOM     26  C   UNL     1      -3.407   9.368  17.778  0.00  0.00    +0.000 C 
BRANCH  24  27
ATOM     27  C   UNL     1      -6.109  12.110  17.894  0.00  0.00    +0.000 C 
ATOM     28  C   UNL     1      -5.547  12.700  19.199  0.00  0.00    +0.000 C 
ATOM     29  C   UNL     1      -6.464  13.289  16.970  0.00  0.00    +0.000 C 
ENDBRANCH  24  27
ENDBRANCH  20  21
ENDBRANCH   5  20
TORSDOF 7
ENDMDL
MODEL 9
REMARK VINA RESULT:      -6.9      1.316      1.509
REMARK  Name = 
REMARK  11 active torsions:
REMARK  status: ('A' for Active; 'I' for Inactive)
REMARK    1  A    between atoms: C_1  and  O_2
REMARK    2  A    between atoms: O_2  and  C_3
REMARK    3  A    between atoms: C_3  and  C_4
REMARK    4  A    between atoms: C_10  and  C_12
REMARK    5  A    between atoms: C_15  and  O_16
REMARK    6  A    between atoms: O_16  and  C_17
REMARK    7  A    between atoms: C_18  and  O_19
REMARK    8  A    between atoms: O_19  and  C_20
REMARK    9  A    between atoms: N_23  and  C_24
REMARK   10  A    between atoms: C_24  and  C_25
REMARK   11  A    between atoms: C_24  and  C_26
REMARK                            x       y       z     vdW  Elec       q    Type
REMARK                         _______ _______ _______ _____ _____    ______ ____
ROOT
ATOM      1  C   UNL     1       1.657   7.496  20.192  0.00  0.00    +0.000 A 
ATOM      2  C   UNL     1       1.348   6.369  20.949  0.00  0.00    +0.000 A 
ATOM      3  C   UNL     1       1.836   5.117  20.570  0.00  0.00    +0.000 A 
ATOM      4  C   UNL     1       2.722   4.953  19.498  0.00  0.00    +0.000 A 
ATOM      5  C   UNL     1       3.155   6.088  18.786  0.00  0.00    +0.000 A 
ATOM      6  C   UNL     1       2.593   7.343  19.134  0.00  0.00    +0.000 A 
ENDROOT
BRANCH   1  13
ATOM      7  C   UNL     1       0.333  11.203  19.862  0.00  0.00    +0.000 C 
ATOM      8  C   UNL     1      -1.164  11.232  19.489  0.00  0.00    +0.000 C 
ATOM      9  C   UNL     1      -1.384  10.839  18.025  0.00  0.00    +0.000 C 
ATOM     10  C   UNL     1      -0.672   9.526  17.687  0.00  0.00    +0.000 C 
ATOM     11  C   UNL     1       0.804   9.598  18.094  0.00  0.00    +0.000 C 
ATOM     12  N   UNL     1       0.889   9.855  19.534  0.00  0.00    +0.000 N 
ATOM     13  C   UNL     1       1.170   8.889  20.520  0.00  0.00    +0.000 C 
ATOM     14  O   UNL     1       1.068   9.126  21.724  0.00  0.00    +0.000 OA
BRANCH   7  15
ATOM     15  C   UNL     1       0.530  11.823  21.260  0.00  0.00    +0.000 C 
BRANCH  15  17
ATOM     16  C   UNL     1      -1.090  11.671  22.959  0.00  0.00    +0.000 C 
ATOM     17  O   UNL     1      -0.697  12.350  21.771  0.00  0.00    +0.000 OA
ENDBRANCH  15  17
ENDBRANCH   7  15
ENDBRANCH   1  13
BRANCH   4  18
ATOM     18  O   UNL     1       3.042   3.634  19.320  0.00  0.00    +0.000 OA
ATOM     19  C   UNL     1       2.244   2.621  19.910  0.00  0.00    +0.000 C 
ENDBRANCH   4  18
BRANCH   5  20
ATOM     20  O   UNL     1       4.117   5.926  17.811  0.00  0.00    +0.000 OA
BRANCH  20  21
ATOM     21  C   UNL     1       5.508   5.988  18.163  0.00  0.00    +0.000 C 
ATOM     22  C   UNL     1       6.259   6.909  17.201  0.00  0.00    +0.000 C 
ATOM     23  C   UNL     1       6.474   6.312  15.810  0.00  0.00    +0.000 C 
ATOM     24  N   UNL     1       7.088   4.970  15.802  0.00  0.00    +0.000 NA
ATOM     25  C   UNL     1       6.386   4.063  16.728  0.00  0.00    +0.000 C 
ATOM     26  C   UNL     1       6.163   4.610  18.141  0.00  0.00    +0.000 C 
BRANCH  24  27
ATOM     27  C   UNL     1       7.107   4.413  14.411  0.00  0.00    +0.000 C 
ATOM     28  C   UNL     1       5.703   4.035  13.906  0.00  0.00    +0.000 C 
ATOM     29  C   UNL     1       7.733   5.358  13.371  0.00  0.00    +0.000 C 
ENDBRANCH  24  27
ENDBRANCH  20  21
ENDBRANCH   5  20
TORSDOF 7
ENDMDL
