MODEL 1
REMARK VINA RESULT:      -8.2      0.000      0.000
REMARK  Name = 
REMARK  3 active torsions:
REMARK  status: ('A' for Active; 'I' for Inactive)
REMARK    1  A    between atoms: C_4  and  C_5
REMARK    2  A    between atoms: C_5  and  C_6
REMARK    3  A    between atoms: C_6  and  N_7
REMARK                            x       y       z     vdW  Elec       q    Type
REMARK                         _______ _______ _______ _____ _____    ______ ____
ROOT
ATOM      1  N   UNL     1       0.339  10.153  19.586  0.00  0.00    +0.000 NA
ATOM      2  C   UNL     1       0.824  10.355  20.942  0.00  0.00    +0.000 C 
ATOM      3  N   UNL     1       1.158   9.083  21.566  0.00  0.00    +0.000 NA
ATOM      4  C   UNL     1       1.560   8.171  20.758  0.00  0.00    +0.000 C 
ATOM      5  N   UNL     1       1.780   6.895  21.165  0.00  0.00    +0.000 N 
ATOM      6  C   UNL     1       2.039   5.803  20.417  0.00  0.00    +0.000 A 
ATOM      7  N   UNL     1       2.318   5.825  19.129  0.00  0.00    +0.000 NA
ATOM      8  C   UNL     1       2.553   4.536  18.667  0.00  0.00    +0.000 A 
ATOM      9  C   UNL     1       2.909   4.177  17.350  0.00  0.00    +0.000 A 
ATOM     10  C   UNL     1       3.128   2.833  17.032  0.00  0.00    +0.000 A 
ATOM     11  C   UNL     1       2.988   1.846  18.003  0.00  0.00    +0.000 A 
ATOM     12  C   UNL     1       2.629   2.176  19.312  0.00  0.00    +0.000 A 
ATOM     13  C   UNL     1       2.423   3.530  19.625  0.00  0.00    +0.000 A 
ATOM     14  S   UNL     1       2.005   4.242  21.131  0.00  0.00    +0.000 S 
ATOM     15  N   UNL     1       1.786   8.410  19.392  0.00  0.00    +0.000 N 
ATOM     16  C   UNL     1       1.447   9.674  18.807  0.00  0.00    +0.000 C 
ATOM     17  H   UNL     1       1.533   6.752  22.136  0.00  0.00    +0.000 HD
ATOM     18  H   UNL     1       2.070   7.622  18.814  0.00  0.00    +0.000 HD
ENDROOT
BRANCH   1  19
ATOM     19  C   UNL     1      -0.366  11.318  19.045  0.00  0.00    +0.000 C 
BRANCH  19  20
ATOM     20  C   UNL     1      -1.892  11.171  19.168  0.00  0.00    +0.000 C 
BRANCH  20  24
ATOM     21  C   UNL     1      -3.857  10.488  15.410  0.00  0.00    +0.000 A 
ATOM     22  C   UNL     1      -4.448  11.318  16.360  0.00  0.00    +0.000 A 
ATOM     23  C   UNL     1      -3.822  11.521  17.589  0.00  0.00    +0.000 A 
ATOM     24  C   UNL     1      -2.597  10.905  17.868  0.00  0.00    +0.000 A 
ATOM     25  C   UNL     1      -2.013  10.069  16.909  0.00  0.00    +0.000 A 
ATOM     26  C   UNL     1      -2.639   9.866  15.682  0.00  0.00    +0.000 A 
ENDBRANCH  20  24
ENDBRANCH  19  20
ENDBRANCH   1  19
TORSDOF 3
ENDMDL
MODEL 2
REMARK VINA RESULT:      -7.9      0.311      1.034
REMARK  Name = 
REMARK  3 active torsions:
REMARK  status: ('A' for Active; 'I' for Inactive)
REMARK    1  A    between atoms: C_4  and  C_5
REMARK    2  A    between atoms: C_5  and  C_6
REMARK    3  A    between atoms: C_6  and  N_7
REMARK                            x       y       z     vdW  Elec       q    Type
REMARK                         _______ _______ _______ _____ _____    ______ ____
ROOT
ATOM      1  N   UNL     1       0.207  10.278  19.722  0.00  0.00    +0.000 NA
ATOM      2  C   UNL     1       0.548  10.420  21.128  0.00  0.00    +0.000 C 
ATOM      3  N   UNL     1       0.889   9.129  21.709  0.00  0.00    +0.000 NA
ATOM      4  C   UNL     1       1.414   8.288  20.895  0.00  0.00    +0.000 C 
ATOM      5  N   UNL     1       1.661   7.002  21.248  0.00  0.00    +0.000 N 
ATOM      6  C   UNL     1       2.048   5.971  20.470  0.00  0.00    +0.000 A 
ATOM      7  N   UNL     1       2.447   6.085  19.219  0.00  0.00    +0.000 NA
ATOM      8  C   UNL     1       2.793   4.839  18.711  0.00  0.00    +0.000 A 
ATOM      9  C   UNL     1       3.291   4.579  17.417  0.00  0.00    +0.000 A 
ATOM     10  C   UNL     1       3.610   3.268  17.047  0.00  0.00    +0.000 A 
ATOM     11  C   UNL     1       3.431   2.218  17.942  0.00  0.00    +0.000 A 
ATOM     12  C   UNL     1       2.932   2.450  19.227  0.00  0.00    +0.000 A 
ATOM     13  C   UNL     1       2.626   3.771  19.593  0.00  0.00    +0.000 A 
ATOM     14  S   UNL     1       2.029   4.369  21.089  0.00  0.00    +0.000 S 
ATOM     15  N   UNL     1       1.756   8.621  19.573  0.00  0.00    +0.000 N 
ATOM     16  C   UNL     1       1.408   9.901  19.029  0.00  0.00    +0.000 C 
ATOM     17  H   UNL     1       1.330   6.788  22.181  0.00  0.00    +0.000 HD
ATOM     18  H   UNL     1       2.136   7.884  18.982  0.00  0.00    +0.000 HD
ENDROOT
BRANCH   1  19
ATOM     19  C   UNL     1      -0.504  11.439  19.180  0.00  0.00    +0.000 C 
BRANCH  19  20
ATOM     20  C   UNL     1      -2.030  11.251  19.231  0.00  0.00    +0.000 C 
BRANCH  20  24
ATOM     21  C   UNL     1      -3.916  10.478  15.450  0.00  0.00    +0.000 A 
ATOM     22  C   UNL     1      -2.721   9.839  15.772  0.00  0.00    +0.000 A 
ATOM     23  C   UNL     1      -2.095  10.108  16.988  0.00  0.00    +0.000 A 
ATOM     24  C   UNL     1      -2.670  11.007  17.894  0.00  0.00    +0.000 A 
ATOM     25  C   UNL     1      -3.869  11.648  17.560  0.00  0.00    +0.000 A 
ATOM     26  C   UNL     1      -4.492  11.380  16.344  0.00  0.00    +0.000 A 
ENDBRANCH  20  24
ENDBRANCH  19  20
ENDBRANCH   1  19
TORSDOF 3
ENDMDL
MODEL 3
REMARK VINA RESULT:      -7.9      3.179      7.954
REMARK  Name = 
REMARK  3 active torsions:
REMARK  status: ('A' for Active; 'I' for Inactive)
REMARK    1  A    between atoms: C_4  and  C_5
REMARK    2  A    between atoms: C_5  and  C_6
REMARK    3  A    between atoms: C_6  and  N_7
REMARK                            x       y       z     vdW  Elec       q    Type
REMARK                         _______ _______ _______ _____ _____    ______ ____
ROOT
ATOM      1  N   UNL     1       4.072   4.919  17.718  0.00  0.00    +0.000 NA
ATOM      2  C   UNL     1       4.657   5.802  16.722  0.00  0.00    +0.000 C 
ATOM      3  N   UNL     1       3.932   7.062  16.660  0.00  0.00    +0.000 NA
ATOM      4  C   UNL     1       3.395   7.435  17.764  0.00  0.00    +0.000 C 
ATOM      5  N   UNL     1       2.575   8.514  17.837  0.00  0.00    +0.000 N 
ATOM      6  C   UNL     1       1.815   8.929  18.870  0.00  0.00    +0.000 A 
ATOM      7  N   UNL     1       1.883   8.444  20.094  0.00  0.00    +0.000 NA
ATOM      8  C   UNL     1       0.981   9.100  20.921  0.00  0.00    +0.000 A 
ATOM      9  C   UNL     1       0.798   8.868  22.300  0.00  0.00    +0.000 A 
ATOM     10  C   UNL     1      -0.144   9.619  23.012  0.00  0.00    +0.000 A 
ATOM     11  C   UNL     1      -0.908  10.586  22.367  0.00  0.00    +0.000 A 
ATOM     12  C   UNL     1      -0.750  10.829  21.000  0.00  0.00    +0.000 A 
ATOM     13  C   UNL     1       0.207  10.079  20.297  0.00  0.00    +0.000 A 
ATOM     14  S   UNL     1       0.644  10.164  18.638  0.00  0.00    +0.000 S 
ATOM     15  N   UNL     1       3.592   6.752  18.976  0.00  0.00    +0.000 N 
ATOM     16  C   UNL     1       4.312   5.512  19.005  0.00  0.00    +0.000 C 
ATOM     17  H   UNL     1       2.402   8.929  16.930  0.00  0.00    +0.000 HD
ATOM     18  H   UNL     1       3.100   7.094  19.798  0.00  0.00    +0.000 HD
ENDROOT
BRANCH   1  19
ATOM     19  C   UNL     1       4.491   3.523  17.571  0.00  0.00    +0.000 C 
BRANCH  19  20
ATOM     20  C   UNL     1       3.312   2.550  17.741  0.00  0.00    +0.000 C 
BRANCH  20  24
ATOM     21  C   UNL     1       1.311   2.961  21.519  0.00  0.00    +0.000 A 
ATOM     22  C   UNL     1       2.642   2.555  21.481  0.00  0.00    +0.000 A 
ATOM     23  C   UNL     1       3.285   2.398  20.255  0.00  0.00    +0.000 A 
ATOM     24  C   UNL     1       2.602   2.659  19.061  0.00  0.00    +0.000 A 
ATOM     25  C   UNL     1       1.263   3.063  19.109  0.00  0.00    +0.000 A 
ATOM     26  C   UNL     1       0.621   3.218  20.334  0.00  0.00    +0.000 A 
ENDBRANCH  20  24
ENDBRANCH  19  20
ENDBRANCH   1  19
TORSDOF 3
ENDMDL
MODEL 4
REMARK VINA RESULT:      -7.9      2.960      8.261
REMARK  Name = 
REMARK  3 active torsions:
REMARK  status: ('A' for Active; 'I' for Inactive)
REMARK    1  A    between atoms: C_4  and  C_5
REMARK    2  A    between atoms: C_5  and  C_6
REMARK    3  A    between atoms: C_6  and  N_7
REMARK                            x       y       z     vdW  Elec       q    Type
REMARK                         _______ _______ _______ _____ _____    ______ ____
ROOT
ATOM      1  N   UNL     1       3.653   4.517  18.672  0.00  0.00    +0.000 NA
ATOM      2  C   UNL     1       3.007   3.756  19.729  0.00  0.00    +0.000 C 
ATOM      3  N   UNL     1       2.450   4.645  20.738  0.00  0.00    +0.000 NA
ATOM      4  C   UNL     1       2.068   5.790  20.302  0.00  0.00    +0.000 C 
ATOM      5  N   UNL     1       1.654   6.776  21.137  0.00  0.00    +0.000 N 
ATOM      6  C   UNL     1       1.384   8.067  20.851  0.00  0.00    +0.000 A 
ATOM      7  N   UNL     1       1.294   8.562  19.634  0.00  0.00    +0.000 NA
ATOM      8  C   UNL     1       0.986   9.915  19.688  0.00  0.00    +0.000 A 
ATOM      9  C   UNL     1       0.783  10.767  18.582  0.00  0.00    +0.000 A 
ATOM     10  C   UNL     1       0.464  12.113  18.791  0.00  0.00    +0.000 A 
ATOM     11  C   UNL     1       0.356  12.620  20.082  0.00  0.00    +0.000 A 
ATOM     12  C   UNL     1       0.561  11.799  21.193  0.00  0.00    +0.000 A 
ATOM     13  C   UNL     1       0.868  10.446  20.973  0.00  0.00    +0.000 A 
ATOM     14  S   UNL     1       1.145   9.198  22.121  0.00  0.00    +0.000 S 
ATOM     15  N   UNL     1       2.065   6.122  18.937  0.00  0.00    +0.000 N 
ATOM     16  C   UNL     1       2.620   5.224  17.967  0.00  0.00    +0.000 C 
ATOM     17  H   UNL     1       1.744   6.520  22.112  0.00  0.00    +0.000 HD
ATOM     18  H   UNL     1       1.780   7.064  18.679  0.00  0.00    +0.000 HD
ENDROOT
BRANCH   1  19
ATOM     19  C   UNL     1       4.551   3.707  17.844  0.00  0.00    +0.000 C 
BRANCH  19  20
ATOM     20  C   UNL     1       5.295   4.562  16.803  0.00  0.00    +0.000 C 
BRANCH  20  24
ATOM     21  C   UNL     1       8.146   7.270  18.529  0.00  0.00    +0.000 A 
ATOM     22  C   UNL     1       7.361   7.682  17.455  0.00  0.00    +0.000 A 
ATOM     23  C   UNL     1       6.453   6.796  16.878  0.00  0.00    +0.000 A 
ATOM     24  C   UNL     1       6.317   5.498  17.383  0.00  0.00    +0.000 A 
ATOM     25  C   UNL     1       7.112   5.091  18.460  0.00  0.00    +0.000 A 
ATOM     26  C   UNL     1       8.021   5.976  19.035  0.00  0.00    +0.000 A 
ENDBRANCH  20  24
ENDBRANCH  19  20
ENDBRANCH   1  19
TORSDOF 3
ENDMDL
MODEL 5
REMARK VINA RESULT:      -7.8      3.348      8.497
REMARK  Name = 
REMARK  3 active torsions:
REMARK  status: ('A' for Active; 'I' for Inactive)
REMARK    1  A    between atoms: C_4  and  C_5
REMARK    2  A    between atoms: C_5  and  C_6
REMARK    3  A    between atoms: C_6  and  N_7
REMARK                            x       y       z     vdW  Elec       q    Type
REMARK                         _______ _______ _______ _____ _____    ______ ____
ROOT
ATOM      1  N   UNL     1       5.286   5.059  17.927  0.00  0.00    +0.000 NA
ATOM      2  C   UNL     1       4.708   3.979  18.710  0.00  0.00    +0.000 C 
ATOM      3  N   UNL     1       3.813   4.505  19.731  0.00  0.00    +0.000 NA
ATOM      4  C   UNL     1       3.224   5.602  19.424  0.00  0.00    +0.000 C 
ATOM      5  N   UNL     1       2.467   6.287  20.318  0.00  0.00    +0.000 N 
ATOM      6  C   UNL     1       1.928   7.518  20.201  0.00  0.00    +0.000 A 
ATOM      7  N   UNL     1       1.889   8.216  19.085  0.00  0.00    +0.000 NA
ATOM      8  C   UNL     1       1.251   9.431  19.300  0.00  0.00    +0.000 A 
ATOM      9  C   UNL     1       0.999  10.422  18.329  0.00  0.00    +0.000 A 
ATOM     10  C   UNL     1       0.331  11.596  18.692  0.00  0.00    +0.000 A 
ATOM     11  C   UNL     1      -0.077  11.798  20.006  0.00  0.00    +0.000 A 
ATOM     12  C   UNL     1       0.167  10.835  20.988  0.00  0.00    +0.000 A 
ATOM     13  C   UNL     1       0.827   9.654  20.611  0.00  0.00    +0.000 A 
ATOM     14  S   UNL     1       1.242   8.291  21.572  0.00  0.00    +0.000 S 
ATOM     15  N   UNL     1       3.329   6.193  18.153  0.00  0.00    +0.000 N 
ATOM     16  C   UNL     1       4.219   5.651  17.169  0.00  0.00    +0.000 C 
ATOM     17  H   UNL     1       2.481   5.865  21.238  0.00  0.00    +0.000 HD
ATOM     18  H   UNL     1       2.859   7.083  18.005  0.00  0.00    +0.000 HD
ENDROOT
BRANCH   1  19
ATOM     19  C   UNL     1       6.464   4.647  17.157  0.00  0.00    +0.000 C 
BRANCH  19  20
ATOM     20  C   UNL     1       6.756   5.615  15.998  0.00  0.00    +0.000 C 
BRANCH  20  24
ATOM     21  C   UNL     1       6.728   3.851  12.082  0.00  0.00    +0.000 A 
ATOM     22  C   UNL     1       5.801   3.436  13.035  0.00  0.00    +0.000 A 
ATOM     23  C   UNL     1       5.825   3.991  14.314  0.00  0.00    +0.000 A 
ATOM     24  C   UNL     1       6.768   4.973  14.639  0.00  0.00    +0.000 A 
ATOM     25  C   UNL     1       7.699   5.380  13.676  0.00  0.00    +0.000 A 
ATOM     26  C   UNL     1       7.675   4.824  12.400  0.00  0.00    +0.000 A 
ENDBRANCH  20  24
ENDBRANCH  19  20
ENDBRANCH   1  19
TORSDOF 3
ENDMDL
MODEL 6
REMARK VINA RESULT:      -7.8      2.975      8.287
REMARK  Name = 
REMARK  3 active torsions:
REMARK  status: ('A' for Active; 'I' for Inactive)
REMARK    1  A    between atoms: C_4  and  C_5
REMARK    2  A    between atoms: C_5  and  C_6
REMARK    3  A    between atoms: C_6  and  N_7
REMARK                            x       y       z     vdW  Elec       q    Type
REMARK                         _______ _______ _______ _____ _____    ______ ____
ROOT
ATOM      1  N   UNL     1       3.688   4.566  18.454  0.00  0.00    +0.000 NA
ATOM      2  C   UNL     1       3.172   3.785  19.567  0.00  0.00    +0.000 C 
ATOM      3  N   UNL     1       2.662   4.656  20.616  0.00  0.00    +0.000 NA
ATOM      4  C   UNL     1       2.189   5.777  20.209  0.00  0.00    +0.000 C 
ATOM      5  N   UNL     1       1.802   6.750  21.072  0.00  0.00    +0.000 N 
ATOM      6  C   UNL     1       1.447   8.024  20.804  0.00  0.00    +0.000 A 
ATOM      7  N   UNL     1       1.229   8.503  19.596  0.00  0.00    +0.000 NA
ATOM      8  C   UNL     1       0.862   9.841  19.670  0.00  0.00    +0.000 A 
ATOM      9  C   UNL     1       0.524  10.672  18.581  0.00  0.00    +0.000 A 
ATOM     10  C   UNL     1       0.161  12.003  18.811  0.00  0.00    +0.000 A 
ATOM     11  C   UNL     1       0.140  12.516  20.104  0.00  0.00    +0.000 A 
ATOM     12  C   UNL     1       0.478  11.716  21.197  0.00  0.00    +0.000 A 
ATOM     13  C   UNL     1       0.830  10.377  20.958  0.00  0.00    +0.000 A 
ATOM     14  S   UNL     1       1.264   9.154  22.084  0.00  0.00    +0.000 S 
ATOM     15  N   UNL     1       2.053   6.096  18.847  0.00  0.00    +0.000 N 
ATOM     16  C   UNL     1       2.565   5.217  17.837  0.00  0.00    +0.000 C 
ATOM     17  H   UNL     1       1.987   6.507  22.037  0.00  0.00    +0.000 HD
ATOM     18  H   UNL     1       1.702   7.022  18.611  0.00  0.00    +0.000 HD
ENDROOT
BRANCH   1  19
ATOM     19  C   UNL     1       4.549   3.792  17.556  0.00  0.00    +0.000 C 
BRANCH  19  20
ATOM     20  C   UNL     1       5.366   4.702  16.623  0.00  0.00    +0.000 C 
BRANCH  20  24
ATOM     21  C   UNL     1       8.208   7.261  18.578  0.00  0.00    +0.000 A 
ATOM     22  C   UNL     1       8.045   5.948  19.012  0.00  0.00    +0.000 A 
ATOM     23  C   UNL     1       7.106   5.124  18.394  0.00  0.00    +0.000 A 
ATOM     24  C   UNL     1       6.335   5.607  17.330  0.00  0.00    +0.000 A 
ATOM     25  C   UNL     1       6.503   6.930  16.904  0.00  0.00    +0.000 A 
ATOM     26  C   UNL     1       7.440   7.752  17.523  0.00  0.00    +0.000 A 
ENDBRANCH  20  24
ENDBRANCH  19  20
ENDBRANCH   1  19
TORSDOF 3
ENDMDL
MODEL 7
REMARK VINA RESULT:      -7.8      6.362      9.536
REMARK  Name = 
REMARK  3 active torsions:
REMARK  status: ('A' for Active; 'I' for Inactive)
REMARK    1  A    between atoms: C_4  and  C_5
REMARK    2  A    between atoms: C_5  and  C_6
REMARK    3  A    between atoms: C_6  and  N_7
REMARK                            x       y       z     vdW  Elec       q    Type
REMARK                         _______ _______ _______ _____ _____    ______ ____
ROOT
ATOM      1  N   UNL     1       6.576   5.665  18.547  0.00  0.00    +0.000 NA
ATOM      2  C   UNL     1       6.974   5.575  17.152  0.00  0.00    +0.000 C 
ATOM      3  N   UNL     1       7.366   6.882  16.643  0.00  0.00    +0.000 NA
ATOM      4  C   UNL     1       7.874   7.675  17.514  0.00  0.00    +0.000 C 
ATOM      5  N   UNL     1       8.163   8.969  17.228  0.00  0.00    +0.000 N 
ATOM      6  C   UNL     1       8.538   9.956  18.066  0.00  0.00    +0.000 A 
ATOM      7  N   UNL     1       8.881   9.780  19.326  0.00  0.00    +0.000 NA
ATOM      8  C   UNL     1       9.232  10.994  19.903  0.00  0.00    +0.000 A 
ATOM      9  C   UNL     1       9.680  11.187  21.226  0.00  0.00    +0.000 A 
ATOM     10  C   UNL     1      10.011  12.473  21.666  0.00  0.00    +0.000 A 
ATOM     11  C   UNL     1       9.892  13.564  20.811  0.00  0.00    +0.000 A 
ATOM     12  C   UNL     1       9.443  13.399  19.498  0.00  0.00    +0.000 A 
ATOM     13  C   UNL     1       9.125  12.102  19.062  0.00  0.00    +0.000 A 
ATOM     14  S   UNL     1       8.579  11.583  17.518  0.00  0.00    +0.000 S 
ATOM     15  N   UNL     1       8.153   7.278  18.833  0.00  0.00    +0.000 N 
ATOM     16  C   UNL     1       7.755   5.984  19.305  0.00  0.00    +0.000 C 
ATOM     17  H   UNL     1       7.877   9.230  16.292  0.00  0.00    +0.000 HD
ATOM     18  H   UNL     1       8.522   7.979  19.471  0.00  0.00    +0.000 HD
ENDROOT
BRANCH   1  19
ATOM     19  C   UNL     1       5.819   4.498  19.008  0.00  0.00    +0.000 C 
BRANCH  19  20
ATOM     20  C   UNL     1       4.620   4.196  18.092  0.00  0.00    +0.000 C 
BRANCH  20  24
ATOM     21  C   UNL     1       0.889   3.835  20.189  0.00  0.00    +0.000 A 
ATOM     22  C   UNL     1       1.085   3.140  18.998  0.00  0.00    +0.000 A 
ATOM     23  C   UNL     1       2.286   3.275  18.304  0.00  0.00    +0.000 A 
ATOM     24  C   UNL     1       3.302   4.097  18.806  0.00  0.00    +0.000 A 
ATOM     25  C   UNL     1       3.095   4.795  20.001  0.00  0.00    +0.000 A 
ATOM     26  C   UNL     1       1.894   4.661  20.693  0.00  0.00    +0.000 A 
ENDBRANCH  20  24
ENDBRANCH  19  20
ENDBRANCH   1  19
TORSDOF 3
ENDMDL
MODEL 8
REMARK VINA RESULT:      -7.8      1.723      2.076
REMARK  Name = 
REMARK  3 active torsions:
REMARK  status: ('A' for Active; 'I' for Inactive)
REMARK    1  A    between atoms: C_4  and  C_5
REMARK    2  A    between atoms: C_5  and  C_6
REMARK    3  A    between atoms: C_6  and  N_7
REMARK                            x       y       z     vdW  Elec       q    Type
REMARK                         _______ _______ _______ _____ _____    ______ ____
ROOT
ATOM      1  N   UNL     1       0.307   9.834  19.348  0.00  0.00    +0.000 NA
ATOM      2  C   UNL     1       0.495   9.529  20.757  0.00  0.00    +0.000 C 
ATOM      3  N   UNL     1       1.146   8.237  20.923  0.00  0.00    +0.000 NA
ATOM      4  C   UNL     1       1.944   7.906  19.974  0.00  0.00    +0.000 C 
ATOM      5  N   UNL     1       2.521   6.679  19.915  0.00  0.00    +0.000 N 
ATOM      6  C   UNL     1       3.238   6.130  18.913  0.00  0.00    +0.000 A 
ATOM      7  N   UNL     1       3.674   6.787  17.857  0.00  0.00    +0.000 NA
ATOM      8  C   UNL     1       4.395   5.936  17.028  0.00  0.00    +0.000 A 
ATOM      9  C   UNL     1       5.035   6.295  15.823  0.00  0.00    +0.000 A 
ATOM     10  C   UNL     1       5.739   5.329  15.096  0.00  0.00    +0.000 A 
ATOM     11  C   UNL     1       5.802   4.014  15.547  0.00  0.00    +0.000 A 
ATOM     12  C   UNL     1       5.170   3.633  16.733  0.00  0.00    +0.000 A 
ATOM     13  C   UNL     1       4.477   4.613  17.462  0.00  0.00    +0.000 A 
ATOM     14  S   UNL     1       3.631   4.459  18.950  0.00  0.00    +0.000 S 
ATOM     15  N   UNL     1       2.269   8.771  18.916  0.00  0.00    +0.000 N 
ATOM     16  C   UNL     1       1.611  10.037  18.780  0.00  0.00    +0.000 C 
ATOM     17  H   UNL     1       2.201   6.066  20.654  0.00  0.00    +0.000 HD
ATOM     18  H   UNL     1       2.882   8.416  18.185  0.00  0.00    +0.000 HD
ENDROOT
BRANCH   1  19
ATOM     19  C   UNL     1      -0.665  10.905  19.114  0.00  0.00    +0.000 C 
BRANCH  19  20
ATOM     20  C   UNL     1      -2.106  10.369  19.057  0.00  0.00    +0.000 C 
BRANCH  20  24
ATOM     21  C   UNL     1      -3.887  10.721  15.165  0.00  0.00    +0.000 A 
ATOM     22  C   UNL     1      -4.437  11.410  16.243  0.00  0.00    +0.000 A 
ATOM     23  C   UNL     1      -3.874  11.278  17.511  0.00  0.00    +0.000 A 
ATOM     24  C   UNL     1      -2.751  10.465  17.703  0.00  0.00    +0.000 A 
ATOM     25  C   UNL     1      -2.207   9.772  16.614  0.00  0.00    +0.000 A 
ATOM     26  C   UNL     1      -2.771   9.904  15.348  0.00  0.00    +0.000 A 
ENDBRANCH  20  24
ENDBRANCH  19  20
ENDBRANCH   1  19
TORSDOF 3
ENDMDL
MODEL 9
REMARK VINA RESULT:      -7.7      0.715      1.345
REMARK  Name = 
REMARK  3 active torsions:
REMARK  status: ('A' for Active; 'I' for Inactive)
REMARK    1  A    between atoms: C_4  and  C_5
REMARK    2  A    between atoms: C_5  and  C_6
REMARK    3  A    between atoms: C_6  and  N_7
REMARK                            x       y       z     vdW  Elec       q    Type
REMARK                         _______ _______ _______ _____ _____    ______ ____
ROOT
ATOM      1  N   UNL     1       0.342  10.066  19.241  0.00  0.00    +0.000 NA
ATOM      2  C   UNL     1       0.686  10.313  20.632  0.00  0.00    +0.000 C 
ATOM      3  N   UNL     1       1.000   9.067  21.315  0.00  0.00    +0.000 NA
ATOM      4  C   UNL     1       1.509   8.153  20.572  0.00  0.00    +0.000 C 
ATOM      5  N   UNL     1       1.730   6.894  21.028  0.00  0.00    +0.000 N 
ATOM      6  C   UNL     1       2.096   5.797  20.335  0.00  0.00    +0.000 A 
ATOM      7  N   UNL     1       2.498   5.802  19.080  0.00  0.00    +0.000 NA
ATOM      8  C   UNL     1       2.820   4.514  18.674  0.00  0.00    +0.000 A 
ATOM      9  C   UNL     1       3.313   4.140  17.406  0.00  0.00    +0.000 A 
ATOM     10  C   UNL     1       3.606   2.798  17.143  0.00  0.00    +0.000 A 
ATOM     11  C   UNL     1       3.405   1.827  18.119  0.00  0.00    +0.000 A 
ATOM     12  C   UNL     1       2.910   2.171  19.380  0.00  0.00    +0.000 A 
ATOM     13  C   UNL     1       2.631   3.523  19.638  0.00  0.00    +0.000 A 
ATOM     14  S   UNL     1       2.044   4.250  21.080  0.00  0.00    +0.000 S 
ATOM     15  N   UNL     1       1.859   8.372  19.228  0.00  0.00    +0.000 N 
ATOM     16  C   UNL     1       1.536   9.611  18.584  0.00  0.00    +0.000 C 
ATOM     17  H   UNL     1       1.394   6.763  21.974  0.00  0.00    +0.000 HD
ATOM     18  H   UNL     1       2.223   7.583  18.700  0.00  0.00    +0.000 HD
ENDROOT
BRANCH   1  19
ATOM     19  C   UNL     1      -0.345  11.195  18.606  0.00  0.00    +0.000 C 
BRANCH  19  20
ATOM     20  C   UNL     1      -1.588  11.628  19.402  0.00  0.00    +0.000 C 
BRANCH  20  24
ATOM     21  C   UNL     1      -5.236  11.644  17.135  0.00  0.00    +0.000 A 
ATOM     22  C   UNL     1      -4.050  11.227  16.536  0.00  0.00    +0.000 A 
ATOM     23  C   UNL     1      -2.861  11.244  17.264  0.00  0.00    +0.000 A 
ATOM     24  C   UNL     1      -2.857  11.666  18.598  0.00  0.00    +0.000 A 
ATOM     25  C   UNL     1      -4.053  12.088  19.191  0.00  0.00    +0.000 A 
ATOM     26  C   UNL     1      -5.240  12.071  18.463  0.00  0.00    +0.000 A 
ENDBRANCH  20  24
ENDBRANCH  19  20
ENDBRANCH   1  19
TORSDOF 3
ENDMDL
