MODEL 1
REMARK VINA RESULT:      -7.5      0.000      0.000
REMARK  Name = 
REMARK  10 active torsions:
REMARK  status: ('A' for Active; 'I' for Inactive)
REMARK    1  A    between atoms: C_1  and  O_2
REMARK    2  A    between atoms: O_2  and  C_3
REMARK    3  A    between atoms: C_3  and  C_4
REMARK    4  A    between atoms: C_6  and  C_7
REMARK    5  A    between atoms: C_9  and  S_10
REMARK    6  A    between atoms: S_10  and  C_11
REMARK    7  A    between atoms: C_11  and  C_12
REMARK    8  A    between atoms: N_14  and  C_15
REMARK    9  A    between atoms: C_20  and  O_21
REMARK   10  A    between atoms: C_25  and  C_26
REMARK                            x       y       z     vdW  Elec       q    Type
REMARK                         _______ _______ _______ _____ _____    ______ ____
ROOT
ATOM      1  C   UNL     1       2.214   4.910  20.337  0.00  0.00    +0.000 C 
ATOM      2  O   UNL     1       1.194   4.579  19.733  0.00  0.00    +0.000 OA
ATOM      3  N   UNL     1       2.772   6.182  20.338  0.00  0.00    +0.000 N 
ATOM      4  H   UNL     1       3.734   6.252  20.658  0.00  0.00    +0.000 HD
ENDROOT
BRANCH   3   5
ATOM      5  C   UNL     1       2.246   7.312  19.662  0.00  0.00    +0.000 A 
ATOM      6  C   UNL     1       2.527   7.579  18.317  0.00  0.00    +0.000 A 
ATOM      7  C   UNL     1       2.098   8.750  17.682  0.00  0.00    +0.000 A 
ATOM      8  C   UNL     1       1.364   9.639  18.456  0.00  0.00    +0.000 A 
ATOM      9  N   UNL     1       0.837  10.879  18.182  0.00  0.00    +0.000 N 
ATOM     10  C   UNL     1       0.213  11.319  19.314  0.00  0.00    +0.000 A 
ATOM     11  N   UNL     1       0.281  10.444  20.287  0.00  0.00    +0.000 NA
ATOM     12  C   UNL     1       1.009   9.395  19.776  0.00  0.00    +0.000 A 
ATOM     13  C   UNL     1       1.433   8.200  20.389  0.00  0.00    +0.000 A 
ATOM     14  H   UNL     1       0.927  11.377  17.310  0.00  0.00    +0.000 HD
BRANCH  10  15
ATOM     15  O   UNL     1      -0.382  12.492  19.427  0.00  0.00    +0.000 OA
ATOM     16  H   UNL     1      -1.289  12.363  19.741  0.00  0.00    +0.000 HD
ENDBRANCH  10  15
ENDBRANCH   3   5
BRANCH   1  17
ATOM     17  C   UNL     1       2.981   3.892  21.168  0.00  0.00    +0.000 C 
BRANCH  17  18
ATOM     18  S   UNL     1       3.886   2.731  20.092  0.00  0.00    +0.000 S 
BRANCH  18  24
ATOM     19  C   UNL     1       5.365   4.980  17.012  0.00  0.00    +0.000 A 
ATOM     20  C   UNL     1       6.493   5.515  17.652  0.00  0.00    +0.000 A 
ATOM     21  C   UNL     1       6.733   5.214  18.987  0.00  0.00    +0.000 A 
ATOM     22  C   UNL     1       7.926   5.771  19.703  0.00  0.00    +0.000 C 
ATOM     23  N   UNL     1       5.921   4.409  19.708  0.00  0.00    +0.000 NA
ATOM     24  C   UNL     1       4.838   3.869  19.090  0.00  0.00    +0.000 A 
ATOM     25  C   UNL     1       4.518   4.131  17.752  0.00  0.00    +0.000 A 
BRANCH  25  26
ATOM     26  C   UNL     1       3.350   3.561  17.148  0.00  0.00    +0.000 C 
ATOM     27  N   UNL     1       2.367   3.161  16.676  0.00  0.00    +0.000 NA
ENDBRANCH  25  26
BRANCH  19  28
ATOM     28  C   UNL     1       5.087   5.368  15.576  0.00  0.00    +0.000 C 
BRANCH  28  30
ATOM     29  C   UNL     1       6.760   4.629  14.098  0.00  0.00    +0.000 C 
ATOM     30  O   UNL     1       6.313   5.700  14.925  0.00  0.00    +0.000 OA
ENDBRANCH  28  30
ENDBRANCH  19  28
ENDBRANCH  18  24
ENDBRANCH  17  18
ENDBRANCH   1  17
TORSDOF 8
ENDMDL
MODEL 2
REMARK VINA RESULT:      -6.8      1.670      3.241
REMARK  Name = 
REMARK  10 active torsions:
REMARK  status: ('A' for Active; 'I' for Inactive)
REMARK    1  A    between atoms: C_1  and  O_2
REMARK    2  A    between atoms: O_2  and  C_3
REMARK    3  A    between atoms: C_3  and  C_4
REMARK    4  A    between atoms: C_6  and  C_7
REMARK    5  A    between atoms: C_9  and  S_10
REMARK    6  A    between atoms: S_10  and  C_11
REMARK    7  A    between atoms: C_11  and  C_12
REMARK    8  A    between atoms: N_14  and  C_15
REMARK    9  A    between atoms: C_20  and  O_21
REMARK   10  A    between atoms: C_25  and  C_26
REMARK                            x       y       z     vdW  Elec       q    Type
REMARK                         _______ _______ _______ _____ _____    ______ ____
ROOT
ATOM      1  C   UNL     1       2.160   4.185  17.990  0.00  0.00    +0.000 C 
ATOM      2  O   UNL     1       1.116   4.446  17.394  0.00  0.00    +0.000 OA
ATOM      3  N   UNL     1       2.825   5.037  18.862  0.00  0.00    +0.000 N 
ATOM      4  H   UNL     1       3.789   4.800  19.077  0.00  0.00    +0.000 HD
ENDROOT
BRANCH   3   5
ATOM      5  C   UNL     1       2.396   6.338  19.226  0.00  0.00    +0.000 A 
ATOM      6  C   UNL     1       1.869   6.629  20.490  0.00  0.00    +0.000 A 
ATOM      7  C   UNL     1       1.345   7.887  20.811  0.00  0.00    +0.000 A 
ATOM      8  C   UNL     1       1.383   8.845  19.808  0.00  0.00    +0.000 A 
ATOM      9  N   UNL     1       0.925  10.140  19.756  0.00  0.00    +0.000 N 
ATOM     10  C   UNL     1       1.216  10.630  18.515  0.00  0.00    +0.000 A 
ATOM     11  N   UNL     1       1.847   9.752  17.774  0.00  0.00    +0.000 NA
ATOM     12  C   UNL     1       1.947   8.627  18.558  0.00  0.00    +0.000 A 
ATOM     13  C   UNL     1       2.488   7.360  18.264  0.00  0.00    +0.000 A 
ATOM     14  H   UNL     1       0.436  10.623  20.495  0.00  0.00    +0.000 HD
BRANCH  10  15
ATOM     15  O   UNL     1       0.893  11.840  18.097  0.00  0.00    +0.000 OA
ATOM     16  H   UNL     1       1.497  12.106  17.388  0.00  0.00    +0.000 HD
ENDBRANCH  10  15
ENDBRANCH   3   5
BRANCH   1  17
ATOM     17  C   UNL     1       2.839   2.836  17.800  0.00  0.00    +0.000 C 
BRANCH  17  18
ATOM     18  S   UNL     1       4.522   2.854  18.502  0.00  0.00    +0.000 S 
BRANCH  18  24
ATOM     19  C   UNL     1       6.830   5.662  16.625  0.00  0.00    +0.000 A 
ATOM     20  C   UNL     1       6.503   5.360  15.293  0.00  0.00    +0.000 A 
ATOM     21  C   UNL     1       5.644   4.302  15.019  0.00  0.00    +0.000 A 
ATOM     22  C   UNL     1       5.279   3.950  13.609  0.00  0.00    +0.000 C 
ATOM     23  N   UNL     1       5.092   3.543  15.992  0.00  0.00    +0.000 NA
ATOM     24  C   UNL     1       5.386   3.842  17.284  0.00  0.00    +0.000 A 
ATOM     25  C   UNL     1       6.250   4.883  17.646  0.00  0.00    +0.000 A 
BRANCH  25  26
ATOM     26  C   UNL     1       6.552   5.146  19.022  0.00  0.00    +0.000 C 
ATOM     27  N   UNL     1       6.868   5.365  20.118  0.00  0.00    +0.000 NA
ENDBRANCH  25  26
BRANCH  19  28
ATOM     28  C   UNL     1       7.813   6.778  16.901  0.00  0.00    +0.000 C 
BRANCH  28  30
ATOM     29  C   UNL     1       7.906   8.932  17.840  0.00  0.00    +0.000 C 
ATOM     30  O   UNL     1       7.103   7.996  17.125  0.00  0.00    +0.000 OA
ENDBRANCH  28  30
ENDBRANCH  19  28
ENDBRANCH  18  24
ENDBRANCH  17  18
ENDBRANCH   1  17
TORSDOF 8
ENDMDL
MODEL 3
REMARK VINA RESULT:      -6.7      3.185      9.147
REMARK  Name = 
REMARK  10 active torsions:
REMARK  status: ('A' for Active; 'I' for Inactive)
REMARK    1  A    between atoms: C_1  and  O_2
REMARK    2  A    between atoms: O_2  and  C_3
REMARK    3  A    between atoms: C_3  and  C_4
REMARK    4  A    between atoms: C_6  and  C_7
REMARK    5  A    between atoms: C_9  and  S_10
REMARK    6  A    between atoms: S_10  and  C_11
REMARK    7  A    between atoms: C_11  and  C_12
REMARK    8  A    between atoms: N_14  and  C_15
REMARK    9  A    between atoms: C_20  and  O_21
REMARK   10  A    between atoms: C_25  and  C_26
REMARK                            x       y       z     vdW  Elec       q    Type
REMARK                         _______ _______ _______ _____ _____    ______ ____
ROOT
ATOM      1  C   UNL     1       2.440   8.316  17.921  0.00  0.00    +0.000 C 
ATOM      2  O   UNL     1       3.024   8.157  16.849  0.00  0.00    +0.000 OA
ATOM      3  N   UNL     1       2.136   7.310  18.828  0.00  0.00    +0.000 N 
ATOM      4  H   UNL     1       1.438   7.535  19.532  0.00  0.00    +0.000 HD
ENDROOT
BRANCH   3   5
ATOM      5  C   UNL     1       2.467   5.940  18.679  0.00  0.00    +0.000 A 
ATOM      6  C   UNL     1       1.714   5.069  17.883  0.00  0.00    +0.000 A 
ATOM      7  C   UNL     1       1.977   3.694  17.824  0.00  0.00    +0.000 A 
ATOM      8  C   UNL     1       3.037   3.235  18.593  0.00  0.00    +0.000 A 
ATOM      9  N   UNL     1       3.536   1.973  18.810  0.00  0.00    +0.000 N 
ATOM     10  C   UNL     1       4.591   2.091  19.669  0.00  0.00    +0.000 A 
ATOM     11  N   UNL     1       4.820   3.337  20.002  0.00  0.00    +0.000 NA
ATOM     12  C   UNL     1       3.851   4.065  19.354  0.00  0.00    +0.000 A 
ATOM     13  C   UNL     1       3.582   5.447  19.381  0.00  0.00    +0.000 A 
ATOM     14  H   UNL     1       3.165   1.118  18.424  0.00  0.00    +0.000 HD
BRANCH  10  15
ATOM     15  O   UNL     1       5.296   1.072  20.126  0.00  0.00    +0.000 OA
ATOM     16  H   UNL     1       6.075   1.406  20.596  0.00  0.00    +0.000 HD
ENDBRANCH  10  15
ENDBRANCH   3   5
BRANCH   1  17
ATOM     17  C   UNL     1       1.981   9.702  18.349  0.00  0.00    +0.000 C 
BRANCH  17  18
ATOM     18  S   UNL     1       0.892   9.600  19.808  0.00  0.00    +0.000 S 
BRANCH  18  24
ATOM     19  C   UNL     1      -2.392  12.020  19.497  0.00  0.00    +0.000 A 
ATOM     20  C   UNL     1      -2.830  11.633  18.221  0.00  0.00    +0.000 A 
ATOM     21  C   UNL     1      -2.098  10.700  17.496  0.00  0.00    +0.000 A 
ATOM     22  C   UNL     1      -2.534  10.268  16.129  0.00  0.00    +0.000 C 
ATOM     23  N   UNL     1      -0.968  10.133  17.974  0.00  0.00    +0.000 NA
ATOM     24  C   UNL     1      -0.548  10.486  19.218  0.00  0.00    +0.000 A 
ATOM     25  C   UNL     1      -1.222  11.425  20.009  0.00  0.00    +0.000 A 
BRANCH  25  26
ATOM     26  C   UNL     1      -0.728  11.787  21.305  0.00  0.00    +0.000 C 
ATOM     27  N   UNL     1      -0.273  12.033  22.345  0.00  0.00    +0.000 NA
ENDBRANCH  25  26
BRANCH  19  28
ATOM     28  C   UNL     1      -3.169  13.081  20.246  0.00  0.00    +0.000 C 
BRANCH  28  30
ATOM     29  C   UNL     1      -4.259  12.803  22.311  0.00  0.00    +0.000 C 
ATOM     30  O   UNL     1      -4.271  12.477  20.923  0.00  0.00    +0.000 OA
ENDBRANCH  28  30
ENDBRANCH  19  28
ENDBRANCH  18  24
ENDBRANCH  17  18
ENDBRANCH   1  17
TORSDOF 8
ENDMDL
MODEL 4
REMARK VINA RESULT:      -6.6      5.148      7.147
REMARK  Name = 
REMARK  10 active torsions:
REMARK  status: ('A' for Active; 'I' for Inactive)
REMARK    1  A    between atoms: C_1  and  O_2
REMARK    2  A    between atoms: O_2  and  C_3
REMARK    3  A    between atoms: C_3  and  C_4
REMARK    4  A    between atoms: C_6  and  C_7
REMARK    5  A    between atoms: C_9  and  S_10
REMARK    6  A    between atoms: S_10  and  C_11
REMARK    7  A    between atoms: C_11  and  C_12
REMARK    8  A    between atoms: N_14  and  C_15
REMARK    9  A    between atoms: C_20  and  O_21
REMARK   10  A    between atoms: C_25  and  C_26
REMARK                            x       y       z     vdW  Elec       q    Type
REMARK                         _______ _______ _______ _____ _____    ______ ____
ROOT
ATOM      1  C   UNL     1       7.841   7.853  18.030  0.00  0.00    +0.000 C 
ATOM      2  O   UNL     1       8.585   7.343  18.868  0.00  0.00    +0.000 OA
ATOM      3  N   UNL     1       7.784   9.205  17.721  0.00  0.00    +0.000 N 
ATOM      4  H   UNL     1       6.962   9.516  17.210  0.00  0.00    +0.000 HD
ENDROOT
BRANCH   3   5
ATOM      5  C   UNL     1       8.588  10.217  18.303  0.00  0.00    +0.000 A 
ATOM      6  C   UNL     1       9.290  10.021  19.499  0.00  0.00    +0.000 A 
ATOM      7  C   UNL     1       9.994  11.054  20.129  0.00  0.00    +0.000 A 
ATOM      8  C   UNL     1       9.972  12.291  19.500  0.00  0.00    +0.000 A 
ATOM      9  N   UNL     1      10.499  13.511  19.851  0.00  0.00    +0.000 N 
ATOM     10  C   UNL     1      10.169  14.399  18.867  0.00  0.00    +0.000 A 
ATOM     11  N   UNL     1       9.488  13.835  17.901  0.00  0.00    +0.000 NA
ATOM     12  C   UNL     1       9.340  12.523  18.284  0.00  0.00    +0.000 A 
ATOM     13  C   UNL     1       8.656  11.464  17.657  0.00  0.00    +0.000 A 
ATOM     14  H   UNL     1      11.010  13.710  20.697  0.00  0.00    +0.000 HD
BRANCH  10  15
ATOM     15  O   UNL     1      10.485  15.681  18.886  0.00  0.00    +0.000 OA
ATOM     16  H   UNL     1      10.097  16.095  19.672  0.00  0.00    +0.000 HD
ENDBRANCH  10  15
ENDBRANCH   3   5
BRANCH   1  17
ATOM     17  C   UNL     1       6.873   6.989  17.233  0.00  0.00    +0.000 C 
BRANCH  17  18
ATOM     18  S   UNL     1       6.465   5.465  18.146  0.00  0.00    +0.000 S 
BRANCH  18  24
ATOM     19  C   UNL     1       2.512   4.913  19.047  0.00  0.00    +0.000 A 
ATOM     20  C   UNL     1       2.012   6.149  18.609  0.00  0.00    +0.000 A 
ATOM     21  C   UNL     1       2.887   7.105  18.107  0.00  0.00    +0.000 A 
ATOM     22  C   UNL     1       2.388   8.437  17.635  0.00  0.00    +0.000 C 
ATOM     23  N   UNL     1       4.219   6.894  18.012  0.00  0.00    +0.000 NA
ATOM     24  C   UNL     1       4.709   5.692  18.414  0.00  0.00    +0.000 A 
ATOM     25  C   UNL     1       3.898   4.678  18.941  0.00  0.00    +0.000 A 
BRANCH  25  26
ATOM     26  C   UNL     1       4.462   3.435  19.378  0.00  0.00    +0.000 C 
ATOM     27  N   UNL     1       4.871   2.429  19.788  0.00  0.00    +0.000 NA
ENDBRANCH  25  26
BRANCH  19  28
ATOM     28  C   UNL     1       1.554   3.907  19.647  0.00  0.00    +0.000 C 
BRANCH  28  30
ATOM     29  C   UNL     1       1.511   2.679  21.652  0.00  0.00    +0.000 C 
ATOM     30  O   UNL     1       1.618   3.976  21.072  0.00  0.00    +0.000 OA
ENDBRANCH  28  30
ENDBRANCH  19  28
ENDBRANCH  18  24
ENDBRANCH  17  18
ENDBRANCH   1  17
TORSDOF 8
ENDMDL
MODEL 5
REMARK VINA RESULT:      -6.6      3.540      9.657
REMARK  Name = 
REMARK  10 active torsions:
REMARK  status: ('A' for Active; 'I' for Inactive)
REMARK    1  A    between atoms: C_1  and  O_2
REMARK    2  A    between atoms: O_2  and  C_3
REMARK    3  A    between atoms: C_3  and  C_4
REMARK    4  A    between atoms: C_6  and  C_7
REMARK    5  A    between atoms: C_9  and  S_10
REMARK    6  A    between atoms: S_10  and  C_11
REMARK    7  A    between atoms: C_11  and  C_12
REMARK    8  A    between atoms: N_14  and  C_15
REMARK    9  A    between atoms: C_20  and  O_21
REMARK   10  A    between atoms: C_25  and  C_26
REMARK                            x       y       z     vdW  Elec       q    Type
REMARK                         _______ _______ _______ _____ _____    ______ ____
ROOT
ATOM      1  C   UNL     1       1.759   8.570  18.927  0.00  0.00    +0.000 C 
ATOM      2  O   UNL     1       1.965   8.244  20.096  0.00  0.00    +0.000 OA
ATOM      3  N   UNL     1       2.282   7.933  17.809  0.00  0.00    +0.000 N 
ATOM      4  H   UNL     1       2.243   8.452  16.937  0.00  0.00    +0.000 HD
ENDROOT
BRANCH   3   5
ATOM      5  C   UNL     1       3.120   6.791  17.831  0.00  0.00    +0.000 A 
ATOM      6  C   UNL     1       2.646   5.519  18.176  0.00  0.00    +0.000 A 
ATOM      7  C   UNL     1       3.496   4.414  18.304  0.00  0.00    +0.000 A 
ATOM      8  C   UNL     1       4.843   4.639  18.059  0.00  0.00    +0.000 A 
ATOM      9  N   UNL     1       5.942   3.817  18.137  0.00  0.00    +0.000 N 
ATOM     10  C   UNL     1       7.036   4.560  17.797  0.00  0.00    +0.000 A 
ATOM     11  N   UNL     1       6.718   5.792  17.485  0.00  0.00    +0.000 NA
ATOM     12  C   UNL     1       5.356   5.866  17.658  0.00  0.00    +0.000 A 
ATOM     13  C   UNL     1       4.480   6.960  17.515  0.00  0.00    +0.000 A 
ATOM     14  H   UNL     1       5.935   2.850  18.423  0.00  0.00    +0.000 HD
BRANCH  10  15
ATOM     15  O   UNL     1       8.275   4.102  17.791  0.00  0.00    +0.000 OA
ATOM     16  H   UNL     1       8.441   3.620  18.615  0.00  0.00    +0.000 HD
ENDBRANCH  10  15
ENDBRANCH   3   5
BRANCH   1  17
ATOM     17  C   UNL     1       0.871   9.764  18.606  0.00  0.00    +0.000 C 
BRANCH  17  18
ATOM     18  S   UNL     1       0.662  10.827  20.073  0.00  0.00    +0.000 S 
BRANCH  18  24
ATOM     19  C   UNL     1      -3.040  12.504  20.540  0.00  0.00    +0.000 A 
ATOM     20  C   UNL     1      -3.579  12.200  19.280  0.00  0.00    +0.000 A 
ATOM     21  C   UNL     1      -2.795  11.549  18.336  0.00  0.00    +0.000 A 
ATOM     22  C   UNL     1      -3.338  11.213  16.980  0.00  0.00    +0.000 C 
ATOM     23  N   UNL     1      -1.518  11.180  18.581  0.00  0.00    +0.000 NA
ATOM     24  C   UNL     1      -0.995  11.451  19.805  0.00  0.00    +0.000 A 
ATOM     25  C   UNL     1      -1.713  12.114  20.809  0.00  0.00    +0.000 A 
BRANCH  25  26
ATOM     26  C   UNL     1      -1.112  12.403  22.078  0.00  0.00    +0.000 C 
ATOM     27  N   UNL     1      -0.685  12.610  23.138  0.00  0.00    +0.000 NA
ENDBRANCH  25  26
BRANCH  19  28
ATOM     28  C   UNL     1      -3.888  13.267  21.534  0.00  0.00    +0.000 C 
BRANCH  28  30
ATOM     29  C   UNL     1      -6.150  12.758  21.929  0.00  0.00    +0.000 C 
ATOM     30  O   UNL     1      -4.800  12.372  22.171  0.00  0.00    +0.000 OA
ENDBRANCH  28  30
ENDBRANCH  19  28
ENDBRANCH  18  24
ENDBRANCH  17  18
ENDBRANCH   1  17
TORSDOF 8
ENDMDL
MODEL 6
REMARK VINA RESULT:      -6.6      3.461      9.338
REMARK  Name = 
REMARK  10 active torsions:
REMARK  status: ('A' for Active; 'I' for Inactive)
REMARK    1  A    between atoms: C_1  and  O_2
REMARK    2  A    between atoms: O_2  and  C_3
REMARK    3  A    between atoms: C_3  and  C_4
REMARK    4  A    between atoms: C_6  and  C_7
REMARK    5  A    between atoms: C_9  and  S_10
REMARK    6  A    between atoms: S_10  and  C_11
REMARK    7  A    between atoms: C_11  and  C_12
REMARK    8  A    between atoms: N_14  and  C_15
REMARK    9  A    between atoms: C_20  and  O_21
REMARK   10  A    between atoms: C_25  and  C_26
REMARK                            x       y       z     vdW  Elec       q    Type
REMARK                         _______ _______ _______ _____ _____    ______ ____
ROOT
ATOM      1  C   UNL     1       1.850   8.599  18.544  0.00  0.00    +0.000 C 
ATOM      2  O   UNL     1       1.928   9.091  17.419  0.00  0.00    +0.000 OA
ATOM      3  N   UNL     1       2.387   7.377  18.929  0.00  0.00    +0.000 N 
ATOM      4  H   UNL     1       2.033   6.982  19.795  0.00  0.00    +0.000 HD
ENDROOT
BRANCH   3   5
ATOM      5  C   UNL     1       3.133   6.509  18.094  0.00  0.00    +0.000 A 
ATOM      6  C   UNL     1       2.843   5.143  17.982  0.00  0.00    +0.000 A 
ATOM      7  C   UNL     1       3.647   4.266  17.245  0.00  0.00    +0.000 A 
ATOM      8  C   UNL     1       4.751   4.822  16.614  0.00  0.00    +0.000 A 
ATOM      9  N   UNL     1       5.761   4.265  15.866  0.00  0.00    +0.000 N 
ATOM     10  C   UNL     1       6.602   5.275  15.495  0.00  0.00    +0.000 A 
ATOM     11  N   UNL     1       6.196   6.441  15.931  0.00  0.00    +0.000 NA
ATOM     12  C   UNL     1       5.051   6.178  16.646  0.00  0.00    +0.000 A 
ATOM     13  C   UNL     1       4.216   7.046  17.376  0.00  0.00    +0.000 A 
ATOM     14  H   UNL     1       5.868   3.284  15.659  0.00  0.00    +0.000 HD
BRANCH  10  15
ATOM     15  O   UNL     1       7.705   5.103  14.789  0.00  0.00    +0.000 OA
ATOM     16  H   UNL     1       7.601   4.328  14.215  0.00  0.00    +0.000 HD
ENDBRANCH  10  15
ENDBRANCH   3   5
BRANCH   1  17
ATOM     17  C   UNL     1       1.112   9.333  19.656  0.00  0.00    +0.000 C 
BRANCH  17  18
ATOM     18  S   UNL     1       1.024  11.120  19.302  0.00  0.00    +0.000 S 
BRANCH  18  24
ATOM     19  C   UNL     1      -2.954  12.064  19.445  0.00  0.00    +0.000 A 
ATOM     20  C   UNL     1      -3.388  11.358  18.313  0.00  0.00    +0.000 A 
ATOM     21  C   UNL     1      -2.464  10.670  17.536  0.00  0.00    +0.000 A 
ATOM     22  C   UNL     1      -2.893   9.909  16.318  0.00  0.00    +0.000 C 
ATOM     23  N   UNL     1      -1.145  10.642  17.829  0.00  0.00    +0.000 NA
ATOM     24  C   UNL     1      -0.718  11.306  18.935  0.00  0.00    +0.000 A 
ATOM     25  C   UNL     1      -1.582  12.032  19.765  0.00  0.00    +0.000 A 
BRANCH  25  26
ATOM     26  C   UNL     1      -1.084  12.740  20.908  0.00  0.00    +0.000 C 
ATOM     27  N   UNL     1      -0.613  13.291  21.815  0.00  0.00    +0.000 NA
ENDBRANCH  25  26
BRANCH  19  28
ATOM     28  C   UNL     1      -3.965  12.856  20.244  0.00  0.00    +0.000 C 
BRANCH  28  30
ATOM     29  C   UNL     1      -6.140  12.162  20.807  0.00  0.00    +0.000 C 
ATOM     30  O   UNL     1      -5.279  12.587  19.755  0.00  0.00    +0.000 OA
ENDBRANCH  28  30
ENDBRANCH  19  28
ENDBRANCH  18  24
ENDBRANCH  17  18
ENDBRANCH   1  17
TORSDOF 8
ENDMDL
MODEL 7
REMARK VINA RESULT:      -6.5      3.059      4.503
REMARK  Name = 
REMARK  10 active torsions:
REMARK  status: ('A' for Active; 'I' for Inactive)
REMARK    1  A    between atoms: C_1  and  O_2
REMARK    2  A    between atoms: O_2  and  C_3
REMARK    3  A    between atoms: C_3  and  C_4
REMARK    4  A    between atoms: C_6  and  C_7
REMARK    5  A    between atoms: C_9  and  S_10
REMARK    6  A    between atoms: S_10  and  C_11
REMARK    7  A    between atoms: C_11  and  C_12
REMARK    8  A    between atoms: N_14  and  C_15
REMARK    9  A    between atoms: C_20  and  O_21
REMARK   10  A    between atoms: C_25  and  C_26
REMARK                            x       y       z     vdW  Elec       q    Type
REMARK                         _______ _______ _______ _____ _____    ______ ____
ROOT
ATOM      1  C   UNL     1       0.975   8.875  20.036  0.00  0.00    +0.000 C 
ATOM      2  O   UNL     1       0.536   9.096  21.165  0.00  0.00    +0.000 OA
ATOM      3  N   UNL     1       0.459   9.395  18.856  0.00  0.00    +0.000 N 
ATOM      4  H   UNL     1       0.748   8.935  17.997  0.00  0.00    +0.000 HD
ENDROOT
BRANCH   3   5
ATOM      5  C   UNL     1      -0.641  10.282  18.760  0.00  0.00    +0.000 A 
ATOM      6  C   UNL     1      -0.771  11.408  19.583  0.00  0.00    +0.000 A 
ATOM      7  C   UNL     1      -1.911  12.221  19.563  0.00  0.00    +0.000 A 
ATOM      8  C   UNL     1      -2.912  11.859  18.672  0.00  0.00    +0.000 A 
ATOM      9  N   UNL     1      -4.157  12.386  18.425  0.00  0.00    +0.000 N 
ATOM     10  C   UNL     1      -4.736  11.631  17.445  0.00  0.00    +0.000 A 
ATOM     11  N   UNL     1      -3.946  10.673  17.030  0.00  0.00    +0.000 NA
ATOM     12  C   UNL     1      -2.809  10.788  17.794  0.00  0.00    +0.000 A 
ATOM     13  C   UNL     1      -1.644   9.996  17.816  0.00  0.00    +0.000 A 
ATOM     14  H   UNL     1      -4.572  13.170  18.906  0.00  0.00    +0.000 HD
BRANCH  10  15
ATOM     15  O   UNL     1      -5.954  11.829  16.975  0.00  0.00    +0.000 OA
ATOM     16  H   UNL     1      -5.976  11.592  16.035  0.00  0.00    +0.000 HD
ENDBRANCH  10  15
ENDBRANCH   3   5
BRANCH   1  17
ATOM     17  C   UNL     1       2.177   7.962  19.842  0.00  0.00    +0.000 C 
BRANCH  17  18
ATOM     18  S   UNL     1       2.729   7.980  18.104  0.00  0.00    +0.000 S 
BRANCH  18  24
ATOM     19  C   UNL     1       4.565   4.469  17.083  0.00  0.00    +0.000 A 
ATOM     20  C   UNL     1       3.529   3.578  17.404  0.00  0.00    +0.000 A 
ATOM     21  C   UNL     1       2.348   4.065  17.951  0.00  0.00    +0.000 A 
ATOM     22  C   UNL     1       1.224   3.142  18.310  0.00  0.00    +0.000 C 
ATOM     23  N   UNL     1       2.144   5.381  18.187  0.00  0.00    +0.000 NA
ATOM     24  C   UNL     1       3.134   6.253  17.860  0.00  0.00    +0.000 A 
ATOM     25  C   UNL     1       4.357   5.844  17.314  0.00  0.00    +0.000 A 
BRANCH  25  26
ATOM     26  C   UNL     1       5.384   6.797  17.009  0.00  0.00    +0.000 C 
ATOM     27  N   UNL     1       6.229   7.573  16.833  0.00  0.00    +0.000 NA
ENDBRANCH  25  26
BRANCH  19  28
ATOM     28  C   UNL     1       5.865   3.915  16.544  0.00  0.00    +0.000 C 
BRANCH  28  30
ATOM     29  C   UNL     1       6.792   4.585  14.489  0.00  0.00    +0.000 C 
ATOM     30  O   UNL     1       5.784   3.802  15.123  0.00  0.00    +0.000 OA
ENDBRANCH  28  30
ENDBRANCH  19  28
ENDBRANCH  18  24
ENDBRANCH  17  18
ENDBRANCH   1  17
TORSDOF 8
ENDMDL
MODEL 8
REMARK VINA RESULT:      -6.5      5.066      7.124
REMARK  Name = 
REMARK  10 active torsions:
REMARK  status: ('A' for Active; 'I' for Inactive)
REMARK    1  A    between atoms: C_1  and  O_2
REMARK    2  A    between atoms: O_2  and  C_3
REMARK    3  A    between atoms: C_3  and  C_4
REMARK    4  A    between atoms: C_6  and  C_7
REMARK    5  A    between atoms: C_9  and  S_10
REMARK    6  A    between atoms: S_10  and  C_11
REMARK    7  A    between atoms: C_11  and  C_12
REMARK    8  A    between atoms: N_14  and  C_15
REMARK    9  A    between atoms: C_20  and  O_21
REMARK   10  A    between atoms: C_25  and  C_26
REMARK                            x       y       z     vdW  Elec       q    Type
REMARK                         _______ _______ _______ _____ _____    ______ ____
ROOT
ATOM      1  C   UNL     1       7.736   7.969  17.959  0.00  0.00    +0.000 C 
ATOM      2  O   UNL     1       7.191   8.604  17.057  0.00  0.00    +0.000 OA
ATOM      3  N   UNL     1       8.646   8.486  18.872  0.00  0.00    +0.000 N 
ATOM      4  H   UNL     1       9.203   7.809  19.385  0.00  0.00    +0.000 HD
ENDROOT
BRANCH   3   5
ATOM      5  C   UNL     1       9.079   9.834  18.928  0.00  0.00    +0.000 A 
ATOM      6  C   UNL     1       9.591  10.504  17.810  0.00  0.00    +0.000 A 
ATOM      7  C   UNL     1      10.120  11.798  17.892  0.00  0.00    +0.000 A 
ATOM      8  C   UNL     1      10.101  12.395  19.145  0.00  0.00    +0.000 A 
ATOM      9  N   UNL     1      10.569  13.607  19.593  0.00  0.00    +0.000 N 
ATOM     10  C   UNL     1      10.296  13.684  20.929  0.00  0.00    +0.000 A 
ATOM     11  N   UNL     1       9.669  12.621  21.367  0.00  0.00    +0.000 NA
ATOM     12  C   UNL     1       9.551  11.797  20.272  0.00  0.00    +0.000 A 
ATOM     13  C   UNL     1       9.006  10.504  20.162  0.00  0.00    +0.000 A 
ATOM     14  H   UNL     1      11.051  14.296  19.036  0.00  0.00    +0.000 HD
BRANCH  10  15
ATOM     15  O   UNL     1      10.633  14.702  21.700  0.00  0.00    +0.000 OA
ATOM     16  H   UNL     1      11.051  15.389  21.159  0.00  0.00    +0.000 HD
ENDBRANCH  10  15
ENDBRANCH   3   5
BRANCH   1  17
ATOM     17  C   UNL     1       7.439   6.488  18.146  0.00  0.00    +0.000 C 
BRANCH  17  18
ATOM     18  S   UNL     1       6.152   5.934  16.979  0.00  0.00    +0.000 S 
BRANCH  18  24
ATOM     19  C   UNL     1       2.945   5.749  19.513  0.00  0.00    +0.000 A 
ATOM     20  C   UNL     1       2.299   6.937  19.137  0.00  0.00    +0.000 A 
ATOM     21  C   UNL     1       2.876   7.759  18.176  0.00  0.00    +0.000 A 
ATOM     22  C   UNL     1       2.216   9.036  17.755  0.00  0.00    +0.000 C 
ATOM     23  N   UNL     1       4.047   7.458  17.570  0.00  0.00    +0.000 NA
ATOM     24  C   UNL     1       4.668   6.300  17.913  0.00  0.00    +0.000 A 
ATOM     25  C   UNL     1       4.160   5.421  18.879  0.00  0.00    +0.000 A 
BRANCH  25  26
ATOM     26  C   UNL     1       4.864   4.222  19.228  0.00  0.00    +0.000 C 
ATOM     27  N   UNL     1       5.464   3.251  19.443  0.00  0.00    +0.000 NA
ENDBRANCH  25  26
BRANCH  19  28
ATOM     28  C   UNL     1       2.333   4.897  20.603  0.00  0.00    +0.000 C 
BRANCH  28  30
ATOM     29  C   UNL     1       1.047   3.203  19.600  0.00  0.00    +0.000 C 
ATOM     30  O   UNL     1       1.022   4.490  20.212  0.00  0.00    +0.000 OA
ENDBRANCH  28  30
ENDBRANCH  19  28
ENDBRANCH  18  24
ENDBRANCH  17  18
ENDBRANCH   1  17
TORSDOF 8
ENDMDL
MODEL 9
REMARK VINA RESULT:      -6.5      1.873      3.238
REMARK  Name = 
REMARK  10 active torsions:
REMARK  status: ('A' for Active; 'I' for Inactive)
REMARK    1  A    between atoms: C_1  and  O_2
REMARK    2  A    between atoms: O_2  and  C_3
REMARK    3  A    between atoms: C_3  and  C_4
REMARK    4  A    between atoms: C_6  and  C_7
REMARK    5  A    between atoms: C_9  and  S_10
REMARK    6  A    between atoms: S_10  and  C_11
REMARK    7  A    between atoms: C_11  and  C_12
REMARK    8  A    between atoms: N_14  and  C_15
REMARK    9  A    between atoms: C_20  and  O_21
REMARK   10  A    between atoms: C_25  and  C_26
REMARK                            x       y       z     vdW  Elec       q    Type
REMARK                         _______ _______ _______ _____ _____    ______ ____
ROOT
ATOM      1  C   UNL     1       2.154   4.180  17.922  0.00  0.00    +0.000 C 
ATOM      2  O   UNL     1       1.139   4.382  17.254  0.00  0.00    +0.000 OA
ATOM      3  N   UNL     1       2.740   5.091  18.790  0.00  0.00    +0.000 N 
ATOM      4  H   UNL     1       3.696   4.894  19.072  0.00  0.00    +0.000 HD
ENDROOT
BRANCH   3   5
ATOM      5  C   UNL     1       2.254   6.394  19.067  0.00  0.00    +0.000 A 
ATOM      6  C   UNL     1       2.253   7.413  18.107  0.00  0.00    +0.000 A 
ATOM      7  C   UNL     1       1.877   8.727  18.412  0.00  0.00    +0.000 A 
ATOM      8  C   UNL     1       1.490   8.970  19.722  0.00  0.00    +0.000 A 
ATOM      9  N   UNL     1       1.114  10.121  20.371  0.00  0.00    +0.000 N 
ATOM     10  C   UNL     1       0.846   9.793  21.669  0.00  0.00    +0.000 A 
ATOM     11  N   UNL     1       1.001   8.512  21.896  0.00  0.00    +0.000 NA
ATOM     12  C   UNL     1       1.418   7.983  20.697  0.00  0.00    +0.000 A 
ATOM     13  C   UNL     1       1.781   6.664  20.363  0.00  0.00    +0.000 A 
ATOM     14  H   UNL     1       1.075  11.043  19.962  0.00  0.00    +0.000 HD
BRANCH  10  15
ATOM     15  O   UNL     1       0.484  10.660  22.597  0.00  0.00    +0.000 OA
ATOM     16  H   UNL     1      -0.206  11.240  22.242  0.00  0.00    +0.000 HD
ENDBRANCH  10  15
ENDBRANCH   3   5
BRANCH   1  17
ATOM     17  C   UNL     1       2.880   2.845  17.835  0.00  0.00    +0.000 C 
BRANCH  17  18
ATOM     18  S   UNL     1       4.547   2.968  18.564  0.00  0.00    +0.000 S 
BRANCH  18  24
ATOM     19  C   UNL     1       6.818   5.752  16.608  0.00  0.00    +0.000 A 
ATOM     20  C   UNL     1       6.474   5.427  15.286  0.00  0.00    +0.000 A 
ATOM     21  C   UNL     1       5.614   4.363  15.042  0.00  0.00    +0.000 A 
ATOM     22  C   UNL     1       5.229   3.986  13.643  0.00  0.00    +0.000 C 
ATOM     23  N   UNL     1       5.079   3.618  16.035  0.00  0.00    +0.000 NA
ATOM     24  C   UNL     1       5.390   3.939  17.318  0.00  0.00    +0.000 A 
ATOM     25  C   UNL     1       6.256   4.989  17.650  0.00  0.00    +0.000 A 
BRANCH  25  26
ATOM     26  C   UNL     1       6.578   5.275  19.017  0.00  0.00    +0.000 C 
ATOM     27  N   UNL     1       6.902   5.535  20.102  0.00  0.00    +0.000 NA
ENDBRANCH  25  26
BRANCH  19  28
ATOM     28  C   UNL     1       7.802   6.875  16.851  0.00  0.00    +0.000 C 
BRANCH  28  30
ATOM     29  C   UNL     1       8.001   9.001  17.839  0.00  0.00    +0.000 C 
ATOM     30  O   UNL     1       7.101   8.036  17.299  0.00  0.00    +0.000 OA
ENDBRANCH  28  30
ENDBRANCH  19  28
ENDBRANCH  18  24
ENDBRANCH  17  18
ENDBRANCH   1  17
TORSDOF 8
ENDMDL
