MODEL 1
REMARK VINA RESULT:      -7.6      0.000      0.000
REMARK  Name = 
REMARK  9 active torsions:
REMARK  status: ('A' for Active; 'I' for Inactive)
REMARK    1  A    between atoms: C_1  and  O_2
REMARK    2  A    between atoms: O_2  and  C_3
REMARK    3  A    between atoms: C_3  and  C_5
REMARK    4  A    between atoms: C_5  and  C_6
REMARK    5  A    between atoms: C_11  and  O_12
REMARK    6  A    between atoms: O_12  and  C_13
REMARK    7  A    between atoms: C_13  and  C_14
REMARK    8  A    between atoms: C_17  and  C_18
REMARK    9  A    between atoms: C_23  and  C_24
REMARK                            x       y       z     vdW  Elec       q    Type
REMARK                         _______ _______ _______ _____ _____    ______ ____
ROOT
ATOM      1  C   UNL     1       4.450   4.661  17.182  0.00  0.00    +0.000 A 
ATOM      2  C   UNL     1       4.525   3.376  17.684  0.00  0.00    +0.000 A 
ATOM      3  S   UNL     1       3.709   3.194  19.163  0.00  0.00    +0.000 S 
ATOM      4  C   UNL     1       3.222   4.842  19.170  0.00  0.00    +0.000 A 
ATOM      5  C   UNL     1       2.410   5.459  20.135  0.00  0.00    +0.000 A 
ATOM      6  C   UNL     1       2.051   6.799  19.965  0.00  0.00    +0.000 A 
ATOM      7  C   UNL     1       2.598   7.544  18.932  0.00  0.00    +0.000 A 
ATOM      8  C   UNL     1       3.422   6.922  17.994  0.00  0.00    +0.000 A 
ATOM      9  F   UNL     1       3.910   7.661  16.985  0.00  0.00    +0.000 F 
ATOM     10  C   UNL     1       3.720   5.538  18.070  0.00  0.00    +0.000 A 
ENDROOT
BRANCH   1  11
ATOM     11  C   UNL     1       5.055   5.080  15.872  0.00  0.00    +0.000 C 
BRANCH  11  12
ATOM     12  C   UNL     1       6.527   5.407  15.990  0.00  0.00    +0.000 C 
ATOM     13  O   UNL     1       7.459   4.629  15.826  0.00  0.00    +0.000 OA
BRANCH  12  15
ATOM     14  C   UNL     1       7.396   6.986  17.479  0.00  0.00    +0.000 C 
ATOM     15  O   UNL     1       6.668   6.736  16.277  0.00  0.00    +0.000 OA
ENDBRANCH  12  15
ENDBRANCH  11  12
ENDBRANCH   1  11
BRANCH   6  16
ATOM     16  O   UNL     1       1.156   7.452  20.773  0.00  0.00    +0.000 OA
BRANCH  16  17
ATOM     17  C   UNL     1       1.712   8.575  21.463  0.00  0.00    +0.000 C 
BRANCH  17  18
ATOM     18  C   UNL     1       0.623   9.558  21.777  0.00  0.00    +0.000 A 
ATOM     19  C   UNL     1      -0.042   9.479  23.003  0.00  0.00    +0.000 A 
ATOM     20  C   UNL     1      -1.056  10.381  23.300  0.00  0.00    +0.000 A 
ATOM     21  C   UNL     1      -1.389  11.356  22.363  0.00  0.00    +0.000 A 
ATOM     22  N   UNL     1      -0.744  11.448  21.165  0.00  0.00    +0.000 NA
ATOM     23  C   UNL     1       0.248  10.567  20.884  0.00  0.00    +0.000 A 
ATOM     24  C   UNL     1       0.920  10.739  19.550  0.00  0.00    +0.000 C 
BRANCH  21  25
ATOM     25  C   UNL     1      -2.492  12.356  22.680  0.00  0.00    +0.000 C 
ATOM     26  F   UNL     1      -3.249  12.684  21.588  0.00  0.00    +0.000 F 
ATOM     27  F   UNL     1      -3.380  11.898  23.608  0.00  0.00    +0.000 F 
ATOM     28  F   UNL     1      -2.020  13.542  23.159  0.00  0.00    +0.000 F 
ENDBRANCH  21  25
ENDBRANCH  17  18
ENDBRANCH  16  17
ENDBRANCH   6  16
TORSDOF 7
ENDMDL
MODEL 2
REMARK VINA RESULT:      -7.6      3.904      9.638
REMARK  Name = 
REMARK  9 active torsions:
REMARK  status: ('A' for Active; 'I' for Inactive)
REMARK    1  A    between atoms: C_1  and  O_2
REMARK    2  A    between atoms: O_2  and  C_3
REMARK    3  A    between atoms: C_3  and  C_5
REMARK    4  A    between atoms: C_5  and  C_6
REMARK    5  A    between atoms: C_11  and  O_12
REMARK    6  A    between atoms: O_12  and  C_13
REMARK    7  A    between atoms: C_13  and  C_14
REMARK    8  A    between atoms: C_17  and  C_18
REMARK    9  A    between atoms: C_23  and  C_24
REMARK                            x       y       z     vdW  Elec       q    Type
REMARK                         _______ _______ _______ _____ _____    ______ ____
ROOT
ATOM      1  C   UNL     1      -0.647  11.277  21.096  0.00  0.00    +0.000 A 
ATOM      2  C   UNL     1      -0.935  11.085  22.434  0.00  0.00    +0.000 A 
ATOM      3  S   UNL     1      -0.262   9.656  23.057  0.00  0.00    +0.000 S 
ATOM      4  C   UNL     1       0.445   9.252  21.544  0.00  0.00    +0.000 A 
ATOM      5  C   UNL     1       1.260   8.140  21.283  0.00  0.00    +0.000 A 
ATOM      6  C   UNL     1       1.811   7.983  20.008  0.00  0.00    +0.000 A 
ATOM      7  C   UNL     1       1.447   8.840  18.981  0.00  0.00    +0.000 A 
ATOM      8  C   UNL     1       0.617   9.928  19.249  0.00  0.00    +0.000 A 
ATOM      9  F   UNL     1       0.311  10.760  18.242  0.00  0.00    +0.000 F 
ATOM     10  C   UNL     1       0.129  10.183  20.556  0.00  0.00    +0.000 A 
ENDROOT
BRANCH   1  11
ATOM     11  C   UNL     1      -1.093  12.480  20.313  0.00  0.00    +0.000 C 
BRANCH  11  12
ATOM     12  C   UNL     1      -2.541  12.392  19.886  0.00  0.00    +0.000 C 
ATOM     13  O   UNL     1      -3.494  12.922  20.443  0.00  0.00    +0.000 OA
BRANCH  12  15
ATOM     14  C   UNL     1      -3.951  11.558  18.219  0.00  0.00    +0.000 C 
ATOM     15  O   UNL     1      -2.626  11.649  18.743  0.00  0.00    +0.000 OA
ENDBRANCH  12  15
ENDBRANCH  11  12
ENDBRANCH   1  11
BRANCH   6  16
ATOM     16  O   UNL     1       2.725   7.012  19.690  0.00  0.00    +0.000 OA
BRANCH  16  17
ATOM     17  C   UNL     1       2.229   6.027  18.780  0.00  0.00    +0.000 C 
BRANCH  17  18
ATOM     18  C   UNL     1       3.323   5.624  17.835  0.00  0.00    +0.000 A 
ATOM     19  C   UNL     1       4.236   6.585  17.392  0.00  0.00    +0.000 A 
ATOM     20  C   UNL     1       5.249   6.224  16.513  0.00  0.00    +0.000 A 
ATOM     21  C   UNL     1       5.336   4.900  16.089  0.00  0.00    +0.000 A 
ATOM     22  N   UNL     1       4.454   3.952  16.517  0.00  0.00    +0.000 NA
ATOM     23  C   UNL     1       3.472   4.311  17.380  0.00  0.00    +0.000 A 
ATOM     24  C   UNL     1       2.546   3.208  17.816  0.00  0.00    +0.000 C 
BRANCH  21  25
ATOM     25  C   UNL     1       6.446   4.489  15.131  0.00  0.00    +0.000 C 
ATOM     26  F   UNL     1       7.658   4.335  15.747  0.00  0.00    +0.000 F 
ATOM     27  F   UNL     1       6.204   3.299  14.511  0.00  0.00    +0.000 F 
ATOM     28  F   UNL     1       6.661   5.398  14.138  0.00  0.00    +0.000 F 
ENDBRANCH  21  25
ENDBRANCH  17  18
ENDBRANCH  16  17
ENDBRANCH   6  16
TORSDOF 7
ENDMDL
MODEL 3
REMARK VINA RESULT:      -7.5      0.871      1.212
REMARK  Name = 
REMARK  9 active torsions:
REMARK  status: ('A' for Active; 'I' for Inactive)
REMARK    1  A    between atoms: C_1  and  O_2
REMARK    2  A    between atoms: O_2  and  C_3
REMARK    3  A    between atoms: C_3  and  C_5
REMARK    4  A    between atoms: C_5  and  C_6
REMARK    5  A    between atoms: C_11  and  O_12
REMARK    6  A    between atoms: O_12  and  C_13
REMARK    7  A    between atoms: C_13  and  C_14
REMARK    8  A    between atoms: C_17  and  C_18
REMARK    9  A    between atoms: C_23  and  C_24
REMARK                            x       y       z     vdW  Elec       q    Type
REMARK                         _______ _______ _______ _____ _____    ______ ____
ROOT
ATOM      1  C   UNL     1       3.902   3.949  17.519  0.00  0.00    +0.000 A 
ATOM      2  C   UNL     1       3.744   2.683  18.049  0.00  0.00    +0.000 A 
ATOM      3  S   UNL     1       2.888   2.683  19.517  0.00  0.00    +0.000 S 
ATOM      4  C   UNL     1       2.697   4.390  19.480  0.00  0.00    +0.000 A 
ATOM      5  C   UNL     1       1.993   5.163  20.417  0.00  0.00    +0.000 A 
ATOM      6  C   UNL     1       1.877   6.541  20.213  0.00  0.00    +0.000 A 
ATOM      7  C   UNL     1       2.561   7.153  19.174  0.00  0.00    +0.000 A 
ATOM      8  C   UNL     1       3.276   6.374  18.264  0.00  0.00    +0.000 A 
ATOM      9  F   UNL     1       3.900   6.992  17.249  0.00  0.00    +0.000 F 
ATOM     10  C   UNL     1       3.325   4.962  18.375  0.00  0.00    +0.000 A 
ENDROOT
BRANCH   1  11
ATOM     11  C   UNL     1       4.590   4.224  16.211  0.00  0.00    +0.000 C 
BRANCH  11  12
ATOM     12  C   UNL     1       6.021   4.677  16.392  0.00  0.00    +0.000 C 
ATOM     13  O   UNL     1       6.788   4.322  17.278  0.00  0.00    +0.000 OA
BRANCH  12  15
ATOM     14  C   UNL     1       6.905   4.874  14.237  0.00  0.00    +0.000 C 
ATOM     15  O   UNL     1       6.351   5.530  15.377  0.00  0.00    +0.000 OA
ENDBRANCH  12  15
ENDBRANCH  11  12
ENDBRANCH   1  11
BRANCH   6  16
ATOM     16  O   UNL     1       1.099   7.360  20.990  0.00  0.00    +0.000 OA
BRANCH  16  17
ATOM     17  C   UNL     1       1.666   8.654  21.214  0.00  0.00    +0.000 C 
BRANCH  17  18
ATOM     18  C   UNL     1       0.586   9.607  21.632  0.00  0.00    +0.000 A 
ATOM     19  C   UNL     1       0.046   9.514  22.917  0.00  0.00    +0.000 A 
ATOM     20  C   UNL     1      -0.958  10.388  23.312  0.00  0.00    +0.000 A 
ATOM     21  C   UNL     1      -1.409  11.351  22.412  0.00  0.00    +0.000 A 
ATOM     22  N   UNL     1      -0.887  11.456  21.156  0.00  0.00    +0.000 NA
ATOM     23  C   UNL     1       0.097  10.603  20.780  0.00  0.00    +0.000 A 
ATOM     24  C   UNL     1       0.630  10.789  19.386  0.00  0.00    +0.000 C 
BRANCH  21  25
ATOM     25  C   UNL     1      -2.504  12.320  22.834  0.00  0.00    +0.000 C 
ATOM     26  F   UNL     1      -2.034  13.574  23.112  0.00  0.00    +0.000 F 
ATOM     27  F   UNL     1      -3.458  12.500  21.876  0.00  0.00    +0.000 F 
ATOM     28  F   UNL     1      -3.165  11.926  23.959  0.00  0.00    +0.000 F 
ENDBRANCH  21  25
ENDBRANCH  17  18
ENDBRANCH  16  17
ENDBRANCH   6  16
TORSDOF 7
ENDMDL
MODEL 4
REMARK VINA RESULT:      -7.5      2.402      3.460
REMARK  Name = 
REMARK  9 active torsions:
REMARK  status: ('A' for Active; 'I' for Inactive)
REMARK    1  A    between atoms: C_1  and  O_2
REMARK    2  A    between atoms: O_2  and  C_3
REMARK    3  A    between atoms: C_3  and  C_5
REMARK    4  A    between atoms: C_5  and  C_6
REMARK    5  A    between atoms: C_11  and  O_12
REMARK    6  A    between atoms: O_12  and  C_13
REMARK    7  A    between atoms: C_13  and  C_14
REMARK    8  A    between atoms: C_17  and  C_18
REMARK    9  A    between atoms: C_23  and  C_24
REMARK                            x       y       z     vdW  Elec       q    Type
REMARK                         _______ _______ _______ _____ _____    ______ ____
ROOT
ATOM      1  C   UNL     1       4.312   3.862  17.547  0.00  0.00    +0.000 A 
ATOM      2  C   UNL     1       5.575   3.988  17.002  0.00  0.00    +0.000 A 
ATOM      3  S   UNL     1       5.993   5.600  16.666  0.00  0.00    +0.000 S 
ATOM      4  C   UNL     1       4.486   6.180  17.251  0.00  0.00    +0.000 A 
ATOM      5  C   UNL     1       4.097   7.526  17.343  0.00  0.00    +0.000 A 
ATOM      6  C   UNL     1       2.854   7.839  17.901  0.00  0.00    +0.000 A 
ATOM      7  C   UNL     1       1.964   6.831  18.234  0.00  0.00    +0.000 A 
ATOM      8  C   UNL     1       2.355   5.497  18.116  0.00  0.00    +0.000 A 
ATOM      9  F   UNL     1       1.484   4.543  18.479  0.00  0.00    +0.000 F 
ATOM     10  C   UNL     1       3.649   5.142  17.658  0.00  0.00    +0.000 A 
ENDROOT
BRANCH   1  11
ATOM     11  C   UNL     1       3.714   2.548  17.967  0.00  0.00    +0.000 C 
BRANCH  11  12
ATOM     12  C   UNL     1       3.847   2.299  19.453  0.00  0.00    +0.000 C 
ATOM     13  O   UNL     1       4.894   2.184  20.078  0.00  0.00    +0.000 OA
BRANCH  12  15
ATOM     14  C   UNL     1       2.525   2.902  21.283  0.00  0.00    +0.000 C 
ATOM     15  O   UNL     1       2.601   2.257  20.012  0.00  0.00    +0.000 OA
ENDBRANCH  12  15
ENDBRANCH  11  12
ENDBRANCH   1  11
BRANCH   6  16
ATOM     16  O   UNL     1       2.441   9.121  18.160  0.00  0.00    +0.000 OA
BRANCH  16  17
ATOM     17  C   UNL     1       1.061   9.354  17.865  0.00  0.00    +0.000 C 
BRANCH  17  18
ATOM     18  C   UNL     1       0.398   9.991  19.051  0.00  0.00    +0.000 A 
ATOM     19  C   UNL     1       1.065  10.020  20.278  0.00  0.00    +0.000 A 
ATOM     20  C   UNL     1       0.458  10.602  21.384  0.00  0.00    +0.000 A 
ATOM     21  C   UNL     1      -0.814  11.152  21.244  0.00  0.00    +0.000 A 
ATOM     22  N   UNL     1      -1.474  11.135  20.050  0.00  0.00    +0.000 NA
ATOM     23  C   UNL     1      -0.872  10.570  18.975  0.00  0.00    +0.000 A 
ATOM     24  C   UNL     1      -1.657  10.601  17.692  0.00  0.00    +0.000 C 
BRANCH  21  25
ATOM     25  C   UNL     1      -1.488  11.801  22.445  0.00  0.00    +0.000 C 
ATOM     26  F   UNL     1      -0.679  12.686  23.103  0.00  0.00    +0.000 F 
ATOM     27  F   UNL     1      -2.604  12.512  22.113  0.00  0.00    +0.000 F 
ATOM     28  F   UNL     1      -1.880  10.900  23.391  0.00  0.00    +0.000 F 
ENDBRANCH  21  25
ENDBRANCH  17  18
ENDBRANCH  16  17
ENDBRANCH   6  16
TORSDOF 7
ENDMDL
MODEL 5
REMARK VINA RESULT:      -7.5      1.398      2.113
REMARK  Name = 
REMARK  9 active torsions:
REMARK  status: ('A' for Active; 'I' for Inactive)
REMARK    1  A    between atoms: C_1  and  O_2
REMARK    2  A    between atoms: O_2  and  C_3
REMARK    3  A    between atoms: C_3  and  C_5
REMARK    4  A    between atoms: C_5  and  C_6
REMARK    5  A    between atoms: C_11  and  O_12
REMARK    6  A    between atoms: O_12  and  C_13
REMARK    7  A    between atoms: C_13  and  C_14
REMARK    8  A    between atoms: C_17  and  C_18
REMARK    9  A    between atoms: C_23  and  C_24
REMARK                            x       y       z     vdW  Elec       q    Type
REMARK                         _______ _______ _______ _____ _____    ______ ____
ROOT
ATOM      1  C   UNL     1       4.394   3.822  17.913  0.00  0.00    +0.000 A 
ATOM      2  C   UNL     1       4.185   2.548  18.407  0.00  0.00    +0.000 A 
ATOM      3  S   UNL     1       3.106   2.516  19.719  0.00  0.00    +0.000 S 
ATOM      4  C   UNL     1       2.880   4.218  19.658  0.00  0.00    +0.000 A 
ATOM      5  C   UNL     1       2.017   4.968  20.472  0.00  0.00    +0.000 A 
ATOM      6  C   UNL     1       1.900   6.343  20.256  0.00  0.00    +0.000 A 
ATOM      7  C   UNL     1       2.725   6.979  19.342  0.00  0.00    +0.000 A 
ATOM      8  C   UNL     1       3.596   6.225  18.556  0.00  0.00    +0.000 A 
ATOM      9  F   UNL     1       4.357   6.865  17.655  0.00  0.00    +0.000 F 
ATOM     10  C   UNL     1       3.662   4.813  18.669  0.00  0.00    +0.000 A 
ENDROOT
BRANCH   1  11
ATOM     11  C   UNL     1       5.275   4.122  16.733  0.00  0.00    +0.000 C 
BRANCH  11  12
ATOM     12  C   UNL     1       6.691   4.464  17.137  0.00  0.00    +0.000 C 
ATOM     13  O   UNL     1       7.145   4.447  18.274  0.00  0.00    +0.000 OA
BRANCH  12  15
ATOM     14  C   UNL     1       6.739   4.455  14.800  0.00  0.00    +0.000 C 
ATOM     15  O   UNL     1       7.415   4.767  16.018  0.00  0.00    +0.000 OA
ENDBRANCH  12  15
ENDBRANCH  11  12
ENDBRANCH   1  11
BRANCH   6  16
ATOM     16  O   UNL     1       0.987   7.137  20.902  0.00  0.00    +0.000 OA
BRANCH  16  17
ATOM     17  C   UNL     1       1.505   8.411  21.295  0.00  0.00    +0.000 C 
BRANCH  17  18
ATOM     18  C   UNL     1       0.514   9.482  20.948  0.00  0.00    +0.000 A 
ATOM     19  C   UNL     1       0.362   9.872  19.614  0.00  0.00    +0.000 A 
ATOM     20  C   UNL     1      -0.549  10.867  19.283  0.00  0.00    +0.000 A 
ATOM     21  C   UNL     1      -1.301  11.459  20.295  0.00  0.00    +0.000 A 
ATOM     22  N   UNL     1      -1.166  11.084  21.600  0.00  0.00    +0.000 NA
ATOM     23  C   UNL     1      -0.279  10.108  21.914  0.00  0.00    +0.000 A 
ATOM     24  C   UNL     1      -0.196   9.742  23.371  0.00  0.00    +0.000 C 
BRANCH  21  25
ATOM     25  C   UNL     1      -2.309  12.545  19.945  0.00  0.00    +0.000 C 
ATOM     26  F   UNL     1      -2.938  12.329  18.749  0.00  0.00    +0.000 F 
ATOM     27  F   UNL     1      -3.312  12.660  20.862  0.00  0.00    +0.000 F 
ATOM     28  F   UNL     1      -1.748  13.783  19.837  0.00  0.00    +0.000 F 
ENDBRANCH  21  25
ENDBRANCH  17  18
ENDBRANCH  16  17
ENDBRANCH   6  16
TORSDOF 7
ENDMDL
MODEL 6
REMARK VINA RESULT:      -7.4      2.695      3.407
REMARK  Name = 
REMARK  9 active torsions:
REMARK  status: ('A' for Active; 'I' for Inactive)
REMARK    1  A    between atoms: C_1  and  O_2
REMARK    2  A    between atoms: O_2  and  C_3
REMARK    3  A    between atoms: C_3  and  C_5
REMARK    4  A    between atoms: C_5  and  C_6
REMARK    5  A    between atoms: C_11  and  O_12
REMARK    6  A    between atoms: O_12  and  C_13
REMARK    7  A    between atoms: C_13  and  C_14
REMARK    8  A    between atoms: C_17  and  C_18
REMARK    9  A    between atoms: C_23  and  C_24
REMARK                            x       y       z     vdW  Elec       q    Type
REMARK                         _______ _______ _______ _____ _____    ______ ____
ROOT
ATOM      1  C   UNL     1       3.697   4.804  18.517  0.00  0.00    +0.000 A 
ATOM      2  C   UNL     1       3.444   3.901  19.532  0.00  0.00    +0.000 A 
ATOM      3  S   UNL     1       2.453   4.541  20.754  0.00  0.00    +0.000 S 
ATOM      4  C   UNL     1       2.328   6.054  19.950  0.00  0.00    +0.000 A 
ATOM      5  C   UNL     1       1.566   7.155  20.374  0.00  0.00    +0.000 A 
ATOM      6  C   UNL     1       1.520   8.299  19.573  0.00  0.00    +0.000 A 
ATOM      7  C   UNL     1       2.321   8.396  18.446  0.00  0.00    +0.000 A 
ATOM      8  C   UNL     1       3.091   7.303  18.050  0.00  0.00    +0.000 A 
ATOM      9  F   UNL     1       3.831   7.415  16.936  0.00  0.00    +0.000 F 
ATOM     10  C   UNL     1       3.078   6.085  18.776  0.00  0.00    +0.000 A 
ENDROOT
BRANCH   1  11
ATOM     11  C   UNL     1       4.517   4.479  17.300  0.00  0.00    +0.000 C 
BRANCH  11  12
ATOM     12  C   UNL     1       5.990   4.749  17.502  0.00  0.00    +0.000 C 
ATOM     13  O   UNL     1       6.729   4.182  18.298  0.00  0.00    +0.000 OA
BRANCH  12  15
ATOM     14  C   UNL     1       7.128   6.773  17.235  0.00  0.00    +0.000 C 
ATOM     15  O   UNL     1       6.394   5.713  16.622  0.00  0.00    +0.000 OA
ENDBRANCH  12  15
ENDBRANCH  11  12
ENDBRANCH   1  11
BRANCH   6  16
ATOM     16  O   UNL     1       0.701   9.370  19.827  0.00  0.00    +0.000 OA
BRANCH  16  17
ATOM     17  C   UNL     1       0.604  10.293  18.739  0.00  0.00    +0.000 C 
BRANCH  17  18
ATOM     18  C   UNL     1      -0.837  10.643  18.509  0.00  0.00    +0.000 A 
ATOM     19  C   UNL     1      -1.571   9.939  17.550  0.00  0.00    +0.000 A 
ATOM     20  C   UNL     1      -2.904  10.258  17.325  0.00  0.00    +0.000 A 
ATOM     21  C   UNL     1      -3.488  11.281  18.068  0.00  0.00    +0.000 A 
ATOM     22  N   UNL     1      -2.785  11.973  19.011  0.00  0.00    +0.000 NA
ATOM     23  C   UNL     1      -1.486  11.651  19.228  0.00  0.00    +0.000 A 
ATOM     24  C   UNL     1      -0.781  12.449  20.291  0.00  0.00    +0.000 C 
BRANCH  21  25
ATOM     25  C   UNL     1      -4.950  11.637  17.838  0.00  0.00    +0.000 C 
ATOM     26  F   UNL     1      -5.807  10.618  18.151  0.00  0.00    +0.000 F 
ATOM     27  F   UNL     1      -5.367  12.699  18.585  0.00  0.00    +0.000 F 
ATOM     28  F   UNL     1      -5.227  11.953  16.541  0.00  0.00    +0.000 F 
ENDBRANCH  21  25
ENDBRANCH  17  18
ENDBRANCH  16  17
ENDBRANCH   6  16
TORSDOF 7
ENDMDL
MODEL 7
REMARK VINA RESULT:      -7.4      1.087      1.386
REMARK  Name = 
REMARK  9 active torsions:
REMARK  status: ('A' for Active; 'I' for Inactive)
REMARK    1  A    between atoms: C_1  and  O_2
REMARK    2  A    between atoms: O_2  and  C_3
REMARK    3  A    between atoms: C_3  and  C_5
REMARK    4  A    between atoms: C_5  and  C_6
REMARK    5  A    between atoms: C_11  and  O_12
REMARK    6  A    between atoms: O_12  and  C_13
REMARK    7  A    between atoms: C_13  and  C_14
REMARK    8  A    between atoms: C_17  and  C_18
REMARK    9  A    between atoms: C_23  and  C_24
REMARK                            x       y       z     vdW  Elec       q    Type
REMARK                         _______ _______ _______ _____ _____    ______ ____
ROOT
ATOM      1  C   UNL     1       4.304   3.898  18.228  0.00  0.00    +0.000 A 
ATOM      2  C   UNL     1       4.126   2.726  18.939  0.00  0.00    +0.000 A 
ATOM      3  S   UNL     1       3.111   2.918  20.287  0.00  0.00    +0.000 S 
ATOM      4  C   UNL     1       2.873   4.586  19.951  0.00  0.00    +0.000 A 
ATOM      5  C   UNL     1       2.044   5.464  20.668  0.00  0.00    +0.000 A 
ATOM      6  C   UNL     1       1.909   6.784  20.230  0.00  0.00    +0.000 A 
ATOM      7  C   UNL     1       2.687   7.255  19.183  0.00  0.00    +0.000 A 
ATOM      8  C   UNL     1       3.524   6.377  18.495  0.00  0.00    +0.000 A 
ATOM      9  F   UNL     1       4.238   6.855  17.464  0.00  0.00    +0.000 F 
ATOM     10  C   UNL     1       3.603   5.004  18.840  0.00  0.00    +0.000 A 
ENDROOT
BRANCH   1  11
ATOM     11  C   UNL     1       5.127   3.994  16.974  0.00  0.00    +0.000 C 
BRANCH  11  12
ATOM     12  C   UNL     1       6.517   4.529  17.230  0.00  0.00    +0.000 C 
ATOM     13  O   UNL     1       7.359   4.797  16.382  0.00  0.00    +0.000 OA
BRANCH  12  15
ATOM     14  C   UNL     1       7.558   5.792  18.899  0.00  0.00    +0.000 C 
ATOM     15  O   UNL     1       6.686   4.709  18.574  0.00  0.00    +0.000 OA
ENDBRANCH  12  15
ENDBRANCH  11  12
ENDBRANCH   1  11
BRANCH   6  16
ATOM     16  O   UNL     1       1.023   7.678  20.776  0.00  0.00    +0.000 OA
BRANCH  16  17
ATOM     17  C   UNL     1       1.115   8.993  20.221  0.00  0.00    +0.000 C 
BRANCH  17  18
ATOM     18  C   UNL     1       0.192   9.913  20.964  0.00  0.00    +0.000 A 
ATOM     19  C   UNL     1       0.114   9.830  22.357  0.00  0.00    +0.000 A 
ATOM     20  C   UNL     1      -0.741  10.674  23.055  0.00  0.00    +0.000 A 
ATOM     21  C   UNL     1      -1.508  11.595  22.346  0.00  0.00    +0.000 A 
ATOM     22  N   UNL     1      -1.437  11.690  20.987  0.00  0.00    +0.000 NA
ATOM     23  C   UNL     1      -0.596  10.868  20.314  0.00  0.00    +0.000 A 
ATOM     24  C   UNL     1      -0.565  11.040  18.820  0.00  0.00    +0.000 C 
BRANCH  21  25
ATOM     25  C   UNL     1      -2.443  12.531  23.098  0.00  0.00    +0.000 C 
ATOM     26  F   UNL     1      -1.799  13.304  24.025  0.00  0.00    +0.000 F 
ATOM     27  F   UNL     1      -3.089  13.413  22.282  0.00  0.00    +0.000 F 
ATOM     28  F   UNL     1      -3.416  11.874  23.793  0.00  0.00    +0.000 F 
ENDBRANCH  21  25
ENDBRANCH  17  18
ENDBRANCH  16  17
ENDBRANCH   6  16
TORSDOF 7
ENDMDL
MODEL 8
REMARK VINA RESULT:      -7.3      1.518      2.239
REMARK  Name = 
REMARK  9 active torsions:
REMARK  status: ('A' for Active; 'I' for Inactive)
REMARK    1  A    between atoms: C_1  and  O_2
REMARK    2  A    between atoms: O_2  and  C_3
REMARK    3  A    between atoms: C_3  and  C_5
REMARK    4  A    between atoms: C_5  and  C_6
REMARK    5  A    between atoms: C_11  and  O_12
REMARK    6  A    between atoms: O_12  and  C_13
REMARK    7  A    between atoms: C_13  and  C_14
REMARK    8  A    between atoms: C_17  and  C_18
REMARK    9  A    between atoms: C_23  and  C_24
REMARK                            x       y       z     vdW  Elec       q    Type
REMARK                         _______ _______ _______ _____ _____    ______ ____
ROOT
ATOM      1  C   UNL     1       4.814   4.301  17.460  0.00  0.00    +0.000 A 
ATOM      2  C   UNL     1       4.561   3.340  18.420  0.00  0.00    +0.000 A 
ATOM      3  S   UNL     1       3.539   3.894  19.658  0.00  0.00    +0.000 S 
ATOM      4  C   UNL     1       3.399   5.447  18.936  0.00  0.00    +0.000 A 
ATOM      5  C   UNL     1       2.610   6.509  19.405  0.00  0.00    +0.000 A 
ATOM      6  C   UNL     1       2.556   7.694  18.667  0.00  0.00    +0.000 A 
ATOM      7  C   UNL     1       3.373   7.866  17.560  0.00  0.00    +0.000 A 
ATOM      8  C   UNL     1       4.169   6.810  17.119  0.00  0.00    +0.000 A 
ATOM      9  F   UNL     1       4.924   6.995  16.025  0.00  0.00    +0.000 F 
ATOM     10  C   UNL     1       4.167   5.554  17.778  0.00  0.00    +0.000 A 
ENDROOT
BRANCH   1  11
ATOM     11  C   UNL     1       5.658   4.057  16.240  0.00  0.00    +0.000 C 
BRANCH  11  12
ATOM     12  C   UNL     1       7.047   4.643  16.369  0.00  0.00    +0.000 C 
ATOM     13  O   UNL     1       7.730   4.673  17.384  0.00  0.00    +0.000 OA
BRANCH  12  15
ATOM     14  C   UNL     1       6.687   4.591  14.060  0.00  0.00    +0.000 C 
ATOM     15  O   UNL     1       7.449   5.110  15.149  0.00  0.00    +0.000 OA
ENDBRANCH  12  15
ENDBRANCH  11  12
ENDBRANCH   1  11
BRANCH   6  16
ATOM     16  O   UNL     1       1.713   8.735  18.965  0.00  0.00    +0.000 OA
BRANCH  16  17
ATOM     17  C   UNL     1       1.120   8.644  20.263  0.00  0.00    +0.000 C 
BRANCH  17  18
ATOM     18  C   UNL     1       0.683  10.008  20.708  0.00  0.00    +0.000 A 
ATOM     19  C   UNL     1       0.735  11.075  19.807  0.00  0.00    +0.000 A 
ATOM     20  C   UNL     1       0.337  12.343  20.211  0.00  0.00    +0.000 A 
ATOM     21  C   UNL     1      -0.111  12.527  21.517  0.00  0.00    +0.000 A 
ATOM     22  N   UNL     1      -0.172  11.493  22.405  0.00  0.00    +0.000 NA
ATOM     23  C   UNL     1       0.212  10.257  22.001  0.00  0.00    +0.000 A 
ATOM     24  C   UNL     1       0.106   9.167  23.032  0.00  0.00    +0.000 C 
BRANCH  21  25
ATOM     25  C   UNL     1      -0.557  13.910  21.971  0.00  0.00    +0.000 C 
ATOM     26  F   UNL     1       0.386  14.877  21.755  0.00  0.00    +0.000 F 
ATOM     27  F   UNL     1      -1.676  14.350  21.327  0.00  0.00    +0.000 F 
ATOM     28  F   UNL     1      -0.837  13.973  23.304  0.00  0.00    +0.000 F 
ENDBRANCH  21  25
ENDBRANCH  17  18
ENDBRANCH  16  17
ENDBRANCH   6  16
TORSDOF 7
ENDMDL
MODEL 9
REMARK VINA RESULT:      -7.3      1.079      1.842
REMARK  Name = 
REMARK  9 active torsions:
REMARK  status: ('A' for Active; 'I' for Inactive)
REMARK    1  A    between atoms: C_1  and  O_2
REMARK    2  A    between atoms: O_2  and  C_3
REMARK    3  A    between atoms: C_3  and  C_5
REMARK    4  A    between atoms: C_5  and  C_6
REMARK    5  A    between atoms: C_11  and  O_12
REMARK    6  A    between atoms: O_12  and  C_13
REMARK    7  A    between atoms: C_13  and  C_14
REMARK    8  A    between atoms: C_17  and  C_18
REMARK    9  A    between atoms: C_23  and  C_24
REMARK                            x       y       z     vdW  Elec       q    Type
REMARK                         _______ _______ _______ _____ _____    ______ ____
ROOT
ATOM      1  C   UNL     1       4.619   4.563  16.955  0.00  0.00    +0.000 A 
ATOM      2  C   UNL     1       4.516   3.211  17.224  0.00  0.00    +0.000 A 
ATOM      3  S   UNL     1       3.498   2.874  18.542  0.00  0.00    +0.000 S 
ATOM      4  C   UNL     1       3.159   4.540  18.788  0.00  0.00    +0.000 A 
ATOM      5  C   UNL     1       2.283   5.073  19.747  0.00  0.00    +0.000 A 
ATOM      6  C   UNL     1       2.066   6.453  19.780  0.00  0.00    +0.000 A 
ATOM      7  C   UNL     1       2.808   7.296  18.968  0.00  0.00    +0.000 A 
ATOM      8  C   UNL     1       3.693   6.754  18.035  0.00  0.00    +0.000 A 
ATOM      9  F   UNL     1       4.372   7.594  17.238  0.00  0.00    +0.000 F 
ATOM     10  C   UNL     1       3.857   5.353  17.896  0.00  0.00    +0.000 A 
ENDROOT
BRANCH   1  11
ATOM     11  C   UNL     1       5.428   5.126  15.820  0.00  0.00    +0.000 C 
BRANCH  11  12
ATOM     12  C   UNL     1       6.899   5.236  16.153  0.00  0.00    +0.000 C 
ATOM     13  O   UNL     1       7.696   4.309  16.229  0.00  0.00    +0.000 OA
BRANCH  12  15
ATOM     14  C   UNL     1       7.539   6.891  17.674  0.00  0.00    +0.000 C 
ATOM     15  O   UNL     1       7.222   6.553  16.324  0.00  0.00    +0.000 OA
ENDBRANCH  12  15
ENDBRANCH  11  12
ENDBRANCH   1  11
BRANCH   6  16
ATOM     16  O   UNL     1       1.131   7.055  20.583  0.00  0.00    +0.000 OA
BRANCH  16  17
ATOM     17  C   UNL     1       1.586   8.269  21.189  0.00  0.00    +0.000 C 
BRANCH  17  18
ATOM     18  C   UNL     1       0.599   9.364  20.912  0.00  0.00    +0.000 A 
ATOM     19  C   UNL     1       0.413   9.806  19.599  0.00  0.00    +0.000 A 
ATOM     20  C   UNL     1      -0.494  10.824  19.333  0.00  0.00    +0.000 A 
ATOM     21  C   UNL     1      -1.207  11.387  20.388  0.00  0.00    +0.000 A 
ATOM     22  N   UNL     1      -1.039  10.961  21.674  0.00  0.00    +0.000 NA
ATOM     23  C   UNL     1      -0.156   9.963  21.925  0.00  0.00    +0.000 A 
ATOM     24  C   UNL     1      -0.035   9.541  23.363  0.00  0.00    +0.000 C 
BRANCH  21  25
ATOM     25  C   UNL     1      -2.210  12.498  20.110  0.00  0.00    +0.000 C 
ATOM     26  F   UNL     1      -1.620  13.670  19.724  0.00  0.00    +0.000 F 
ATOM     27  F   UNL     1      -3.085  12.191  19.110  0.00  0.00    +0.000 F 
ATOM     28  F   UNL     1      -2.971  12.819  21.195  0.00  0.00    +0.000 F 
ENDBRANCH  21  25
ENDBRANCH  17  18
ENDBRANCH  16  17
ENDBRANCH   6  16
TORSDOF 7
ENDMDL
