MODEL 1
REMARK VINA RESULT:      -8.3      0.000      0.000
REMARK  Name = 
REMARK  9 active torsions:
REMARK  status: ('A' for Active; 'I' for Inactive)
REMARK    1  A    between atoms: C_1  and  O_2
REMARK    2  A    between atoms: O_2  and  C_3
REMARK    3  A    between atoms: C_8  and  C_9
REMARK    4  A    between atoms: C_9  and  O_11
REMARK    5  A    between atoms: O_11  and  C_12
REMARK    6  A    between atoms: C_12  and  C_13
REMARK    7  A    between atoms: C_17  and  C_18
REMARK    8  A    between atoms: C_20  and  C_21
REMARK    9  A    between atoms: C_23  and  C_24
REMARK                            x       y       z     vdW  Elec       q    Type
REMARK                         _______ _______ _______ _____ _____    ______ ____
ROOT
ATOM      1  C   UNL     1       2.727   3.690  20.358  0.00  0.00    +0.000 C 
ATOM      2  O   UNL     1       2.785   2.845  21.252  0.00  0.00    +0.000 OA
ENDROOT
BRANCH   1   8
ATOM      3  C   UNL     1       6.720   4.523  15.892  0.00  0.00    +0.000 A 
ATOM      4  C   UNL     1       7.462   4.945  17.001  0.00  0.00    +0.000 A 
ATOM      5  C   UNL     1       6.924   4.935  18.294  0.00  0.00    +0.000 A 
ATOM      6  C   UNL     1       5.616   4.473  18.414  0.00  0.00    +0.000 A 
ATOM      7  O   UNL     1       4.920   4.359  19.572  0.00  0.00    +0.000 OA
ATOM      8  C   UNL     1       3.669   3.862  19.271  0.00  0.00    +0.000 A 
ATOM      9  C   UNL     1       3.578   3.659  17.898  0.00  0.00    +0.000 A 
ATOM     10  C   UNL     1       2.434   3.150  17.096  0.00  0.00    +0.000 C 
ATOM     11  C   UNL     1       4.839   4.052  17.349  0.00  0.00    +0.000 A 
ATOM     12  C   UNL     1       5.399   4.083  16.057  0.00  0.00    +0.000 A 
BRANCH   3  14
ATOM     13  C   UNL     1       6.656   4.159  13.545  0.00  0.00    +0.000 C 
ATOM     14  O   UNL     1       7.389   4.566  14.697  0.00  0.00    +0.000 OA
ENDBRANCH   3  14
ENDBRANCH   1   8
BRANCH   1  15
ATOM     15  O   UNL     1       1.713   4.598  20.234  0.00  0.00    +0.000 OA
BRANCH  15  16
ATOM     16  C   UNL     1       1.939   5.850  20.885  0.00  0.00    +0.000 C 
BRANCH  16  17
ATOM     17  C   UNL     1       1.963   7.019  19.885  0.00  0.00    +0.000 C 
ATOM     18  O   UNL     1       2.382   6.859  18.735  0.00  0.00    +0.000 OA
ATOM     19  N   UNL     1       1.463   8.241  20.316  0.00  0.00    +0.000 N 
ATOM     20  C   UNL     1       1.292   9.326  19.350  0.00  0.00    +0.000 C 
ATOM     21  C   UNL     1      -0.119   9.919  19.473  0.00  0.00    +0.000 C 
ATOM     22  C   UNL     1      -0.334  11.087  18.514  0.00  0.00    +0.000 C 
ATOM     23  C   UNL     1      -0.391  10.358  20.921  0.00  0.00    +0.000 C 
ATOM     24  C   UNL     1      -0.152   9.205  21.907  0.00  0.00    +0.000 C 
ATOM     25  C   UNL     1      -0.337   9.681  23.344  0.00  0.00    +0.000 C 
ATOM     26  C   UNL     1       1.247   8.612  21.710  0.00  0.00    +0.000 C 
ENDBRANCH  16  17
ENDBRANCH  15  16
ENDBRANCH   1  15
TORSDOF 5
ENDMDL
MODEL 2
REMARK VINA RESULT:      -8.2      2.534      5.066
REMARK  Name = 
REMARK  9 active torsions:
REMARK  status: ('A' for Active; 'I' for Inactive)
REMARK    1  A    between atoms: C_1  and  O_2
REMARK    2  A    between atoms: O_2  and  C_3
REMARK    3  A    between atoms: C_8  and  C_9
REMARK    4  A    between atoms: C_9  and  O_11
REMARK    5  A    between atoms: O_11  and  C_12
REMARK    6  A    between atoms: C_12  and  C_13
REMARK    7  A    between atoms: C_17  and  C_18
REMARK    8  A    between atoms: C_20  and  C_21
REMARK    9  A    between atoms: C_23  and  C_24
REMARK                            x       y       z     vdW  Elec       q    Type
REMARK                         _______ _______ _______ _____ _____    ______ ____
ROOT
ATOM      1  C   UNL     1       6.902   6.450  17.099  0.00  0.00    +0.000 C 
ATOM      2  O   UNL     1       6.929   7.680  17.151  0.00  0.00    +0.000 OA
ENDROOT
BRANCH   1   8
ATOM      3  C   UNL     1       5.913   3.176  12.111  0.00  0.00    +0.000 A 
ATOM      4  C   UNL     1       7.134   3.782  11.799  0.00  0.00    +0.000 A 
ATOM      5  C   UNL     1       7.768   4.661  12.687  0.00  0.00    +0.000 A 
ATOM      6  C   UNL     1       7.119   4.890  13.897  0.00  0.00    +0.000 A 
ATOM      7  O   UNL     1       7.571   5.682  14.900  0.00  0.00    +0.000 OA
ATOM      8  C   UNL     1       6.648   5.641  15.924  0.00  0.00    +0.000 A 
ATOM      9  C   UNL     1       5.597   4.807  15.557  0.00  0.00    +0.000 A 
ATOM     10  C   UNL     1       4.368   4.453  16.316  0.00  0.00    +0.000 C 
ATOM     11  C   UNL     1       5.908   4.321  14.249  0.00  0.00    +0.000 A 
ATOM     12  C   UNL     1       5.285   3.449  13.334  0.00  0.00    +0.000 A 
BRANCH   3  14
ATOM     13  C   UNL     1       6.104   1.073  11.023  0.00  0.00    +0.000 C 
ATOM     14  O   UNL     1       5.430   2.321  11.155  0.00  0.00    +0.000 OA
ENDBRANCH   3  14
ENDBRANCH   1   8
BRANCH   1  15
ATOM     15  O   UNL     1       7.150   5.637  18.169  0.00  0.00    +0.000 OA
BRANCH  15  16
ATOM     16  C   UNL     1       6.225   5.762  19.251  0.00  0.00    +0.000 C 
BRANCH  16  17
ATOM     17  C   UNL     1       5.275   4.554  19.333  0.00  0.00    +0.000 C 
ATOM     18  O   UNL     1       5.710   3.401  19.263  0.00  0.00    +0.000 OA
ATOM     19  N   UNL     1       3.925   4.812  19.527  0.00  0.00    +0.000 N 
ATOM     20  C   UNL     1       3.013   3.700  19.799  0.00  0.00    +0.000 C 
ATOM     21  C   UNL     1       2.153   4.017  21.030  0.00  0.00    +0.000 C 
ATOM     22  C   UNL     1       1.152   2.904  21.329  0.00  0.00    +0.000 C 
ATOM     23  C   UNL     1       1.423   5.357  20.843  0.00  0.00    +0.000 C 
ATOM     24  C   UNL     1       2.408   6.487  20.510  0.00  0.00    +0.000 C 
ATOM     25  C   UNL     1       1.661   7.789  20.238  0.00  0.00    +0.000 C 
ATOM     26  C   UNL     1       3.280   6.103  19.311  0.00  0.00    +0.000 C 
ENDBRANCH  16  17
ENDBRANCH  15  16
ENDBRANCH   1  15
TORSDOF 5
ENDMDL
MODEL 3
REMARK VINA RESULT:      -7.9      1.057      1.172
REMARK  Name = 
REMARK  9 active torsions:
REMARK  status: ('A' for Active; 'I' for Inactive)
REMARK    1  A    between atoms: C_1  and  O_2
REMARK    2  A    between atoms: O_2  and  C_3
REMARK    3  A    between atoms: C_8  and  C_9
REMARK    4  A    between atoms: C_9  and  O_11
REMARK    5  A    between atoms: O_11  and  C_12
REMARK    6  A    between atoms: C_12  and  C_13
REMARK    7  A    between atoms: C_17  and  C_18
REMARK    8  A    between atoms: C_20  and  C_21
REMARK    9  A    between atoms: C_23  and  C_24
REMARK                            x       y       z     vdW  Elec       q    Type
REMARK                         _______ _______ _______ _____ _____    ______ ____
ROOT
ATOM      1  C   UNL     1       2.278   4.965  20.623  0.00  0.00    +0.000 C 
ATOM      2  O   UNL     1       2.147   4.223  21.597  0.00  0.00    +0.000 OA
ENDROOT
BRANCH   1   8
ATOM      3  C   UNL     1       6.197   4.324  16.062  0.00  0.00    +0.000 A 
ATOM      4  C   UNL     1       7.043   4.761  17.086  0.00  0.00    +0.000 A 
ATOM      5  C   UNL     1       6.559   5.052  18.368  0.00  0.00    +0.000 A 
ATOM      6  C   UNL     1       5.192   4.874  18.566  0.00  0.00    +0.000 A 
ATOM      7  O   UNL     1       4.529   5.073  19.730  0.00  0.00    +0.000 OA
ATOM      8  C   UNL     1       3.197   4.785  19.518  0.00  0.00    +0.000 A 
ATOM      9  C   UNL     1       3.022   4.395  18.194  0.00  0.00    +0.000 A 
ATOM     10  C   UNL     1       1.774   3.996  17.489  0.00  0.00    +0.000 C 
ATOM     11  C   UNL     1       4.314   4.451  17.584  0.00  0.00    +0.000 A 
ATOM     12  C   UNL     1       4.823   4.175  16.300  0.00  0.00    +0.000 A 
BRANCH   3  14
ATOM     13  C   UNL     1       5.979   3.946  13.726  0.00  0.00    +0.000 C 
ATOM     14  O   UNL     1       6.820   4.053  14.871  0.00  0.00    +0.000 OA
ENDBRANCH   3  14
ENDBRANCH   1   8
BRANCH   1  15
ATOM     15  O   UNL     1       1.526   6.087  20.416  0.00  0.00    +0.000 OA
BRANCH  15  16
ATOM     16  C   UNL     1       2.261   7.313  20.394  0.00  0.00    +0.000 C 
BRANCH  16  17
ATOM     17  C   UNL     1       1.821   8.223  19.235  0.00  0.00    +0.000 C 
ATOM     18  O   UNL     1       2.101   7.940  18.067  0.00  0.00    +0.000 OA
ATOM     19  N   UNL     1       1.069   9.346  19.552  0.00  0.00    +0.000 N 
ATOM     20  C   UNL     1       0.470  10.136  18.476  0.00  0.00    +0.000 C 
ATOM     21  C   UNL     1      -1.018  10.377  18.768  0.00  0.00    +0.000 C 
ATOM     22  C   UNL     1      -1.679  11.237  17.695  0.00  0.00    +0.000 C 
ATOM     23  C   UNL     1      -1.194  11.021  20.153  0.00  0.00    +0.000 C 
ATOM     24  C   UNL     1      -0.509  10.189  21.246  0.00  0.00    +0.000 C 
ATOM     25  C   UNL     1      -0.615  10.886  22.599  0.00  0.00    +0.000 C 
ATOM     26  C   UNL     1       0.956   9.929  20.885  0.00  0.00    +0.000 C 
ENDBRANCH  16  17
ENDBRANCH  15  16
ENDBRANCH   1  15
TORSDOF 5
ENDMDL
MODEL 4
REMARK VINA RESULT:      -7.9      1.035      1.861
REMARK  Name = 
REMARK  9 active torsions:
REMARK  status: ('A' for Active; 'I' for Inactive)
REMARK    1  A    between atoms: C_1  and  O_2
REMARK    2  A    between atoms: O_2  and  C_3
REMARK    3  A    between atoms: C_8  and  C_9
REMARK    4  A    between atoms: C_9  and  O_11
REMARK    5  A    between atoms: O_11  and  C_12
REMARK    6  A    between atoms: C_12  and  C_13
REMARK    7  A    between atoms: C_17  and  C_18
REMARK    8  A    between atoms: C_20  and  C_21
REMARK    9  A    between atoms: C_23  and  C_24
REMARK                            x       y       z     vdW  Elec       q    Type
REMARK                         _______ _______ _______ _____ _____    ______ ____
ROOT
ATOM      1  C   UNL     1       3.300   3.964  19.462  0.00  0.00    +0.000 C 
ATOM      2  O   UNL     1       3.430   3.096  20.327  0.00  0.00    +0.000 OA
ENDROOT
BRANCH   1   8
ATOM      3  C   UNL     1       7.113   5.053  14.896  0.00  0.00    +0.000 A 
ATOM      4  C   UNL     1       6.065   4.412  14.226  0.00  0.00    +0.000 A 
ATOM      5  C   UNL     1       4.926   3.958  14.904  0.00  0.00    +0.000 A 
ATOM      6  C   UNL     1       4.893   4.189  16.277  0.00  0.00    +0.000 A 
ATOM      7  O   UNL     1       3.878   3.855  17.111  0.00  0.00    +0.000 OA
ATOM      8  C   UNL     1       4.224   4.254  18.385  0.00  0.00    +0.000 A 
ATOM      9  C   UNL     1       5.479   4.853  18.350  0.00  0.00    +0.000 A 
ATOM     10  C   UNL     1       6.277   5.431  19.463  0.00  0.00    +0.000 C 
ATOM     11  C   UNL     1       5.906   4.811  16.985  0.00  0.00    +0.000 A 
ATOM     12  C   UNL     1       7.046   5.248  16.283  0.00  0.00    +0.000 A 
BRANCH   3  14
ATOM     13  C   UNL     1       7.954   5.324  12.690  0.00  0.00    +0.000 C 
ATOM     14  O   UNL     1       8.147   5.464  14.095  0.00  0.00    +0.000 OA
ENDBRANCH   3  14
ENDBRANCH   1   8
BRANCH   1  15
ATOM     15  O   UNL     1       2.211   4.783  19.365  0.00  0.00    +0.000 OA
BRANCH  15  16
ATOM     16  C   UNL     1       2.275   5.970  20.159  0.00  0.00    +0.000 C 
BRANCH  16  17
ATOM     17  C   UNL     1       2.150   7.240  19.300  0.00  0.00    +0.000 C 
ATOM     18  O   UNL     1       2.495   7.239  18.115  0.00  0.00    +0.000 OA
ATOM     19  N   UNL     1       1.601   8.367  19.898  0.00  0.00    +0.000 N 
ATOM     20  C   UNL     1       1.289   9.536  19.075  0.00  0.00    +0.000 C 
ATOM     21  C   UNL     1      -0.146  10.005  19.354  0.00  0.00    +0.000 C 
ATOM     22  C   UNL     1      -0.505  11.252  18.551  0.00  0.00    +0.000 C 
ATOM     23  C   UNL     1      -0.343  10.261  20.857  0.00  0.00    +0.000 C 
ATOM     24  C   UNL     1       0.042   9.029  21.687  0.00  0.00    +0.000 C 
ATOM     25  C   UNL     1      -0.073   9.328  23.178  0.00  0.00    +0.000 C 
ATOM     26  C   UNL     1       1.459   8.566  21.336  0.00  0.00    +0.000 C 
ENDBRANCH  16  17
ENDBRANCH  15  16
ENDBRANCH   1  15
TORSDOF 5
ENDMDL
MODEL 5
REMARK VINA RESULT:      -7.8      2.370      8.367
REMARK  Name = 
REMARK  9 active torsions:
REMARK  status: ('A' for Active; 'I' for Inactive)
REMARK    1  A    between atoms: C_1  and  O_2
REMARK    2  A    between atoms: O_2  and  C_3
REMARK    3  A    between atoms: C_8  and  C_9
REMARK    4  A    between atoms: C_9  and  O_11
REMARK    5  A    between atoms: O_11  and  C_12
REMARK    6  A    between atoms: C_12  and  C_13
REMARK    7  A    between atoms: C_17  and  C_18
REMARK    8  A    between atoms: C_20  and  C_21
REMARK    9  A    between atoms: C_23  and  C_24
REMARK                            x       y       z     vdW  Elec       q    Type
REMARK                         _______ _______ _______ _____ _____    ______ ____
ROOT
ATOM      1  C   UNL     1       2.437   7.203  19.270  0.00  0.00    +0.000 C 
ATOM      2  O   UNL     1       3.269   7.357  18.375  0.00  0.00    +0.000 OA
ENDROOT
BRANCH   1   8
ATOM      3  C   UNL     1      -1.032  11.409  21.888  0.00  0.00    +0.000 A 
ATOM      4  C   UNL     1      -0.717  10.598  22.984  0.00  0.00    +0.000 A 
ATOM      5  C   UNL     1       0.088   9.459  22.849  0.00  0.00    +0.000 A 
ATOM      6  C   UNL     1       0.562   9.186  21.569  0.00  0.00    +0.000 A 
ATOM      7  O   UNL     1       1.372   8.154  21.228  0.00  0.00    +0.000 OA
ATOM      8  C   UNL     1       1.618   8.234  19.873  0.00  0.00    +0.000 A 
ATOM      9  C   UNL     1       0.951   9.339  19.354  0.00  0.00    +0.000 A 
ATOM     10  C   UNL     1       0.902   9.835  17.953  0.00  0.00    +0.000 C 
ATOM     11  C   UNL     1       0.273   9.953  20.454  0.00  0.00    +0.000 A 
ATOM     12  C   UNL     1      -0.548  11.086  20.612  0.00  0.00    +0.000 A 
BRANCH   3  14
ATOM     13  C   UNL     1      -1.517  13.176  23.401  0.00  0.00    +0.000 C 
ATOM     14  O   UNL     1      -1.807  12.501  22.180  0.00  0.00    +0.000 OA
ENDBRANCH   3  14
ENDBRANCH   1   8
BRANCH   1  15
ATOM     15  O   UNL     1       2.127   5.991  19.820  0.00  0.00    +0.000 OA
BRANCH  15  16
ATOM     16  C   UNL     1       3.228   5.091  19.959  0.00  0.00    +0.000 C 
BRANCH  16  17
ATOM     17  C   UNL     1       3.480   4.292  18.667  0.00  0.00    +0.000 C 
ATOM     18  O   UNL     1       2.598   3.577  18.184  0.00  0.00    +0.000 OA
ATOM     19  N   UNL     1       4.716   4.440  18.053  0.00  0.00    +0.000 N 
ATOM     20  C   UNL     1       4.936   3.853  16.731  0.00  0.00    +0.000 C 
ATOM     21  C   UNL     1       5.541   4.901  15.786  0.00  0.00    +0.000 C 
ATOM     22  C   UNL     1       5.830   4.324  14.403  0.00  0.00    +0.000 C 
ATOM     23  C   UNL     1       6.820   5.497  16.396  0.00  0.00    +0.000 C 
ATOM     24  C   UNL     1       6.559   6.057  17.802  0.00  0.00    +0.000 C 
ATOM     25  C   UNL     1       7.855   6.561  18.429  0.00  0.00    +0.000 C 
ATOM     26  C   UNL     1       5.906   4.993  18.691  0.00  0.00    +0.000 C 
ENDBRANCH  16  17
ENDBRANCH  15  16
ENDBRANCH   1  15
TORSDOF 5
ENDMDL
MODEL 6
REMARK VINA RESULT:      -7.6      1.644      2.480
REMARK  Name = 
REMARK  9 active torsions:
REMARK  status: ('A' for Active; 'I' for Inactive)
REMARK    1  A    between atoms: C_1  and  O_2
REMARK    2  A    between atoms: O_2  and  C_3
REMARK    3  A    between atoms: C_8  and  C_9
REMARK    4  A    between atoms: C_9  and  O_11
REMARK    5  A    between atoms: O_11  and  C_12
REMARK    6  A    between atoms: C_12  and  C_13
REMARK    7  A    between atoms: C_17  and  C_18
REMARK    8  A    between atoms: C_20  and  C_21
REMARK    9  A    between atoms: C_23  and  C_24
REMARK                            x       y       z     vdW  Elec       q    Type
REMARK                         _______ _______ _______ _____ _____    ______ ____
ROOT
ATOM      1  C   UNL     1       2.205   5.857  20.355  0.00  0.00    +0.000 C 
ATOM      2  O   UNL     1       1.681   5.073  21.148  0.00  0.00    +0.000 OA
ENDROOT
BRANCH   1   8
ATOM      3  C   UNL     1       6.218   4.591  16.011  0.00  0.00    +0.000 A 
ATOM      4  C   UNL     1       7.015   5.300  16.916  0.00  0.00    +0.000 A 
ATOM      5  C   UNL     1       6.493   5.814  18.111  0.00  0.00    +0.000 A 
ATOM      6  C   UNL     1       5.142   5.571  18.348  0.00  0.00    +0.000 A 
ATOM      7  O   UNL     1       4.450   5.956  19.449  0.00  0.00    +0.000 OA
ATOM      8  C   UNL     1       3.149   5.523  19.308  0.00  0.00    +0.000 A 
ATOM      9  C   UNL     1       3.021   4.851  18.096  0.00  0.00    +0.000 A 
ATOM     10  C   UNL     1       1.819   4.215  17.496  0.00  0.00    +0.000 C 
ATOM     11  C   UNL     1       4.312   4.882  17.482  0.00  0.00    +0.000 A 
ATOM     12  C   UNL     1       4.858   4.385  16.282  0.00  0.00    +0.000 A 
BRANCH   3  14
ATOM     13  C   UNL     1       6.080   3.911  13.739  0.00  0.00    +0.000 C 
ATOM     14  O   UNL     1       6.876   4.128  14.901  0.00  0.00    +0.000 OA
ENDBRANCH   3  14
ENDBRANCH   1   8
BRANCH   1  15
ATOM     15  O   UNL     1       1.937   7.196  20.321  0.00  0.00    +0.000 OA
BRANCH  15  16
ATOM     16  C   UNL     1       0.978   7.645  21.281  0.00  0.00    +0.000 C 
BRANCH  16  17
ATOM     17  C   UNL     1       1.177   9.128  21.638  0.00  0.00    +0.000 C 
ATOM     18  O   UNL     1       1.893   9.460  22.587  0.00  0.00    +0.000 OA
ATOM     19  N   UNL     1       0.555  10.071  20.831  0.00  0.00    +0.000 N 
ATOM     20  C   UNL     1       0.864  11.490  21.014  0.00  0.00    +0.000 C 
ATOM     21  C   UNL     1       1.206  12.130  19.662  0.00  0.00    +0.000 C 
ATOM     22  C   UNL     1       1.494  13.623  19.793  0.00  0.00    +0.000 C 
ATOM     23  C   UNL     1       0.070  11.891  18.653  0.00  0.00    +0.000 C 
ATOM     24  C   UNL     1      -0.257  10.396  18.527  0.00  0.00    +0.000 C 
ATOM     25  C   UNL     1      -1.444  10.183  17.593  0.00  0.00    +0.000 C 
ATOM     26  C   UNL     1      -0.538   9.789  19.906  0.00  0.00    +0.000 C 
ENDBRANCH  16  17
ENDBRANCH  15  16
ENDBRANCH   1  15
TORSDOF 5
ENDMDL
MODEL 7
REMARK VINA RESULT:      -7.5      2.229      7.476
REMARK  Name = 
REMARK  9 active torsions:
REMARK  status: ('A' for Active; 'I' for Inactive)
REMARK    1  A    between atoms: C_1  and  O_2
REMARK    2  A    between atoms: O_2  and  C_3
REMARK    3  A    between atoms: C_8  and  C_9
REMARK    4  A    between atoms: C_9  and  O_11
REMARK    5  A    between atoms: O_11  and  C_12
REMARK    6  A    between atoms: C_12  and  C_13
REMARK    7  A    between atoms: C_17  and  C_18
REMARK    8  A    between atoms: C_20  and  C_21
REMARK    9  A    between atoms: C_23  and  C_24
REMARK                            x       y       z     vdW  Elec       q    Type
REMARK                         _______ _______ _______ _____ _____    ______ ____
ROOT
ATOM      1  C   UNL     1       2.164   5.787  20.181  0.00  0.00    +0.000 C 
ATOM      2  O   UNL     1       1.364   4.935  20.571  0.00  0.00    +0.000 OA
ENDROOT
BRANCH   1   8
ATOM      3  C   UNL     1       0.869  11.622  19.255  0.00  0.00    +0.000 A 
ATOM      4  C   UNL     1       0.308  11.418  20.520  0.00  0.00    +0.000 A 
ATOM      5  C   UNL     1       0.362  10.171  21.157  0.00  0.00    +0.000 A 
ATOM      6  C   UNL     1       1.011   9.153  20.465  0.00  0.00    +0.000 A 
ATOM      7  O   UNL     1       1.196   7.886  20.910  0.00  0.00    +0.000 OA
ATOM      8  C   UNL     1       1.884   7.188  19.940  0.00  0.00    +0.000 A 
ATOM      9  C   UNL     1       2.138   8.033  18.865  0.00  0.00    +0.000 A 
ATOM     10  C   UNL     1       2.837   7.743  17.585  0.00  0.00    +0.000 C 
ATOM     11  C   UNL     1       1.575   9.302  19.210  0.00  0.00    +0.000 A 
ATOM     12  C   UNL     1       1.498  10.562  18.585  0.00  0.00    +0.000 A 
BRANCH   3  14
ATOM     13  C   UNL     1      -0.518  13.283  18.274  0.00  0.00    +0.000 C 
ATOM     14  O   UNL     1       0.761  12.900  18.772  0.00  0.00    +0.000 OA
ENDBRANCH   3  14
ENDBRANCH   1   8
BRANCH   1  15
ATOM     15  O   UNL     1       3.486   5.537  19.944  0.00  0.00    +0.000 OA
BRANCH  15  16
ATOM     16  C   UNL     1       3.864   4.161  20.022  0.00  0.00    +0.000 C 
BRANCH  16  17
ATOM     17  C   UNL     1       4.098   3.552  18.629  0.00  0.00    +0.000 C 
ATOM     18  O   UNL     1       3.338   2.691  18.178  0.00  0.00    +0.000 OA
ATOM     19  N   UNL     1       5.169   4.036  17.890  0.00  0.00    +0.000 N 
ATOM     20  C   UNL     1       5.321   3.627  16.493  0.00  0.00    +0.000 C 
ATOM     21  C   UNL     1       5.535   4.861  15.605  0.00  0.00    +0.000 C 
ATOM     22  C   UNL     1       5.744   4.483  14.142  0.00  0.00    +0.000 C 
ATOM     23  C   UNL     1       6.724   5.690  16.119  0.00  0.00    +0.000 C 
ATOM     24  C   UNL     1       6.550   6.056  17.600  0.00  0.00    +0.000 C 
ATOM     25  C   UNL     1       7.777   6.800  18.117  0.00  0.00    +0.000 C 
ATOM     26  C   UNL     1       6.286   4.801  18.436  0.00  0.00    +0.000 C 
ENDBRANCH  16  17
ENDBRANCH  15  16
ENDBRANCH   1  15
TORSDOF 5
ENDMDL
MODEL 8
REMARK VINA RESULT:      -7.4      2.507      8.658
REMARK  Name = 
REMARK  9 active torsions:
REMARK  status: ('A' for Active; 'I' for Inactive)
REMARK    1  A    between atoms: C_1  and  O_2
REMARK    2  A    between atoms: O_2  and  C_3
REMARK    3  A    between atoms: C_8  and  C_9
REMARK    4  A    between atoms: C_9  and  O_11
REMARK    5  A    between atoms: O_11  and  C_12
REMARK    6  A    between atoms: C_12  and  C_13
REMARK    7  A    between atoms: C_17  and  C_18
REMARK    8  A    between atoms: C_20  and  C_21
REMARK    9  A    between atoms: C_23  and  C_24
REMARK                            x       y       z     vdW  Elec       q    Type
REMARK                         _______ _______ _______ _____ _____    ______ ____
ROOT
ATOM      1  C   UNL     1       2.353   8.080  18.235  0.00  0.00    +0.000 C 
ATOM      2  O   UNL     1       3.399   8.397  17.665  0.00  0.00    +0.000 OA
ENDROOT
BRANCH   1   8
ATOM      3  C   UNL     1      -1.531  11.932  20.814  0.00  0.00    +0.000 A 
ATOM      4  C   UNL     1      -1.573  12.357  19.482  0.00  0.00    +0.000 A 
ATOM      5  C   UNL     1      -0.804  11.739  18.487  0.00  0.00    +0.000 A 
ATOM      6  C   UNL     1      -0.004  10.676  18.898  0.00  0.00    +0.000 A 
ATOM      7  O   UNL     1       0.794   9.929  18.095  0.00  0.00    +0.000 OA
ATOM      8  C   UNL     1       1.414   8.977  18.876  0.00  0.00    +0.000 A 
ATOM      9  C   UNL     1       0.996   9.127  20.194  0.00  0.00    +0.000 A 
ATOM     10  C   UNL     1       1.389   8.349  21.399  0.00  0.00    +0.000 C 
ATOM     11  C   UNL     1       0.078  10.223  20.203  0.00  0.00    +0.000 A 
ATOM     12  C   UNL     1      -0.697  10.868  21.187  0.00  0.00    +0.000 A 
BRANCH   3  14
ATOM     13  C   UNL     1      -2.223  12.319  23.054  0.00  0.00    +0.000 C 
ATOM     14  O   UNL     1      -2.359  12.615  21.667  0.00  0.00    +0.000 OA
ENDBRANCH   3  14
ENDBRANCH   1   8
BRANCH   1  15
ATOM     15  O   UNL     1       1.891   6.797  18.317  0.00  0.00    +0.000 OA
BRANCH  15  16
ATOM     16  C   UNL     1       2.802   5.863  18.902  0.00  0.00    +0.000 C 
BRANCH  16  17
ATOM     17  C   UNL     1       3.253   4.795  17.891  0.00  0.00    +0.000 C 
ATOM     18  O   UNL     1       2.465   3.937  17.482  0.00  0.00    +0.000 OA
ATOM     19  N   UNL     1       4.562   4.859  17.432  0.00  0.00    +0.000 N 
ATOM     20  C   UNL     1       4.982   3.987  16.334  0.00  0.00    +0.000 C 
ATOM     21  C   UNL     1       5.694   4.810  15.253  0.00  0.00    +0.000 C 
ATOM     22  C   UNL     1       6.192   3.937  14.105  0.00  0.00    +0.000 C 
ATOM     23  C   UNL     1       6.860   5.605  15.866  0.00  0.00    +0.000 C 
ATOM     24  C   UNL     1       6.387   6.468  17.044  0.00  0.00    +0.000 C 
ATOM     25  C   UNL     1       7.568   7.178  17.697  0.00  0.00    +0.000 C 
ATOM     26  C   UNL     1       5.636   5.614  18.069  0.00  0.00    +0.000 C 
ENDBRANCH  16  17
ENDBRANCH  15  16
ENDBRANCH   1  15
TORSDOF 5
ENDMDL
MODEL 9
REMARK VINA RESULT:      -7.4      1.927      3.026
REMARK  Name = 
REMARK  9 active torsions:
REMARK  status: ('A' for Active; 'I' for Inactive)
REMARK    1  A    between atoms: C_1  and  O_2
REMARK    2  A    between atoms: O_2  and  C_3
REMARK    3  A    between atoms: C_8  and  C_9
REMARK    4  A    between atoms: C_9  and  O_11
REMARK    5  A    between atoms: O_11  and  C_12
REMARK    6  A    between atoms: C_12  and  C_13
REMARK    7  A    between atoms: C_17  and  C_18
REMARK    8  A    between atoms: C_20  and  C_21
REMARK    9  A    between atoms: C_23  and  C_24
REMARK                            x       y       z     vdW  Elec       q    Type
REMARK                         _______ _______ _______ _____ _____    ______ ____
ROOT
ATOM      1  C   UNL     1       1.923   6.184  20.352  0.00  0.00    +0.000 C 
ATOM      2  O   UNL     1       1.151   5.315  20.759  0.00  0.00    +0.000 OA
ENDROOT
BRANCH   1   8
ATOM      3  C   UNL     1       5.886   5.617  15.818  0.00  0.00    +0.000 A 
ATOM      4  C   UNL     1       6.144   4.454  16.550  0.00  0.00    +0.000 A 
ATOM      5  C   UNL     1       5.445   4.153  17.727  0.00  0.00    +0.000 A 
ATOM      6  C   UNL     1       4.475   5.072  18.119  0.00  0.00    +0.000 A 
ATOM      7  O   UNL     1       3.672   4.960  19.206  0.00  0.00    +0.000 OA
ATOM      8  C   UNL     1       2.849   6.066  19.245  0.00  0.00    +0.000 A 
ATOM      9  C   UNL     1       3.139   6.887  18.160  0.00  0.00    +0.000 A 
ATOM     10  C   UNL     1       2.530   8.188  17.777  0.00  0.00    +0.000 C 
ATOM     11  C   UNL     1       4.188   6.239  17.434  0.00  0.00    +0.000 A 
ATOM     12  C   UNL     1       4.912   6.525  16.260  0.00  0.00    +0.000 A 
BRANCH   3  14
ATOM     13  C   UNL     1       6.877   4.574  13.927  0.00  0.00    +0.000 C 
ATOM     14  O   UNL     1       6.631   5.761  14.676  0.00  0.00    +0.000 OA
ENDBRANCH   3  14
ENDBRANCH   1   8
BRANCH   1  15
ATOM     15  O   UNL     1       1.997   7.443  20.879  0.00  0.00    +0.000 OA
BRANCH  15  16
ATOM     16  C   UNL     1       0.740   8.029  21.223  0.00  0.00    +0.000 C 
BRANCH  16  17
ATOM     17  C   UNL     1       0.881   9.522  21.569  0.00  0.00    +0.000 C 
ATOM     18  O   UNL     1       1.575   9.888  22.521  0.00  0.00    +0.000 OA
ATOM     19  N   UNL     1       0.231  10.433  20.747  0.00  0.00    +0.000 N 
ATOM     20  C   UNL     1       0.486  11.864  20.921  0.00  0.00    +0.000 C 
ATOM     21  C   UNL     1       0.816  12.505  19.565  0.00  0.00    +0.000 C 
ATOM     22  C   UNL     1       1.047  14.009  19.686  0.00  0.00    +0.000 C 
ATOM     23  C   UNL     1      -0.301  12.215  18.549  0.00  0.00    +0.000 C 
ATOM     24  C   UNL     1      -0.571  10.708  18.434  0.00  0.00    +0.000 C 
ATOM     25  C   UNL     1      -1.741  10.442  17.492  0.00  0.00    +0.000 C 
ATOM     26  C   UNL     1      -0.842  10.103  19.815  0.00  0.00    +0.000 C 
ENDBRANCH  16  17
ENDBRANCH  15  16
ENDBRANCH   1  15
TORSDOF 5
ENDMDL
