MODEL 1
REMARK VINA RESULT:      -6.9      0.000      0.000
REMARK  Name = 
REMARK  5 active torsions:
REMARK  status: ('A' for Active; 'I' for Inactive)
REMARK    1  A    between atoms: C_2  and  O_3
REMARK    2  A    between atoms: C_2  and  C_11
REMARK    3  A    between atoms: O_3  and  C_4
REMARK    4  A    between atoms: C_4  and  C_5
REMARK    5  A    between atoms: C_14  and  O_15
REMARK                            x       y       z     vdW  Elec       q    Type
REMARK                         _______ _______ _______ _____ _____    ______ ____
ROOT
ATOM      1  O   UNL     1       5.219   3.233  19.557  0.00  0.00    +0.000 OA
ATOM      2  C   UNL     1       5.214   4.323  19.003  0.00  0.00    +0.000 C 
ENDROOT
BRANCH   2   3
ATOM      3  C   UNL     1       5.740   4.530  17.625  0.00  0.00    +0.000 A 
ATOM      4  C   UNL     1       6.831   5.399  17.455  0.00  0.00    +0.000 A 
ATOM      5  C   UNL     1       7.357   5.641  16.183  0.00  0.00    +0.000 A 
ATOM      6  C   UNL     1       6.793   5.006  15.081  0.00  0.00    +0.000 A 
ATOM      7  C   UNL     1       5.723   4.130  15.233  0.00  0.00    +0.000 A 
ATOM      8  C   UNL     1       5.194   3.891  16.503  0.00  0.00    +0.000 A 
BRANCH   6   9
ATOM      9  O   UNL     1       7.264   5.220  13.820  0.00  0.00    +0.000 OA
ATOM     10  H   UNL     1       8.162   4.855  13.754  0.00  0.00    +0.000 HD
ENDBRANCH   6   9
ENDBRANCH   2   3
BRANCH   2  11
ATOM     11  O   UNL     1       4.742   5.481  19.521  0.00  0.00    +0.000 OA
BRANCH  11  12
ATOM     12  C   UNL     1       3.459   5.910  19.047  0.00  0.00    +0.000 C 
BRANCH  12  13
ATOM     13  C   UNL     1       2.452   4.812  19.275  0.00  0.00    +0.000 A 
ATOM     14  C   UNL     1       1.924   4.086  18.198  0.00  0.00    +0.000 A 
ATOM     15  C   UNL     1       0.990   3.071  18.418  0.00  0.00    +0.000 A 
ATOM     16  C   UNL     1       0.570   2.776  19.713  0.00  0.00    +0.000 A 
ATOM     17  C   UNL     1       1.080   3.498  20.791  0.00  0.00    +0.000 A 
ATOM     18  C   UNL     1       2.014   4.513  20.574  0.00  0.00    +0.000 A 
ENDBRANCH  12  13
ENDBRANCH  11  12
ENDBRANCH   2  11
TORSDOF 5
ENDMDL
MODEL 2
REMARK VINA RESULT:      -6.9      1.794      2.965
REMARK  Name = 
REMARK  5 active torsions:
REMARK  status: ('A' for Active; 'I' for Inactive)
REMARK    1  A    between atoms: C_2  and  O_3
REMARK    2  A    between atoms: C_2  and  C_11
REMARK    3  A    between atoms: O_3  and  C_4
REMARK    4  A    between atoms: C_4  and  C_5
REMARK    5  A    between atoms: C_14  and  O_15
REMARK                            x       y       z     vdW  Elec       q    Type
REMARK                         _______ _______ _______ _____ _____    ______ ____
ROOT
ATOM      1  O   UNL     1       5.370   3.998  15.079  0.00  0.00    +0.000 OA
ATOM      2  C   UNL     1       5.219   4.245  16.267  0.00  0.00    +0.000 C 
ENDROOT
BRANCH   2   3
ATOM      3  C   UNL     1       6.140   5.133  17.030  0.00  0.00    +0.000 A 
ATOM      4  C   UNL     1       6.224   6.484  16.651  0.00  0.00    +0.000 A 
ATOM      5  C   UNL     1       7.081   7.360  17.323  0.00  0.00    +0.000 A 
ATOM      6  C   UNL     1       7.850   6.883  18.379  0.00  0.00    +0.000 A 
ATOM      7  C   UNL     1       7.769   5.553  18.778  0.00  0.00    +0.000 A 
ATOM      8  C   UNL     1       6.915   4.675  18.104  0.00  0.00    +0.000 A 
BRANCH   6   9
ATOM      9  O   UNL     1       8.710   7.696  19.056  0.00  0.00    +0.000 OA
ATOM     10  H   UNL     1       9.620   7.406  18.880  0.00  0.00    +0.000 HD
ENDBRANCH   6   9
ENDBRANCH   2   3
BRANCH   2  11
ATOM     11  O   UNL     1       4.227   3.779  17.061  0.00  0.00    +0.000 OA
BRANCH  11  12
ATOM     12  C   UNL     1       3.239   4.736  17.466  0.00  0.00    +0.000 C 
BRANCH  12  13
ATOM     13  C   UNL     1       2.519   4.221  18.687  0.00  0.00    +0.000 A 
ATOM     14  C   UNL     1       2.918   4.610  19.974  0.00  0.00    +0.000 A 
ATOM     15  C   UNL     1       2.246   4.128  21.099  0.00  0.00    +0.000 A 
ATOM     16  C   UNL     1       1.175   3.248  20.951  0.00  0.00    +0.000 A 
ATOM     17  C   UNL     1       0.777   2.847  19.677  0.00  0.00    +0.000 A 
ATOM     18  C   UNL     1       1.447   3.328  18.550  0.00  0.00    +0.000 A 
ENDBRANCH  12  13
ENDBRANCH  11  12
ENDBRANCH   2  11
TORSDOF 5
ENDMDL
MODEL 3
REMARK VINA RESULT:      -6.8      1.824      2.853
REMARK  Name = 
REMARK  5 active torsions:
REMARK  status: ('A' for Active; 'I' for Inactive)
REMARK    1  A    between atoms: C_2  and  O_3
REMARK    2  A    between atoms: C_2  and  C_11
REMARK    3  A    between atoms: O_3  and  C_4
REMARK    4  A    between atoms: C_4  and  C_5
REMARK    5  A    between atoms: C_14  and  O_15
REMARK                            x       y       z     vdW  Elec       q    Type
REMARK                         _______ _______ _______ _____ _____    ______ ____
ROOT
ATOM      1  O   UNL     1       5.931   3.649  15.221  0.00  0.00    +0.000 OA
ATOM      2  C   UNL     1       5.626   4.092  16.318  0.00  0.00    +0.000 C 
ENDROOT
BRANCH   2   3
ATOM      3  C   UNL     1       6.446   5.108  17.035  0.00  0.00    +0.000 A 
ATOM      4  C   UNL     1       7.108   4.717  18.211  0.00  0.00    +0.000 A 
ATOM      5  C   UNL     1       7.881   5.632  18.931  0.00  0.00    +0.000 A 
ATOM      6  C   UNL     1       7.996   6.939  18.469  0.00  0.00    +0.000 A 
ATOM      7  C   UNL     1       7.359   7.340  17.299  0.00  0.00    +0.000 A 
ATOM      8  C   UNL     1       6.583   6.427  16.580  0.00  0.00    +0.000 A 
BRANCH   6   9
ATOM      9  O   UNL     1       8.727   7.870  19.144  0.00  0.00    +0.000 OA
ATOM     10  H   UNL     1       9.642   7.552  19.225  0.00  0.00    +0.000 HD
ENDBRANCH   6   9
ENDBRANCH   2   3
BRANCH   2  11
ATOM     11  O   UNL     1       4.531   3.756  17.040  0.00  0.00    +0.000 OA
BRANCH  11  12
ATOM     12  C   UNL     1       3.611   4.818  17.326  0.00  0.00    +0.000 C 
BRANCH  12  13
ATOM     13  C   UNL     1       2.715   4.407  18.466  0.00  0.00    +0.000 A 
ATOM     14  C   UNL     1       1.827   3.330  18.330  0.00  0.00    +0.000 A 
ATOM     15  C   UNL     1       0.999   2.957  19.391  0.00  0.00    +0.000 A 
ATOM     16  C   UNL     1       1.045   3.658  20.595  0.00  0.00    +0.000 A 
ATOM     17  C   UNL     1       1.917   4.736  20.738  0.00  0.00    +0.000 A 
ATOM     18  C   UNL     1       2.746   5.112  19.678  0.00  0.00    +0.000 A 
ENDBRANCH  12  13
ENDBRANCH  11  12
ENDBRANCH   2  11
TORSDOF 5
ENDMDL
MODEL 4
REMARK VINA RESULT:      -6.8      1.932      3.010
REMARK  Name = 
REMARK  5 active torsions:
REMARK  status: ('A' for Active; 'I' for Inactive)
REMARK    1  A    between atoms: C_2  and  O_3
REMARK    2  A    between atoms: C_2  and  C_11
REMARK    3  A    between atoms: O_3  and  C_4
REMARK    4  A    between atoms: C_4  and  C_5
REMARK    5  A    between atoms: C_14  and  O_15
REMARK                            x       y       z     vdW  Elec       q    Type
REMARK                         _______ _______ _______ _____ _____    ______ ____
ROOT
ATOM      1  O   UNL     1       5.701   3.745  15.239  0.00  0.00    +0.000 OA
ATOM      2  C   UNL     1       5.583   4.023  16.424  0.00  0.00    +0.000 C 
ENDROOT
BRANCH   2   3
ATOM      3  C   UNL     1       6.411   5.065  17.095  0.00  0.00    +0.000 A 
ATOM      4  C   UNL     1       7.079   4.718  18.280  0.00  0.00    +0.000 A 
ATOM      5  C   UNL     1       7.859   5.659  18.959  0.00  0.00    +0.000 A 
ATOM      6  C   UNL     1       7.974   6.946  18.445  0.00  0.00    +0.000 A 
ATOM      7  C   UNL     1       7.332   7.302  17.264  0.00  0.00    +0.000 A 
ATOM      8  C   UNL     1       6.549   6.364  16.586  0.00  0.00    +0.000 A 
BRANCH   6   9
ATOM      9  O   UNL     1       8.713   7.901  19.078  0.00  0.00    +0.000 OA
ATOM     10  H   UNL     1       9.172   7.494  19.831  0.00  0.00    +0.000 HD
ENDBRANCH   6   9
ENDBRANCH   2   3
BRANCH   2  11
ATOM     11  O   UNL     1       4.712   3.462  17.294  0.00  0.00    +0.000 OA
BRANCH  11  12
ATOM     12  C   UNL     1       3.420   4.079  17.383  0.00  0.00    +0.000 C 
BRANCH  12  13
ATOM     13  C   UNL     1       2.802   3.749  18.717  0.00  0.00    +0.000 A 
ATOM     14  C   UNL     1       3.529   3.055  19.695  0.00  0.00    +0.000 A 
ATOM     15  C   UNL     1       2.948   2.752  20.928  0.00  0.00    +0.000 A 
ATOM     16  C   UNL     1       1.634   3.134  21.194  0.00  0.00    +0.000 A 
ATOM     17  C   UNL     1       0.898   3.816  20.226  0.00  0.00    +0.000 A 
ATOM     18  C   UNL     1       1.477   4.119  18.992  0.00  0.00    +0.000 A 
ENDBRANCH  12  13
ENDBRANCH  11  12
ENDBRANCH   2  11
TORSDOF 5
ENDMDL
MODEL 5
REMARK VINA RESULT:      -6.8      2.330      4.984
REMARK  Name = 
REMARK  5 active torsions:
REMARK  status: ('A' for Active; 'I' for Inactive)
REMARK    1  A    between atoms: C_2  and  O_3
REMARK    2  A    between atoms: C_2  and  C_11
REMARK    3  A    between atoms: O_3  and  C_4
REMARK    4  A    between atoms: C_4  and  C_5
REMARK    5  A    between atoms: C_14  and  O_15
REMARK                            x       y       z     vdW  Elec       q    Type
REMARK                         _______ _______ _______ _____ _____    ______ ____
ROOT
ATOM      1  O   UNL     1       2.129   6.562  19.804  0.00  0.00    +0.000 OA
ATOM      2  C   UNL     1       2.625   6.078  18.796  0.00  0.00    +0.000 C 
ENDROOT
BRANCH   2   3
ATOM      3  C   UNL     1       2.941   4.628  18.669  0.00  0.00    +0.000 A 
ATOM      4  C   UNL     1       3.807   4.053  19.615  0.00  0.00    +0.000 A 
ATOM      5  C   UNL     1       4.149   2.700  19.536  0.00  0.00    +0.000 A 
ATOM      6  C   UNL     1       3.618   1.922  18.513  0.00  0.00    +0.000 A 
ATOM      7  C   UNL     1       2.747   2.471  17.577  0.00  0.00    +0.000 A 
ATOM      8  C   UNL     1       2.407   3.824  17.653  0.00  0.00    +0.000 A 
BRANCH   6   9
ATOM      9  O   UNL     1       3.933   0.601  18.388  0.00  0.00    +0.000 OA
ATOM     10  H   UNL     1       3.150   0.120  18.073  0.00  0.00    +0.000 HD
ENDBRANCH   6   9
ENDBRANCH   2   3
BRANCH   2  11
ATOM     11  O   UNL     1       2.951   6.746  17.666  0.00  0.00    +0.000 OA
BRANCH  11  12
ATOM     12  C   UNL     1       4.246   7.362  17.646  0.00  0.00    +0.000 C 
BRANCH  12  13
ATOM     13  C   UNL     1       5.253   6.386  17.093  0.00  0.00    +0.000 A 
ATOM     14  C   UNL     1       5.107   5.858  15.802  0.00  0.00    +0.000 A 
ATOM     15  C   UNL     1       6.044   4.953  15.298  0.00  0.00    +0.000 A 
ATOM     16  C   UNL     1       7.131   4.563  16.079  0.00  0.00    +0.000 A 
ATOM     17  C   UNL     1       7.280   5.074  17.367  0.00  0.00    +0.000 A 
ATOM     18  C   UNL     1       6.345   5.979  17.874  0.00  0.00    +0.000 A 
ENDBRANCH  12  13
ENDBRANCH  11  12
ENDBRANCH   2  11
TORSDOF 5
ENDMDL
MODEL 6
REMARK VINA RESULT:      -6.8      2.041      5.904
REMARK  Name = 
REMARK  5 active torsions:
REMARK  status: ('A' for Active; 'I' for Inactive)
REMARK    1  A    between atoms: C_2  and  O_3
REMARK    2  A    between atoms: C_2  and  C_11
REMARK    3  A    between atoms: O_3  and  C_4
REMARK    4  A    between atoms: C_4  and  C_5
REMARK    5  A    between atoms: C_14  and  O_15
REMARK                            x       y       z     vdW  Elec       q    Type
REMARK                         _______ _______ _______ _____ _____    ______ ____
ROOT
ATOM      1  O   UNL     1       2.180   3.165  16.809  0.00  0.00    +0.000 OA
ATOM      2  C   UNL     1       3.025   3.754  17.468  0.00  0.00    +0.000 C 
ENDROOT
BRANCH   2   3
ATOM      3  C   UNL     1       2.687   4.841  18.429  0.00  0.00    +0.000 A 
ATOM      4  C   UNL     1       2.267   4.478  19.719  0.00  0.00    +0.000 A 
ATOM      5  C   UNL     1       1.924   5.456  20.657  0.00  0.00    +0.000 A 
ATOM      6  C   UNL     1       2.009   6.799  20.303  0.00  0.00    +0.000 A 
ATOM      7  C   UNL     1       2.437   7.176  19.035  0.00  0.00    +0.000 A 
ATOM      8  C   UNL     1       2.777   6.199  18.095  0.00  0.00    +0.000 A 
BRANCH   6   9
ATOM      9  O   UNL     1       1.673   7.787  21.179  0.00  0.00    +0.000 OA
ATOM     10  H   UNL     1       1.487   7.389  22.046  0.00  0.00    +0.000 HD
ENDBRANCH   6   9
ENDBRANCH   2   3
BRANCH   2  11
ATOM     11  O   UNL     1       4.359   3.525  17.445  0.00  0.00    +0.000 OA
BRANCH  11  12
ATOM     12  C   UNL     1       5.105   4.231  16.445  0.00  0.00    +0.000 C 
BRANCH  12  13
ATOM     13  C   UNL     1       6.087   5.156  17.117  0.00  0.00    +0.000 A 
ATOM     14  C   UNL     1       6.921   4.693  18.146  0.00  0.00    +0.000 A 
ATOM     15  C   UNL     1       7.827   5.557  18.765  0.00  0.00    +0.000 A 
ATOM     16  C   UNL     1       7.906   6.891  18.367  0.00  0.00    +0.000 A 
ATOM     17  C   UNL     1       7.076   7.363  17.352  0.00  0.00    +0.000 A 
ATOM     18  C   UNL     1       6.168   6.502  16.732  0.00  0.00    +0.000 A 
ENDBRANCH  12  13
ENDBRANCH  11  12
ENDBRANCH   2  11
TORSDOF 5
ENDMDL
MODEL 7
REMARK VINA RESULT:      -6.8      1.994      5.780
REMARK  Name = 
REMARK  5 active torsions:
REMARK  status: ('A' for Active; 'I' for Inactive)
REMARK    1  A    between atoms: C_2  and  O_3
REMARK    2  A    between atoms: C_2  and  C_11
REMARK    3  A    between atoms: O_3  and  C_4
REMARK    4  A    between atoms: C_4  and  C_5
REMARK    5  A    between atoms: C_14  and  O_15
REMARK                            x       y       z     vdW  Elec       q    Type
REMARK                         _______ _______ _______ _____ _____    ______ ____
ROOT
ATOM      1  O   UNL     1       3.932   2.470  17.577  0.00  0.00    +0.000 OA
ATOM      2  C   UNL     1       3.975   3.673  17.367  0.00  0.00    +0.000 C 
ENDROOT
BRANCH   2   3
ATOM      3  C   UNL     1       3.359   4.674  18.283  0.00  0.00    +0.000 A 
ATOM      4  C   UNL     1       3.308   6.014  17.863  0.00  0.00    +0.000 A 
ATOM      5  C   UNL     1       2.754   6.998  18.687  0.00  0.00    +0.000 A 
ATOM      6  C   UNL     1       2.244   6.637  19.930  0.00  0.00    +0.000 A 
ATOM      7  C   UNL     1       2.273   5.313  20.356  0.00  0.00    +0.000 A 
ATOM      8  C   UNL     1       2.830   4.329  19.534  0.00  0.00    +0.000 A 
BRANCH   6   9
ATOM      9  O   UNL     1       1.706   7.563  20.773  0.00  0.00    +0.000 OA
ATOM     10  H   UNL     1       1.594   8.399  20.291  0.00  0.00    +0.000 HD
ENDBRANCH   6   9
ENDBRANCH   2   3
BRANCH   2  11
ATOM     11  O   UNL     1       4.569   4.281  16.314  0.00  0.00    +0.000 OA
BRANCH  11  12
ATOM     12  C   UNL     1       5.984   4.084  16.186  0.00  0.00    +0.000 C 
BRANCH  12  13
ATOM     13  C   UNL     1       6.706   5.105  17.028  0.00  0.00    +0.000 A 
ATOM     14  C   UNL     1       7.293   4.743  18.249  0.00  0.00    +0.000 A 
ATOM     15  C   UNL     1       7.959   5.695  19.023  0.00  0.00    +0.000 A 
ATOM     16  C   UNL     1       8.041   7.017  18.590  0.00  0.00    +0.000 A 
ATOM     17  C   UNL     1       7.453   7.389  17.382  0.00  0.00    +0.000 A 
ATOM     18  C   UNL     1       6.786   6.440  16.606  0.00  0.00    +0.000 A 
ENDBRANCH  12  13
ENDBRANCH  11  12
ENDBRANCH   2  11
TORSDOF 5
ENDMDL
MODEL 8
REMARK VINA RESULT:      -6.8      2.322      5.179
REMARK  Name = 
REMARK  5 active torsions:
REMARK  status: ('A' for Active; 'I' for Inactive)
REMARK    1  A    between atoms: C_2  and  O_3
REMARK    2  A    between atoms: C_2  and  C_11
REMARK    3  A    between atoms: O_3  and  C_4
REMARK    4  A    between atoms: C_4  and  C_5
REMARK    5  A    between atoms: C_14  and  O_15
REMARK                            x       y       z     vdW  Elec       q    Type
REMARK                         _______ _______ _______ _____ _____    ______ ____
ROOT
ATOM      1  O   UNL     1       2.366   6.693  19.851  0.00  0.00    +0.000 OA
ATOM      2  C   UNL     1       2.758   6.170  18.818  0.00  0.00    +0.000 C 
ENDROOT
BRANCH   2   3
ATOM      3  C   UNL     1       3.083   4.719  18.721  0.00  0.00    +0.000 A 
ATOM      4  C   UNL     1       2.452   3.963  17.720  0.00  0.00    +0.000 A 
ATOM      5  C   UNL     1       2.709   2.595  17.592  0.00  0.00    +0.000 A 
ATOM      6  C   UNL     1       3.606   1.986  18.464  0.00  0.00    +0.000 A 
ATOM      7  C   UNL     1       4.252   2.723  19.451  0.00  0.00    +0.000 A 
ATOM      8  C   UNL     1       3.992   4.089  19.583  0.00  0.00    +0.000 A 
BRANCH   6   9
ATOM      9  O   UNL     1       3.879   0.653  18.385  0.00  0.00    +0.000 OA
ATOM     10  H   UNL     1       4.600   0.517  17.748  0.00  0.00    +0.000 HD
ENDBRANCH   6   9
ENDBRANCH   2   3
BRANCH   2  11
ATOM     11  O   UNL     1       2.950   6.790  17.630  0.00  0.00    +0.000 OA
BRANCH  11  12
ATOM     12  C   UNL     1       4.213   7.444  17.455  0.00  0.00    +0.000 C 
BRANCH  12  13
ATOM     13  C   UNL     1       5.246   6.428  17.037  0.00  0.00    +0.000 A 
ATOM     14  C   UNL     1       6.326   6.115  17.874  0.00  0.00    +0.000 A 
ATOM     15  C   UNL     1       7.279   5.174  17.479  0.00  0.00    +0.000 A 
ATOM     16  C   UNL     1       7.166   4.542  16.242  0.00  0.00    +0.000 A 
ATOM     17  C   UNL     1       6.102   4.852  15.397  0.00  0.00    +0.000 A 
ATOM     18  C   UNL     1       5.148   5.793  15.790  0.00  0.00    +0.000 A 
ENDBRANCH  12  13
ENDBRANCH  11  12
ENDBRANCH   2  11
TORSDOF 5
ENDMDL
MODEL 9
REMARK VINA RESULT:      -6.7      0.614      1.750
REMARK  Name = 
REMARK  5 active torsions:
REMARK  status: ('A' for Active; 'I' for Inactive)
REMARK    1  A    between atoms: C_2  and  O_3
REMARK    2  A    between atoms: C_2  and  C_11
REMARK    3  A    between atoms: O_3  and  C_4
REMARK    4  A    between atoms: C_4  and  C_5
REMARK    5  A    between atoms: C_14  and  O_15
REMARK                            x       y       z     vdW  Elec       q    Type
REMARK                         _______ _______ _______ _____ _____    ______ ____
ROOT
ATOM      1  O   UNL     1       5.572   3.786  19.338  0.00  0.00    +0.000 OA
ATOM      2  C   UNL     1       5.343   4.697  18.555  0.00  0.00    +0.000 C 
ENDROOT
BRANCH   2   3
ATOM      3  C   UNL     1       5.814   4.684  17.141  0.00  0.00    +0.000 A 
ATOM      4  C   UNL     1       5.070   3.951  16.202  0.00  0.00    +0.000 A 
ATOM      5  C   UNL     1       5.473   3.892  14.865  0.00  0.00    +0.000 A 
ATOM      6  C   UNL     1       6.618   4.575  14.468  0.00  0.00    +0.000 A 
ATOM      7  C   UNL     1       7.358   5.318  15.381  0.00  0.00    +0.000 A 
ATOM      8  C   UNL     1       6.958   5.374  16.720  0.00  0.00    +0.000 A 
BRANCH   6   9
ATOM      9  O   UNL     1       7.056   4.537  13.178  0.00  0.00    +0.000 OA
ATOM     10  H   UNL     1       7.017   3.620  12.860  0.00  0.00    +0.000 HD
ENDBRANCH   6   9
ENDBRANCH   2   3
BRANCH   2  11
ATOM     11  O   UNL     1       4.645   5.825  18.823  0.00  0.00    +0.000 OA
BRANCH  11  12
ATOM     12  C   UNL     1       3.357   5.934  18.204  0.00  0.00    +0.000 C 
BRANCH  12  13
ATOM     13  C   UNL     1       2.429   4.908  18.802  0.00  0.00    +0.000 A 
ATOM     14  C   UNL     1       2.106   4.940  20.166  0.00  0.00    +0.000 A 
ATOM     15  C   UNL     1       1.247   3.984  20.713  0.00  0.00    +0.000 A 
ATOM     16  C   UNL     1       0.706   2.986  19.904  0.00  0.00    +0.000 A 
ATOM     17  C   UNL     1       1.027   2.940  18.549  0.00  0.00    +0.000 A 
ATOM     18  C   UNL     1       1.887   3.893  18.000  0.00  0.00    +0.000 A 
ENDBRANCH  12  13
ENDBRANCH  11  12
ENDBRANCH   2  11
TORSDOF 5
ENDMDL
