MODEL 1
REMARK VINA RESULT:      -7.4      0.000      0.000
REMARK  Name = 
REMARK  8 active torsions:
REMARK  status: ('A' for Active; 'I' for Inactive)
REMARK    1  A    between atoms: C_1  and  C_2
REMARK    2  A    between atoms: C_5  and  C_6
REMARK    3  A    between atoms: C_6  and  C_7
REMARK    4  A    between atoms: C_7  and  S_8
REMARK    5  A    between atoms: S_8  and  C_9
REMARK    6  A    between atoms: N_16  and  C_17
REMARK    7  A    between atoms: C_17  and  C_18
REMARK    8  A    between atoms: C_18  and  C_20
REMARK                            x       y       z     vdW  Elec       q    Type
REMARK                         _______ _______ _______ _____ _____    ______ ____
ROOT
ATOM      1  C   UNL     1       6.841   6.865  17.570  0.00  0.00    +0.000 C 
ATOM      2  C   UNL     1       5.967   5.643  17.652  0.00  0.00    +0.000 A 
ATOM      3  C   UNL     1       5.791   5.042  18.906  0.00  0.00    +0.000 A 
ATOM      4  C   UNL     1       5.060   3.872  19.030  0.00  0.00    +0.000 A 
ATOM      5  C   UNL     1       4.492   3.293  17.901  0.00  0.00    +0.000 A 
ATOM      6  C   UNL     1       4.631   3.954  16.678  0.00  0.00    +0.000 A 
ATOM      7  N   UNL     1       5.363   5.097  16.551  0.00  0.00    +0.000 N 
ENDROOT
BRANCH   5   8
ATOM      8  C   UNL     1       3.747   1.982  18.061  0.00  0.00    +0.000 C 
BRANCH   8   9
ATOM      9  C   UNL     1       2.646   1.912  19.128  0.00  0.00    +0.000 C 
BRANCH   9  10
ATOM     10  S   UNL     1       1.166   2.861  18.620  0.00  0.00    +0.000 S 
BRANCH  10  11
ATOM     11  C   UNL     1       1.612   4.530  19.074  0.00  0.00    +0.000 A 
ATOM     12  C   UNL     1       1.927   5.423  18.041  0.00  0.00    +0.000 A 
ATOM     13  C   UNL     1       2.264   6.749  18.323  0.00  0.00    +0.000 A 
ATOM     14  C   UNL     1       2.279   7.198  19.639  0.00  0.00    +0.000 A 
ATOM     15  C   UNL     1       1.952   6.323  20.675  0.00  0.00    +0.000 A 
ATOM     16  C   UNL     1       1.615   4.997  20.393  0.00  0.00    +0.000 A 
ENDBRANCH  10  11
ENDBRANCH   9  10
ENDBRANCH   8   9
ENDBRANCH   5   8
BRANCH   7  17
ATOM     17  C   UNL     1       5.562   5.658  15.176  0.00  0.00    +0.000 C 
BRANCH  17  18
ATOM     18  C   UNL     1       6.656   4.996  14.371  0.00  0.00    +0.000 C 
ATOM     19  O   UNL     1       7.845   5.217  14.586  0.00  0.00    +0.000 OA
BRANCH  18  20
ATOM     20  C   UNL     1       6.268   4.091  13.241  0.00  0.00    +0.000 A 
ATOM     21  C   UNL     1       7.290   3.478  12.501  0.00  0.00    +0.000 A 
ATOM     22  C   UNL     1       6.982   2.601  11.455  0.00  0.00    +0.000 A 
ATOM     23  C   UNL     1       5.652   2.320  11.151  0.00  0.00    +0.000 A 
ATOM     24  C   UNL     1       4.631   2.929  11.876  0.00  0.00    +0.000 A 
ATOM     25  C   UNL     1       4.932   3.816  12.918  0.00  0.00    +0.000 A 
ENDBRANCH  18  20
ENDBRANCH  17  18
ENDBRANCH   7  17
TORSDOF 7
ENDMDL
MODEL 2
REMARK VINA RESULT:      -7.4      0.099      1.366
REMARK  Name = 
REMARK  8 active torsions:
REMARK  status: ('A' for Active; 'I' for Inactive)
REMARK    1  A    between atoms: C_1  and  C_2
REMARK    2  A    between atoms: C_5  and  C_6
REMARK    3  A    between atoms: C_6  and  C_7
REMARK    4  A    between atoms: C_7  and  S_8
REMARK    5  A    between atoms: S_8  and  C_9
REMARK    6  A    between atoms: N_16  and  C_17
REMARK    7  A    between atoms: C_17  and  C_18
REMARK    8  A    between atoms: C_18  and  C_20
REMARK                            x       y       z     vdW  Elec       q    Type
REMARK                         _______ _______ _______ _____ _____    ______ ____
ROOT
ATOM      1  C   UNL     1       6.767   6.909  17.527  0.00  0.00    +0.000 C 
ATOM      2  C   UNL     1       5.923   5.669  17.634  0.00  0.00    +0.000 A 
ATOM      3  C   UNL     1       5.756   5.093  18.901  0.00  0.00    +0.000 A 
ATOM      4  C   UNL     1       5.054   3.908  19.050  0.00  0.00    +0.000 A 
ATOM      5  C   UNL     1       4.506   3.289  17.933  0.00  0.00    +0.000 A 
ATOM      6  C   UNL     1       4.634   3.924  16.694  0.00  0.00    +0.000 A 
ATOM      7  N   UNL     1       5.338   5.082  16.544  0.00  0.00    +0.000 N 
ENDROOT
BRANCH   5   8
ATOM      8  C   UNL     1       3.793   1.964  18.121  0.00  0.00    +0.000 C 
BRANCH   8   9
ATOM      9  C   UNL     1       2.656   1.905  19.150  0.00  0.00    +0.000 C 
BRANCH   9  10
ATOM     10  S   UNL     1       1.179   2.812  18.562  0.00  0.00    +0.000 S 
BRANCH  10  11
ATOM     11  C   UNL     1       1.598   4.506  18.945  0.00  0.00    +0.000 A 
ATOM     12  C   UNL     1       1.594   4.887  20.293  0.00  0.00    +0.000 A 
ATOM     13  C   UNL     1       1.932   6.190  20.668  0.00  0.00    +0.000 A 
ATOM     14  C   UNL     1       2.288   7.121  19.698  0.00  0.00    +0.000 A 
ATOM     15  C   UNL     1       2.311   6.750  18.354  0.00  0.00    +0.000 A 
ATOM     16  C   UNL     1       1.973   5.446  17.980  0.00  0.00    +0.000 A 
ENDBRANCH  10  11
ENDBRANCH   9  10
ENDBRANCH   8   9
ENDBRANCH   5   8
BRANCH   7  17
ATOM     17  C   UNL     1       5.530   5.615  15.157  0.00  0.00    +0.000 C 
BRANCH  17  18
ATOM     18  C   UNL     1       6.640   4.957  14.370  0.00  0.00    +0.000 C 
ATOM     19  O   UNL     1       7.823   5.199  14.589  0.00  0.00    +0.000 OA
BRANCH  18  20
ATOM     20  C   UNL     1       6.272   4.029  13.252  0.00  0.00    +0.000 A 
ATOM     21  C   UNL     1       4.913   3.880  12.933  0.00  0.00    +0.000 A 
ATOM     22  C   UNL     1       4.518   3.049  11.880  0.00  0.00    +0.000 A 
ATOM     23  C   UNL     1       5.477   2.372  11.129  0.00  0.00    +0.000 A 
ATOM     24  C   UNL     1       6.827   2.509  11.442  0.00  0.00    +0.000 A 
ATOM     25  C   UNL     1       7.229   3.332  12.502  0.00  0.00    +0.000 A 
ENDBRANCH  18  20
ENDBRANCH  17  18
ENDBRANCH   7  17
TORSDOF 7
ENDMDL
MODEL 3
REMARK VINA RESULT:      -7.3      4.882      8.110
REMARK  Name = 
REMARK  8 active torsions:
REMARK  status: ('A' for Active; 'I' for Inactive)
REMARK    1  A    between atoms: C_1  and  C_2
REMARK    2  A    between atoms: C_5  and  C_6
REMARK    3  A    between atoms: C_6  and  C_7
REMARK    4  A    between atoms: C_7  and  S_8
REMARK    5  A    between atoms: S_8  and  C_9
REMARK    6  A    between atoms: N_16  and  C_17
REMARK    7  A    between atoms: C_17  and  C_18
REMARK    8  A    between atoms: C_18  and  C_20
REMARK                            x       y       z     vdW  Elec       q    Type
REMARK                         _______ _______ _______ _____ _____    ______ ____
ROOT
ATOM      1  C   UNL     1       5.522   4.176  19.085  0.00  0.00    +0.000 C 
ATOM      2  C   UNL     1       6.243   5.396  18.581  0.00  0.00    +0.000 A 
ATOM      3  C   UNL     1       7.507   5.682  19.115  0.00  0.00    +0.000 A 
ATOM      4  C   UNL     1       8.185   6.832  18.746  0.00  0.00    +0.000 A 
ATOM      5  C   UNL     1       7.607   7.706  17.833  0.00  0.00    +0.000 A 
ATOM      6  C   UNL     1       6.377   7.358  17.269  0.00  0.00    +0.000 A 
ATOM      7  N   UNL     1       5.702   6.234  17.644  0.00  0.00    +0.000 N 
ENDROOT
BRANCH   5   8
ATOM      8  C   UNL     1       8.348   8.986  17.493  0.00  0.00    +0.000 C 
BRANCH   8   9
ATOM      9  C   UNL     1       8.634   9.969  18.635  0.00  0.00    +0.000 C 
BRANCH   9  10
ATOM     10  S   UNL     1       9.950  11.157  18.176  0.00  0.00    +0.000 S 
BRANCH  10  11
ATOM     11  C   UNL     1       9.884  12.333  19.519  0.00  0.00    +0.000 A 
ATOM     12  C   UNL     1       9.633  11.837  20.805  0.00  0.00    +0.000 A 
ATOM     13  C   UNL     1       9.588  12.697  21.906  0.00  0.00    +0.000 A 
ATOM     14  C   UNL     1       9.805  14.060  21.731  0.00  0.00    +0.000 A 
ATOM     15  C   UNL     1      10.071  14.563  20.458  0.00  0.00    +0.000 A 
ATOM     16  C   UNL     1      10.116  13.702  19.359  0.00  0.00    +0.000 A 
ENDBRANCH  10  11
ENDBRANCH   9  10
ENDBRANCH   8   9
ENDBRANCH   5   8
BRANCH   7  17
ATOM     17  C   UNL     1       4.331   6.015  17.081  0.00  0.00    +0.000 C 
BRANCH  17  18
ATOM     18  C   UNL     1       3.197   6.464  17.973  0.00  0.00    +0.000 C 
ATOM     19  O   UNL     1       2.969   7.651  18.188  0.00  0.00    +0.000 OA
BRANCH  18  20
ATOM     20  C   UNL     1       2.368   5.420  18.658  0.00  0.00    +0.000 A 
ATOM     21  C   UNL     1       1.916   4.329  17.899  0.00  0.00    +0.000 A 
ATOM     22  C   UNL     1       1.164   3.312  18.497  0.00  0.00    +0.000 A 
ATOM     23  C   UNL     1       0.870   3.369  19.857  0.00  0.00    +0.000 A 
ATOM     24  C   UNL     1       1.310   4.451  20.617  0.00  0.00    +0.000 A 
ATOM     25  C   UNL     1       2.054   5.478  20.023  0.00  0.00    +0.000 A 
ENDBRANCH  18  20
ENDBRANCH  17  18
ENDBRANCH   7  17
TORSDOF 7
ENDMDL
MODEL 4
REMARK VINA RESULT:      -6.9      3.616      5.836
REMARK  Name = 
REMARK  8 active torsions:
REMARK  status: ('A' for Active; 'I' for Inactive)
REMARK    1  A    between atoms: C_1  and  C_2
REMARK    2  A    between atoms: C_5  and  C_6
REMARK    3  A    between atoms: C_6  and  C_7
REMARK    4  A    between atoms: C_7  and  S_8
REMARK    5  A    between atoms: S_8  and  C_9
REMARK    6  A    between atoms: N_16  and  C_17
REMARK    7  A    between atoms: C_17  and  C_18
REMARK    8  A    between atoms: C_18  and  C_20
REMARK                            x       y       z     vdW  Elec       q    Type
REMARK                         _______ _______ _______ _____ _____    ______ ____
ROOT
ATOM      1  C   UNL     1       1.881   3.973  20.838  0.00  0.00    +0.000 C 
ATOM      2  C   UNL     1       2.033   5.233  20.030  0.00  0.00    +0.000 A 
ATOM      3  C   UNL     1       1.922   6.461  20.697  0.00  0.00    +0.000 A 
ATOM      4  C   UNL     1       1.976   7.653  19.994  0.00  0.00    +0.000 A 
ATOM      5  C   UNL     1       2.149   7.629  18.615  0.00  0.00    +0.000 A 
ATOM      6  C   UNL     1       2.323   6.391  17.990  0.00  0.00    +0.000 A 
ATOM      7  N   UNL     1       2.254   5.217  18.679  0.00  0.00    +0.000 N 
ENDROOT
BRANCH   5   8
ATOM      8  C   UNL     1       2.146   8.948  17.866  0.00  0.00    +0.000 C 
BRANCH   8   9
ATOM      9  C   UNL     1       1.607  10.184  18.599  0.00  0.00    +0.000 C 
BRANCH   9  10
ATOM     10  S   UNL     1      -0.223  10.212  18.599  0.00  0.00    +0.000 S 
BRANCH  10  11
ATOM     11  C   UNL     1      -0.595  10.675  20.284  0.00  0.00    +0.000 A 
ATOM     12  C   UNL     1      -1.398  11.805  20.485  0.00  0.00    +0.000 A 
ATOM     13  C   UNL     1      -1.746  12.213  21.775  0.00  0.00    +0.000 A 
ATOM     14  C   UNL     1      -1.303  11.488  22.876  0.00  0.00    +0.000 A 
ATOM     15  C   UNL     1      -0.516  10.352  22.688  0.00  0.00    +0.000 A 
ATOM     16  C   UNL     1      -0.168   9.945  21.398  0.00  0.00    +0.000 A 
ENDBRANCH  10  11
ENDBRANCH   9  10
ENDBRANCH   8   9
ENDBRANCH   5   8
BRANCH   7  17
ATOM     17  C   UNL     1       2.322   3.939  17.901  0.00  0.00    +0.000 C 
BRANCH  17  18
ATOM     18  C   UNL     1       3.664   3.245  17.931  0.00  0.00    +0.000 C 
ATOM     19  O   UNL     1       3.812   2.136  18.437  0.00  0.00    +0.000 OA
BRANCH  18  20
ATOM     20  C   UNL     1       4.856   3.966  17.377  0.00  0.00    +0.000 A 
ATOM     21  C   UNL     1       5.827   4.432  18.277  0.00  0.00    +0.000 A 
ATOM     22  C   UNL     1       6.972   5.085  17.810  0.00  0.00    +0.000 A 
ATOM     23  C   UNL     1       7.163   5.266  16.442  0.00  0.00    +0.000 A 
ATOM     24  C   UNL     1       6.201   4.813  15.542  0.00  0.00    +0.000 A 
ATOM     25  C   UNL     1       5.047   4.167  16.003  0.00  0.00    +0.000 A 
ENDBRANCH  18  20
ENDBRANCH  17  18
ENDBRANCH   7  17
TORSDOF 7
ENDMDL
MODEL 5
REMARK VINA RESULT:      -6.9      3.728      5.799
REMARK  Name = 
REMARK  8 active torsions:
REMARK  status: ('A' for Active; 'I' for Inactive)
REMARK    1  A    between atoms: C_1  and  C_2
REMARK    2  A    between atoms: C_5  and  C_6
REMARK    3  A    between atoms: C_6  and  C_7
REMARK    4  A    between atoms: C_7  and  S_8
REMARK    5  A    between atoms: S_8  and  C_9
REMARK    6  A    between atoms: N_16  and  C_17
REMARK    7  A    between atoms: C_17  and  C_18
REMARK    8  A    between atoms: C_18  and  C_20
REMARK                            x       y       z     vdW  Elec       q    Type
REMARK                         _______ _______ _______ _____ _____    ______ ____
ROOT
ATOM      1  C   UNL     1       2.025   4.101  21.221  0.00  0.00    +0.000 C 
ATOM      2  C   UNL     1       2.141   5.347  20.387  0.00  0.00    +0.000 A 
ATOM      3  C   UNL     1       1.691   6.554  20.939  0.00  0.00    +0.000 A 
ATOM      4  C   UNL     1       1.701   7.719  20.190  0.00  0.00    +0.000 A 
ATOM      5  C   UNL     1       2.169   7.691  18.881  0.00  0.00    +0.000 A 
ATOM      6  C   UNL     1       2.673   6.486  18.385  0.00  0.00    +0.000 A 
ATOM      7  N   UNL     1       2.649   5.335  19.115  0.00  0.00    +0.000 N 
ENDROOT
BRANCH   5   8
ATOM      8  C   UNL     1       2.114   8.970  18.069  0.00  0.00    +0.000 C 
BRANCH   8   9
ATOM      9  C   UNL     1       0.849   9.832  18.179  0.00  0.00    +0.000 C 
BRANCH   9  10
ATOM     10  S   UNL     1       1.215  11.458  18.935  0.00  0.00    +0.000 S 
BRANCH  10  11
ATOM     11  C   UNL     1       0.201  11.428  20.405  0.00  0.00    +0.000 A 
ATOM     12  C   UNL     1      -0.950  12.226  20.416  0.00  0.00    +0.000 A 
ATOM     13  C   UNL     1      -1.802  12.236  21.524  0.00  0.00    +0.000 A 
ATOM     14  C   UNL     1      -1.514  11.440  22.628  0.00  0.00    +0.000 A 
ATOM     15  C   UNL     1      -0.379  10.629  22.623  0.00  0.00    +0.000 A 
ATOM     16  C   UNL     1       0.471  10.620  21.514  0.00  0.00    +0.000 A 
ENDBRANCH  10  11
ENDBRANCH   9  10
ENDBRANCH   8   9
ENDBRANCH   5   8
BRANCH   7  17
ATOM     17  C   UNL     1       3.090   4.068  18.449  0.00  0.00    +0.000 C 
BRANCH  17  18
ATOM     18  C   UNL     1       4.580   3.818  18.479  0.00  0.00    +0.000 C 
ATOM     19  O   UNL     1       5.142   3.357  19.470  0.00  0.00    +0.000 OA
BRANCH  18  20
ATOM     20  C   UNL     1       5.396   4.201  17.282  0.00  0.00    +0.000 A 
ATOM     21  C   UNL     1       4.858   3.959  16.008  0.00  0.00    +0.000 A 
ATOM     22  C   UNL     1       5.565   4.325  14.858  0.00  0.00    +0.000 A 
ATOM     23  C   UNL     1       6.806   4.947  14.971  0.00  0.00    +0.000 A 
ATOM     24  C   UNL     1       7.350   5.185  16.231  0.00  0.00    +0.000 A 
ATOM     25  C   UNL     1       6.652   4.812  17.387  0.00  0.00    +0.000 A 
ENDBRANCH  18  20
ENDBRANCH  17  18
ENDBRANCH   7  17
TORSDOF 7
ENDMDL
MODEL 6
REMARK VINA RESULT:      -6.9      3.563      5.923
REMARK  Name = 
REMARK  8 active torsions:
REMARK  status: ('A' for Active; 'I' for Inactive)
REMARK    1  A    between atoms: C_1  and  C_2
REMARK    2  A    between atoms: C_5  and  C_6
REMARK    3  A    between atoms: C_6  and  C_7
REMARK    4  A    between atoms: C_7  and  S_8
REMARK    5  A    between atoms: S_8  and  C_9
REMARK    6  A    between atoms: N_16  and  C_17
REMARK    7  A    between atoms: C_17  and  C_18
REMARK    8  A    between atoms: C_18  and  C_20
REMARK                            x       y       z     vdW  Elec       q    Type
REMARK                         _______ _______ _______ _____ _____    ______ ____
ROOT
ATOM      1  C   UNL     1       1.703   3.780  20.679  0.00  0.00    +0.000 C 
ATOM      2  C   UNL     1       1.929   5.070  19.940  0.00  0.00    +0.000 A 
ATOM      3  C   UNL     1       1.819   6.269  20.658  0.00  0.00    +0.000 A 
ATOM      4  C   UNL     1       1.939   7.490  20.015  0.00  0.00    +0.000 A 
ATOM      5  C   UNL     1       2.178   7.525  18.646  0.00  0.00    +0.000 A 
ATOM      6  C   UNL     1       2.349   6.312  17.973  0.00  0.00    +0.000 A 
ATOM      7  N   UNL     1       2.214   5.110  18.601  0.00  0.00    +0.000 N 
ENDROOT
BRANCH   5   8
ATOM      8  C   UNL     1       2.247   8.876  17.961  0.00  0.00    +0.000 C 
BRANCH   8   9
ATOM      9  C   UNL     1       1.730  10.096  18.735  0.00  0.00    +0.000 C 
BRANCH   9  10
ATOM     10  S   UNL     1      -0.086  10.265  18.574  0.00  0.00    +0.000 S 
BRANCH  10  11
ATOM     11  C   UNL     1      -0.574  10.703  20.235  0.00  0.00    +0.000 A 
ATOM     12  C   UNL     1      -0.048   9.943  21.289  0.00  0.00    +0.000 A 
ATOM     13  C   UNL     1      -0.370  10.243  22.615  0.00  0.00    +0.000 A 
ATOM     14  C   UNL     1      -1.214  11.312  22.901  0.00  0.00    +0.000 A 
ATOM     15  C   UNL     1      -1.731  12.085  21.862  0.00  0.00    +0.000 A 
ATOM     16  C   UNL     1      -1.408  11.784  20.536  0.00  0.00    +0.000 A 
ENDBRANCH  10  11
ENDBRANCH   9  10
ENDBRANCH   8   9
ENDBRANCH   5   8
BRANCH   7  17
ATOM     17  C   UNL     1       2.285   3.867  17.768  0.00  0.00    +0.000 C 
BRANCH  17  18
ATOM     18  C   UNL     1       3.634   3.186  17.754  0.00  0.00    +0.000 C 
ATOM     19  O   UNL     1       3.759   1.986  17.983  0.00  0.00    +0.000 OA
BRANCH  18  20
ATOM     20  C   UNL     1       4.855   4.020  17.509  0.00  0.00    +0.000 A 
ATOM     21  C   UNL     1       5.076   4.508  16.212  0.00  0.00    +0.000 A 
ATOM     22  C   UNL     1       6.184   5.315  15.936  0.00  0.00    +0.000 A 
ATOM     23  C   UNL     1       7.072   5.653  16.956  0.00  0.00    +0.000 A 
ATOM     24  C   UNL     1       6.864   5.167  18.245  0.00  0.00    +0.000 A 
ATOM     25  C   UNL     1       5.762   4.350  18.526  0.00  0.00    +0.000 A 
ENDBRANCH  18  20
ENDBRANCH  17  18
ENDBRANCH   7  17
TORSDOF 7
ENDMDL
MODEL 7
REMARK VINA RESULT:      -6.8      4.429      8.636
REMARK  Name = 
REMARK  8 active torsions:
REMARK  status: ('A' for Active; 'I' for Inactive)
REMARK    1  A    between atoms: C_1  and  C_2
REMARK    2  A    between atoms: C_5  and  C_6
REMARK    3  A    between atoms: C_6  and  C_7
REMARK    4  A    between atoms: C_7  and  S_8
REMARK    5  A    between atoms: S_8  and  C_9
REMARK    6  A    between atoms: N_16  and  C_17
REMARK    7  A    between atoms: C_17  and  C_18
REMARK    8  A    between atoms: C_18  and  C_20
REMARK                            x       y       z     vdW  Elec       q    Type
REMARK                         _______ _______ _______ _____ _____    ______ ____
ROOT
ATOM      1  C   UNL     1       0.657   8.580  21.385  0.00  0.00    +0.000 C 
ATOM      2  C   UNL     1       1.463   8.129  20.197  0.00  0.00    +0.000 A 
ATOM      3  C   UNL     1       2.085   6.875  20.261  0.00  0.00    +0.000 A 
ATOM      4  C   UNL     1       2.902   6.439  19.232  0.00  0.00    +0.000 A 
ATOM      5  C   UNL     1       3.101   7.252  18.122  0.00  0.00    +0.000 A 
ATOM      6  C   UNL     1       2.413   8.467  18.060  0.00  0.00    +0.000 A 
ATOM      7  N   UNL     1       1.622   8.904  19.080  0.00  0.00    +0.000 N 
ENDROOT
BRANCH   5   8
ATOM      8  C   UNL     1       4.047   6.773  17.038  0.00  0.00    +0.000 C 
BRANCH   8   9
ATOM      9  C   UNL     1       5.160   5.796  17.442  0.00  0.00    +0.000 C 
BRANCH   9  10
ATOM     10  S   UNL     1       4.889   4.140  16.711  0.00  0.00    +0.000 S 
BRANCH  10  11
ATOM     11  C   UNL     1       3.699   3.421  17.832  0.00  0.00    +0.000 A 
ATOM     12  C   UNL     1       4.129   3.122  19.132  0.00  0.00    +0.000 A 
ATOM     13  C   UNL     1       3.246   2.578  20.068  0.00  0.00    +0.000 A 
ATOM     14  C   UNL     1       1.921   2.337  19.717  0.00  0.00    +0.000 A 
ATOM     15  C   UNL     1       1.478   2.646  18.431  0.00  0.00    +0.000 A 
ATOM     16  C   UNL     1       2.361   3.190  17.496  0.00  0.00    +0.000 A 
ENDBRANCH  10  11
ENDBRANCH   9  10
ENDBRANCH   8   9
ENDBRANCH   5   8
BRANCH   7  17
ATOM     17  C   UNL     1       1.033  10.278  18.976  0.00  0.00    +0.000 C 
BRANCH  17  18
ATOM     18  C   UNL     1      -0.385  10.325  18.455  0.00  0.00    +0.000 C 
ATOM     19  O   UNL     1      -0.717   9.749  17.422  0.00  0.00    +0.000 OA
BRANCH  18  20
ATOM     20  C   UNL     1      -1.394  11.149  19.196  0.00  0.00    +0.000 A 
ATOM     21  C   UNL     1      -1.032  11.674  20.446  0.00  0.00    +0.000 A 
ATOM     22  C   UNL     1      -1.925  12.474  21.166  0.00  0.00    +0.000 A 
ATOM     23  C   UNL     1      -3.180  12.768  20.636  0.00  0.00    +0.000 A 
ATOM     24  C   UNL     1      -3.550  12.247  19.399  0.00  0.00    +0.000 A 
ATOM     25  C   UNL     1      -2.664  11.436  18.677  0.00  0.00    +0.000 A 
ENDBRANCH  18  20
ENDBRANCH  17  18
ENDBRANCH   7  17
TORSDOF 7
ENDMDL
MODEL 8
REMARK VINA RESULT:      -6.8      3.654      6.152
REMARK  Name = 
REMARK  8 active torsions:
REMARK  status: ('A' for Active; 'I' for Inactive)
REMARK    1  A    between atoms: C_1  and  C_2
REMARK    2  A    between atoms: C_5  and  C_6
REMARK    3  A    between atoms: C_6  and  C_7
REMARK    4  A    between atoms: C_7  and  S_8
REMARK    5  A    between atoms: S_8  and  C_9
REMARK    6  A    between atoms: N_16  and  C_17
REMARK    7  A    between atoms: C_17  and  C_18
REMARK    8  A    between atoms: C_18  and  C_20
REMARK                            x       y       z     vdW  Elec       q    Type
REMARK                         _______ _______ _______ _____ _____    ______ ____
ROOT
ATOM      1  C   UNL     1       2.195   4.135  20.530  0.00  0.00    +0.000 C 
ATOM      2  C   UNL     1       2.236   5.457  19.813  0.00  0.00    +0.000 A 
ATOM      3  C   UNL     1       2.011   6.620  20.562  0.00  0.00    +0.000 A 
ATOM      4  C   UNL     1       1.960   7.858  19.944  0.00  0.00    +0.000 A 
ATOM      5  C   UNL     1       2.142   7.947  18.569  0.00  0.00    +0.000 A 
ATOM      6  C   UNL     1       2.431   6.777  17.862  0.00  0.00    +0.000 A 
ATOM      7  N   UNL     1       2.465   5.556  18.467  0.00  0.00    +0.000 N 
ENDROOT
BRANCH   5   8
ATOM      8  C   UNL     1       2.024   9.310  17.914  0.00  0.00    +0.000 C 
BRANCH   8   9
ATOM      9  C   UNL     1       1.470  10.464  18.761  0.00  0.00    +0.000 C 
BRANCH   9  10
ATOM     10  S   UNL     1      -0.357  10.538  18.668  0.00  0.00    +0.000 S 
BRANCH  10  11
ATOM     11  C   UNL     1      -0.808  10.882  20.362  0.00  0.00    +0.000 A 
ATOM     12  C   UNL     1      -0.259  10.065  21.359  0.00  0.00    +0.000 A 
ATOM     13  C   UNL     1      -0.551  10.290  22.707  0.00  0.00    +0.000 A 
ATOM     14  C   UNL     1      -1.387  11.340  23.071  0.00  0.00    +0.000 A 
ATOM     15  C   UNL     1      -1.927  12.170  22.089  0.00  0.00    +0.000 A 
ATOM     16  C   UNL     1      -1.634  11.945  20.741  0.00  0.00    +0.000 A 
ENDBRANCH  10  11
ENDBRANCH   9  10
ENDBRANCH   8   9
ENDBRANCH   5   8
BRANCH   7  17
ATOM     17  C   UNL     1       2.652   4.346  17.603  0.00  0.00    +0.000 C 
BRANCH  17  18
ATOM     18  C   UNL     1       4.028   3.725  17.667  0.00  0.00    +0.000 C 
ATOM     19  O   UNL     1       4.190   2.508  17.721  0.00  0.00    +0.000 OA
BRANCH  18  20
ATOM     20  C   UNL     1       5.221   4.630  17.726  0.00  0.00    +0.000 A 
ATOM     21  C   UNL     1       5.860   4.805  18.964  0.00  0.00    +0.000 A 
ATOM     22  C   UNL     1       6.996   5.615  19.068  0.00  0.00    +0.000 A 
ATOM     23  C   UNL     1       7.509   6.245  17.936  0.00  0.00    +0.000 A 
ATOM     24  C   UNL     1       6.877   6.082  16.706  0.00  0.00    +0.000 A 
ATOM     25  C   UNL     1       5.734   5.280  16.596  0.00  0.00    +0.000 A 
ENDBRANCH  18  20
ENDBRANCH  17  18
ENDBRANCH   7  17
TORSDOF 7
ENDMDL
MODEL 9
REMARK VINA RESULT:      -6.7      3.402      5.696
REMARK  Name = 
REMARK  8 active torsions:
REMARK  status: ('A' for Active; 'I' for Inactive)
REMARK    1  A    between atoms: C_1  and  C_2
REMARK    2  A    between atoms: C_5  and  C_6
REMARK    3  A    between atoms: C_6  and  C_7
REMARK    4  A    between atoms: C_7  and  S_8
REMARK    5  A    between atoms: S_8  and  C_9
REMARK    6  A    between atoms: N_16  and  C_17
REMARK    7  A    between atoms: C_17  and  C_18
REMARK    8  A    between atoms: C_18  and  C_20
REMARK                            x       y       z     vdW  Elec       q    Type
REMARK                         _______ _______ _______ _____ _____    ______ ____
ROOT
ATOM      1  C   UNL     1       3.883   2.444  18.890  0.00  0.00    +0.000 C 
ATOM      2  C   UNL     1       3.482   3.892  18.975  0.00  0.00    +0.000 A 
ATOM      3  C   UNL     1       2.948   4.358  20.184  0.00  0.00    +0.000 A 
ATOM      4  C   UNL     1       2.490   5.660  20.297  0.00  0.00    +0.000 A 
ATOM      5  C   UNL     1       2.566   6.513  19.202  0.00  0.00    +0.000 A 
ATOM      6  C   UNL     1       3.165   6.036  18.032  0.00  0.00    +0.000 A 
ATOM      7  N   UNL     1       3.601   4.750  17.915  0.00  0.00    +0.000 N 
ENDROOT
BRANCH   5   8
ATOM      8  C   UNL     1       2.004   7.915  19.339  0.00  0.00    +0.000 C 
BRANCH   8   9
ATOM      9  C   UNL     1       1.752   8.712  18.052  0.00  0.00    +0.000 C 
BRANCH   9  10
ATOM     10  S   UNL     1       1.475  10.485  18.412  0.00  0.00    +0.000 S 
BRANCH  10  11
ATOM     11  C   UNL     1      -0.302  10.622  18.301  0.00  0.00    +0.000 A 
ATOM     12  C   UNL     1      -0.923  11.638  19.038  0.00  0.00    +0.000 A 
ATOM     13  C   UNL     1      -2.308  11.816  18.982  0.00  0.00    +0.000 A 
ATOM     14  C   UNL     1      -3.083  10.986  18.179  0.00  0.00    +0.000 A 
ATOM     15  C   UNL     1      -2.475   9.981  17.428  0.00  0.00    +0.000 A 
ATOM     16  C   UNL     1      -1.090   9.804  17.485  0.00  0.00    +0.000 A 
ENDBRANCH  10  11
ENDBRANCH   9  10
ENDBRANCH   8   9
ENDBRANCH   5   8
BRANCH   7  17
ATOM     17  C   UNL     1       4.107   4.297  16.579  0.00  0.00    +0.000 C 
BRANCH  17  18
ATOM     18  C   UNL     1       5.262   5.102  16.029  0.00  0.00    +0.000 C 
ATOM     19  O   UNL     1       5.401   5.300  14.825  0.00  0.00    +0.000 OA
BRANCH  18  20
ATOM     20  C   UNL     1       6.294   5.619  16.985  0.00  0.00    +0.000 A 
ATOM     21  C   UNL     1       6.598   6.989  16.955  0.00  0.00    +0.000 A 
ATOM     22  C   UNL     1       7.532   7.529  17.845  0.00  0.00    +0.000 A 
ATOM     23  C   UNL     1       8.159   6.708  18.780  0.00  0.00    +0.000 A 
ATOM     24  C   UNL     1       7.868   5.347  18.812  0.00  0.00    +0.000 A 
ATOM     25  C   UNL     1       6.941   4.797  17.917  0.00  0.00    +0.000 A 
ENDBRANCH  18  20
ENDBRANCH  17  18
ENDBRANCH   7  17
TORSDOF 7
ENDMDL
