MODEL 1
REMARK VINA RESULT:      -9.0      0.000      0.000
REMARK  Name = 
REMARK  3 active torsions:
REMARK  status: ('A' for Active; 'I' for Inactive)
REMARK    1  A    between atoms: C_2  and  C_19
REMARK    2  A    between atoms: C_8  and  C_9
REMARK    3  A    between atoms: C_23  and  N_24
REMARK                            x       y       z     vdW  Elec       q    Type
REMARK                         _______ _______ _______ _____ _____    ______ ____
ROOT
ATOM      1  O   UNL     1      -0.119  10.126  23.443  0.00  0.00    +0.000 OA
ATOM      2  C   UNL     1      -0.504  10.809  22.502  0.00  0.00    +0.000 C 
ATOM      3  N   UNL     1      -0.292  10.569  21.161  0.00  0.00    +0.000 N 
ATOM      4  C   UNL     1       0.389   9.467  20.707  0.00  0.00    +0.000 A 
ATOM      5  N   UNL     1       0.899   9.485  19.436  0.00  0.00    +0.000 NA
ATOM      6  C   UNL     1       1.575   8.353  19.374  0.00  0.00    +0.000 A 
ATOM      7  C   UNL     1       2.424   7.779  18.378  0.00  0.00    +0.000 A 
ATOM      8  C   UNL     1       2.989   6.562  18.579  0.00  0.00    +0.000 A 
ATOM      9  C   UNL     1       2.717   5.822  19.814  0.00  0.00    +0.000 A 
ATOM     10  C   UNL     1       1.939   6.374  20.761  0.00  0.00    +0.000 A 
ATOM     11  N   UNL     1       1.388   7.630  20.552  0.00  0.00    +0.000 N 
ATOM     12  N   UNL     1       0.618   8.350  21.389  0.00  0.00    +0.000 NA
ATOM     13  H   UNL     1      -0.442  11.279  20.462  0.00  0.00    +0.000 HD
ENDROOT
BRANCH   8  14
ATOM     14  C   UNL     1       3.861   6.004  17.526  0.00  0.00    +0.000 A 
ATOM     15  C   UNL     1       4.627   6.844  16.705  0.00  0.00    +0.000 A 
ATOM     16  C   UNL     1       5.455   6.303  15.717  0.00  0.00    +0.000 A 
ATOM     17  C   UNL     1       5.535   4.919  15.548  0.00  0.00    +0.000 A 
ATOM     18  C   UNL     1       4.790   4.078  16.374  0.00  0.00    +0.000 A 
ATOM     19  C   UNL     1       3.958   4.617  17.360  0.00  0.00    +0.000 A 
ENDBRANCH   8  14
BRANCH   2  20
ATOM     20  C   UNL     1      -1.210  12.074  22.840  0.00  0.00    +0.000 A 
ATOM     21  C   UNL     1      -0.632  13.332  22.631  0.00  0.00    +0.000 A 
ATOM     22  C   UNL     1      -1.363  14.492  22.907  0.00  0.00    +0.000 A 
ATOM     23  C   UNL     1      -2.671  14.403  23.392  0.00  0.00    +0.000 A 
ATOM     24  C   UNL     1      -3.250  13.143  23.598  0.00  0.00    +0.000 A 
ATOM     25  C   UNL     1      -2.528  11.978  23.318  0.00  0.00    +0.000 A 
BRANCH  24  26
ATOM     26  N   UNL     1      -4.625  13.046  24.103  0.00  0.00    +0.000 N 
ATOM     27  O   UNL     1      -4.937  12.021  24.726  0.00  0.00    +0.000 OA
ATOM     28  O   UNL     1      -5.395  13.989  23.873  0.00  0.00    +0.000 OA
ENDBRANCH  24  26
ENDBRANCH   2  20
TORSDOF 3
ENDMDL
MODEL 2
REMARK VINA RESULT:      -9.0      0.161      1.116
REMARK  Name = 
REMARK  3 active torsions:
REMARK  status: ('A' for Active; 'I' for Inactive)
REMARK    1  A    between atoms: C_2  and  C_19
REMARK    2  A    between atoms: C_8  and  C_9
REMARK    3  A    between atoms: C_23  and  N_24
REMARK                            x       y       z     vdW  Elec       q    Type
REMARK                         _______ _______ _______ _____ _____    ______ ____
ROOT
ATOM      1  O   UNL     1      -0.004  10.057  23.368  0.00  0.00    +0.000 OA
ATOM      2  C   UNL     1      -0.386  10.739  22.423  0.00  0.00    +0.000 C 
ATOM      3  N   UNL     1      -0.172  10.493  21.083  0.00  0.00    +0.000 N 
ATOM      4  C   UNL     1       0.505   9.387  20.634  0.00  0.00    +0.000 A 
ATOM      5  N   UNL     1       1.017   9.398  19.364  0.00  0.00    +0.000 NA
ATOM      6  C   UNL     1       1.690   8.263  19.308  0.00  0.00    +0.000 A 
ATOM      7  C   UNL     1       2.538   7.683  18.316  0.00  0.00    +0.000 A 
ATOM      8  C   UNL     1       3.098   6.465  18.521  0.00  0.00    +0.000 A 
ATOM      9  C   UNL     1       2.821   5.730  19.759  0.00  0.00    +0.000 A 
ATOM     10  C   UNL     1       2.044   6.288  20.702  0.00  0.00    +0.000 A 
ATOM     11  N   UNL     1       1.498   7.546  20.488  0.00  0.00    +0.000 N 
ATOM     12  N   UNL     1       0.730   8.272  21.321  0.00  0.00    +0.000 NA
ATOM     13  H   UNL     1      -0.318  11.201  20.381  0.00  0.00    +0.000 HD
ENDROOT
BRANCH   8  14
ATOM     14  C   UNL     1       3.970   5.899  17.472  0.00  0.00    +0.000 A 
ATOM     15  C   UNL     1       4.086   4.513  17.302  0.00  0.00    +0.000 A 
ATOM     16  C   UNL     1       4.908   3.990  16.299  0.00  0.00    +0.000 A 
ATOM     17  C   UNL     1       5.613   4.847  15.452  0.00  0.00    +0.000 A 
ATOM     18  C   UNL     1       5.488   6.227  15.605  0.00  0.00    +0.000 A 
ATOM     19  C   UNL     1       4.669   6.752  16.608  0.00  0.00    +0.000 A 
ENDBRANCH   8  14
BRANCH   2  20
ATOM     20  C   UNL     1      -1.087  12.008  22.755  0.00  0.00    +0.000 A 
ATOM     21  C   UNL     1      -0.521  13.263  22.504  0.00  0.00    +0.000 A 
ATOM     22  C   UNL     1      -1.250  14.425  22.777  0.00  0.00    +0.000 A 
ATOM     23  C   UNL     1      -2.543  14.341  23.302  0.00  0.00    +0.000 A 
ATOM     24  C   UNL     1      -3.110  13.084  23.549  0.00  0.00    +0.000 A 
ATOM     25  C   UNL     1      -2.390  11.916  23.273  0.00  0.00    +0.000 A 
BRANCH  24  26
ATOM     26  N   UNL     1      -4.469  12.991  24.096  0.00  0.00    +0.000 N 
ATOM     27  O   UNL     1      -5.225  13.958  23.923  0.00  0.00    +0.000 OA
ATOM     28  O   UNL     1      -4.780  11.958  24.704  0.00  0.00    +0.000 OA
ENDBRANCH  24  26
ENDBRANCH   2  20
TORSDOF 3
ENDMDL
MODEL 3
REMARK VINA RESULT:      -8.7      3.692     10.267
REMARK  Name = 
REMARK  3 active torsions:
REMARK  status: ('A' for Active; 'I' for Inactive)
REMARK    1  A    between atoms: C_2  and  C_19
REMARK    2  A    between atoms: C_8  and  C_9
REMARK    3  A    between atoms: C_23  and  N_24
REMARK                            x       y       z     vdW  Elec       q    Type
REMARK                         _______ _______ _______ _____ _____    ______ ____
ROOT
ATOM      1  O   UNL     1       2.263   5.563  20.570  0.00  0.00    +0.000 OA
ATOM      2  C   UNL     1       2.622   6.183  19.576  0.00  0.00    +0.000 C 
ATOM      3  N   UNL     1       2.344   7.499  19.274  0.00  0.00    +0.000 N 
ATOM      4  C   UNL     1       1.618   8.311  20.108  0.00  0.00    +0.000 A 
ATOM      5  N   UNL     1       1.052   9.448  19.595  0.00  0.00    +0.000 NA
ATOM      6  C   UNL     1       0.346   9.910  20.610  0.00  0.00    +0.000 A 
ATOM      7  C   UNL     1      -0.560  11.006  20.747  0.00  0.00    +0.000 A 
ATOM      8  C   UNL     1      -1.145  11.266  21.943  0.00  0.00    +0.000 A 
ATOM      9  C   UNL     1      -0.835  10.431  23.107  0.00  0.00    +0.000 A 
ATOM     10  C   UNL     1      -0.003   9.386  22.971  0.00  0.00    +0.000 A 
ATOM     11  N   UNL     1       0.568   9.117  21.735  0.00  0.00    +0.000 N 
ATOM     12  N   UNL     1       1.392   8.106  21.402  0.00  0.00    +0.000 NA
ATOM     13  H   UNL     1       2.480   7.874  18.348  0.00  0.00    +0.000 HD
ENDROOT
BRANCH   8  14
ATOM     14  C   UNL     1      -2.077  12.407  22.043  0.00  0.00    +0.000 A 
ATOM     15  C   UNL     1      -2.890  12.770  20.960  0.00  0.00    +0.000 A 
ATOM     16  C   UNL     1      -3.774  13.847  21.070  0.00  0.00    +0.000 A 
ATOM     17  C   UNL     1      -3.862  14.564  22.264  0.00  0.00    +0.000 A 
ATOM     18  C   UNL     1      -3.069  14.197  23.351  0.00  0.00    +0.000 A 
ATOM     19  C   UNL     1      -2.182  13.122  23.242  0.00  0.00    +0.000 A 
ENDBRANCH   8  14
BRANCH   2  20
ATOM     20  C   UNL     1       3.373   5.416  18.546  0.00  0.00    +0.000 A 
ATOM     21  C   UNL     1       2.832   4.293  17.909  0.00  0.00    +0.000 A 
ATOM     22  C   UNL     1       3.556   3.645  16.902  0.00  0.00    +0.000 A 
ATOM     23  C   UNL     1       4.818   4.114  16.527  0.00  0.00    +0.000 A 
ATOM     24  C   UNL     1       5.356   5.241  17.162  0.00  0.00    +0.000 A 
ATOM     25  C   UNL     1       4.637   5.898  18.167  0.00  0.00    +0.000 A 
BRANCH  24  26
ATOM     26  N   UNL     1       6.680   5.738  16.768  0.00  0.00    +0.000 N 
ATOM     27  O   UNL     1       7.601   4.913  16.679  0.00  0.00    +0.000 OA
ATOM     28  O   UNL     1       6.803   6.952  16.554  0.00  0.00    +0.000 OA
ENDBRANCH  24  26
ENDBRANCH   2  20
TORSDOF 3
ENDMDL
MODEL 4
REMARK VINA RESULT:      -8.7      3.728     10.292
REMARK  Name = 
REMARK  3 active torsions:
REMARK  status: ('A' for Active; 'I' for Inactive)
REMARK    1  A    between atoms: C_2  and  C_19
REMARK    2  A    between atoms: C_8  and  C_9
REMARK    3  A    between atoms: C_23  and  N_24
REMARK                            x       y       z     vdW  Elec       q    Type
REMARK                         _______ _______ _______ _____ _____    ______ ____
ROOT
ATOM      1  O   UNL     1       2.164   5.468  20.770  0.00  0.00    +0.000 OA
ATOM      2  C   UNL     1       2.578   6.058  19.779  0.00  0.00    +0.000 C 
ATOM      3  N   UNL     1       2.349   7.374  19.441  0.00  0.00    +0.000 N 
ATOM      4  C   UNL     1       1.614   8.222  20.231  0.00  0.00    +0.000 A 
ATOM      5  N   UNL     1       1.100   9.363  19.674  0.00  0.00    +0.000 NA
ATOM      6  C   UNL     1       0.369   9.866  20.652  0.00  0.00    +0.000 A 
ATOM      7  C   UNL     1      -0.511  10.988  20.733  0.00  0.00    +0.000 A 
ATOM      8  C   UNL     1      -1.133  11.288  21.900  0.00  0.00    +0.000 A 
ATOM      9  C   UNL     1      -0.892  10.469  23.092  0.00  0.00    +0.000 A 
ATOM     10  C   UNL     1      -0.084   9.398  23.008  0.00  0.00    +0.000 A 
ATOM     11  N   UNL     1       0.526   9.089  21.801  0.00  0.00    +0.000 N 
ATOM     12  N   UNL     1       1.333   8.050  21.518  0.00  0.00    +0.000 NA
ATOM     13  H   UNL     1       2.530   7.727  18.514  0.00  0.00    +0.000 HD
ENDROOT
BRANCH   8  14
ATOM     14  C   UNL     1      -2.036  12.456  21.942  0.00  0.00    +0.000 A 
ATOM     15  C   UNL     1      -2.097  13.278  23.076  0.00  0.00    +0.000 A 
ATOM     16  C   UNL     1      -2.950  14.386  23.100  0.00  0.00    +0.000 A 
ATOM     17  C   UNL     1      -3.740  14.688  21.989  0.00  0.00    +0.000 A 
ATOM     18  C   UNL     1      -3.670  13.885  20.852  0.00  0.00    +0.000 A 
ATOM     19  C   UNL     1      -2.820  12.775  20.827  0.00  0.00    +0.000 A 
ENDBRANCH   8  14
BRANCH   2  20
ATOM     20  C   UNL     1       3.346   5.250  18.793  0.00  0.00    +0.000 A 
ATOM     21  C   UNL     1       2.718   4.470  17.815  0.00  0.00    +0.000 A 
ATOM     22  C   UNL     1       3.487   3.779  16.872  0.00  0.00    +0.000 A 
ATOM     23  C   UNL     1       4.882   3.863  16.902  0.00  0.00    +0.000 A 
ATOM     24  C   UNL     1       5.509   4.647  17.879  0.00  0.00    +0.000 A 
ATOM     25  C   UNL     1       4.747   5.346  18.822  0.00  0.00    +0.000 A 
BRANCH  24  26
ATOM     26  N   UNL     1       6.974   4.740  17.911  0.00  0.00    +0.000 N 
ATOM     27  O   UNL     1       7.524   4.764  19.021  0.00  0.00    +0.000 OA
ATOM     28  O   UNL     1       7.574   4.797  16.829  0.00  0.00    +0.000 OA
ENDBRANCH  24  26
ENDBRANCH   2  20
TORSDOF 3
ENDMDL
MODEL 5
REMARK VINA RESULT:      -8.6      5.590     11.427
REMARK  Name = 
REMARK  3 active torsions:
REMARK  status: ('A' for Active; 'I' for Inactive)
REMARK    1  A    between atoms: C_2  and  C_19
REMARK    2  A    between atoms: C_8  and  C_9
REMARK    3  A    between atoms: C_23  and  N_24
REMARK                            x       y       z     vdW  Elec       q    Type
REMARK                         _______ _______ _______ _____ _____    ______ ____
ROOT
ATOM      1  O   UNL     1       4.418   3.705  16.433  0.00  0.00    +0.000 OA
ATOM      2  C   UNL     1       4.893   4.713  15.921  0.00  0.00    +0.000 C 
ATOM      3  N   UNL     1       4.726   6.015  16.343  0.00  0.00    +0.000 N 
ATOM      4  C   UNL     1       3.992   6.342  17.455  0.00  0.00    +0.000 A 
ATOM      5  N   UNL     1       3.544   7.629  17.594  0.00  0.00    +0.000 NA
ATOM      6  C   UNL     1       2.794   7.564  18.679  0.00  0.00    +0.000 A 
ATOM      7  C   UNL     1       1.954   8.512  19.340  0.00  0.00    +0.000 A 
ATOM      8  C   UNL     1       1.298   8.170  20.477  0.00  0.00    +0.000 A 
ATOM      9  C   UNL     1       1.461   6.828  21.042  0.00  0.00    +0.000 A 
ATOM     10  C   UNL     1       2.231   5.929  20.406  0.00  0.00    +0.000 A 
ATOM     11  N   UNL     1       2.877   6.285  19.230  0.00  0.00    +0.000 N 
ATOM     12  N   UNL     1       3.655   5.520  18.443  0.00  0.00    +0.000 NA
ATOM     13  H   UNL     1       4.956   6.799  15.754  0.00  0.00    +0.000 HD
ENDROOT
BRANCH   8  14
ATOM     14  C   UNL     1       0.438   9.178  21.129  0.00  0.00    +0.000 A 
ATOM     15  C   UNL     1       0.089   9.060  22.481  0.00  0.00    +0.000 A 
ATOM     16  C   UNL     1      -0.719  10.025  23.090  0.00  0.00    +0.000 A 
ATOM     17  C   UNL     1      -1.176  11.121  22.356  0.00  0.00    +0.000 A 
ATOM     18  C   UNL     1      -0.817  11.254  21.016  0.00  0.00    +0.000 A 
ATOM     19  C   UNL     1      -0.012  10.289  20.404  0.00  0.00    +0.000 A 
ENDBRANCH   8  14
BRANCH   2  20
ATOM     20  C   UNL     1       5.668   4.522  14.666  0.00  0.00    +0.000 A 
ATOM     21  C   UNL     1       6.915   5.123  14.459  0.00  0.00    +0.000 A 
ATOM     22  C   UNL     1       7.631   4.859  13.286  0.00  0.00    +0.000 A 
ATOM     23  C   UNL     1       7.108   3.999  12.317  0.00  0.00    +0.000 A 
ATOM     24  C   UNL     1       5.861   3.396  12.528  0.00  0.00    +0.000 A 
ATOM     25  C   UNL     1       5.140   3.648  13.700  0.00  0.00    +0.000 A 
BRANCH  24  26
ATOM     26  N   UNL     1       5.309   2.488  11.514  0.00  0.00    +0.000 N 
ATOM     27  O   UNL     1       4.187   2.751  11.056  0.00  0.00    +0.000 OA
ATOM     28  O   UNL     1       5.991   1.510  11.179  0.00  0.00    +0.000 OA
ENDBRANCH  24  26
ENDBRANCH   2  20
TORSDOF 3
ENDMDL
MODEL 6
REMARK VINA RESULT:      -8.6      3.574     10.205
REMARK  Name = 
REMARK  3 active torsions:
REMARK  status: ('A' for Active; 'I' for Inactive)
REMARK    1  A    between atoms: C_2  and  C_19
REMARK    2  A    between atoms: C_8  and  C_9
REMARK    3  A    between atoms: C_23  and  N_24
REMARK                            x       y       z     vdW  Elec       q    Type
REMARK                         _______ _______ _______ _____ _____    ______ ____
ROOT
ATOM      1  O   UNL     1       1.907   5.678  20.547  0.00  0.00    +0.000 OA
ATOM      2  C   UNL     1       2.356   6.314  19.600  0.00  0.00    +0.000 C 
ATOM      3  N   UNL     1       2.180   7.657  19.344  0.00  0.00    +0.000 N 
ATOM      4  C   UNL     1       1.467   8.480  20.180  0.00  0.00    +0.000 A 
ATOM      5  N   UNL     1       1.003   9.673  19.692  0.00  0.00    +0.000 NA
ATOM      6  C   UNL     1       0.279  10.140  20.692  0.00  0.00    +0.000 A 
ATOM      7  C   UNL     1      -0.559  11.287  20.835  0.00  0.00    +0.000 A 
ATOM      8  C   UNL     1      -1.185  11.536  22.013  0.00  0.00    +0.000 A 
ATOM      9  C   UNL     1      -0.990  10.634  23.152  0.00  0.00    +0.000 A 
ATOM     10  C   UNL     1      -0.222   9.541  23.008  0.00  0.00    +0.000 A 
ATOM     11  N   UNL     1       0.392   9.286  21.790  0.00  0.00    +0.000 N 
ATOM     12  N   UNL     1       1.163   8.237  21.450  0.00  0.00    +0.000 NA
ATOM     13  H   UNL     1       2.386   8.060  18.444  0.00  0.00    +0.000 HD
ENDROOT
BRANCH   8  14
ATOM     14  C   UNL     1      -2.044  12.732  22.120  0.00  0.00    +0.000 A 
ATOM     15  C   UNL     1      -2.356  13.285  23.370  0.00  0.00    +0.000 A 
ATOM     16  C   UNL     1      -3.164  14.423  23.457  0.00  0.00    +0.000 A 
ATOM     17  C   UNL     1      -3.657  15.024  22.299  0.00  0.00    +0.000 A 
ATOM     18  C   UNL     1      -3.336  14.490  21.052  0.00  0.00    +0.000 A 
ATOM     19  C   UNL     1      -2.531  13.350  20.962  0.00  0.00    +0.000 A 
ENDBRANCH   8  14
BRANCH   2  20
ATOM     20  C   UNL     1       3.105   5.542  18.573  0.00  0.00    +0.000 A 
ATOM     21  C   UNL     1       2.761   4.231  18.224  0.00  0.00    +0.000 A 
ATOM     22  C   UNL     1       3.459   3.572  17.206  0.00  0.00    +0.000 A 
ATOM     23  C   UNL     1       4.502   4.216  16.534  0.00  0.00    +0.000 A 
ATOM     24  C   UNL     1       4.843   5.530  16.882  0.00  0.00    +0.000 A 
ATOM     25  C   UNL     1       4.146   6.199  17.894  0.00  0.00    +0.000 A 
BRANCH  24  26
ATOM     26  N   UNL     1       5.935   6.212  16.175  0.00  0.00    +0.000 N 
ATOM     27  O   UNL     1       6.476   7.172  16.743  0.00  0.00    +0.000 OA
ATOM     28  O   UNL     1       6.248   5.794  15.052  0.00  0.00    +0.000 OA
ENDBRANCH  24  26
ENDBRANCH   2  20
TORSDOF 3
ENDMDL
MODEL 7
REMARK VINA RESULT:      -8.5      1.716      2.206
REMARK  Name = 
REMARK  3 active torsions:
REMARK  status: ('A' for Active; 'I' for Inactive)
REMARK    1  A    between atoms: C_2  and  C_19
REMARK    2  A    between atoms: C_8  and  C_9
REMARK    3  A    between atoms: C_23  and  N_24
REMARK                            x       y       z     vdW  Elec       q    Type
REMARK                         _______ _______ _______ _____ _____    ______ ____
ROOT
ATOM      1  O   UNL     1      -1.288  12.427  20.393  0.00  0.00    +0.000 OA
ATOM      2  C   UNL     1      -1.021  12.109  21.546  0.00  0.00    +0.000 C 
ATOM      3  N   UNL     1      -0.191  11.086  21.953  0.00  0.00    +0.000 N 
ATOM      4  C   UNL     1       0.484  10.286  21.066  0.00  0.00    +0.000 A 
ATOM      5  N   UNL     1       0.961   9.077  21.499  0.00  0.00    +0.000 NA
ATOM      6  C   UNL     1       1.433   8.533  20.393  0.00  0.00    +0.000 A 
ATOM      7  C   UNL     1       1.987   7.249  20.098  0.00  0.00    +0.000 A 
ATOM      8  C   UNL     1       2.417   6.960  18.845  0.00  0.00    +0.000 A 
ATOM      9  C   UNL     1       2.330   7.972  17.788  0.00  0.00    +0.000 A 
ATOM     10  C   UNL     1       1.786   9.169  18.059  0.00  0.00    +0.000 A 
ATOM     11  N   UNL     1       1.327   9.443  19.340  0.00  0.00    +0.000 N 
ATOM     12  N   UNL     1       0.729  10.562  19.789  0.00  0.00    +0.000 NA
ATOM     13  H   UNL     1      -0.192  10.743  22.900  0.00  0.00    +0.000 HD
ENDROOT
BRANCH   8  14
ATOM     14  C   UNL     1       2.982   5.621  18.581  0.00  0.00    +0.000 A 
ATOM     15  C   UNL     1       4.231   5.252  19.098  0.00  0.00    +0.000 A 
ATOM     16  C   UNL     1       4.752   3.979  18.848  0.00  0.00    +0.000 A 
ATOM     17  C   UNL     1       4.024   3.060  18.090  0.00  0.00    +0.000 A 
ATOM     18  C   UNL     1       2.773   3.414  17.589  0.00  0.00    +0.000 A 
ATOM     19  C   UNL     1       2.252   4.688  17.835  0.00  0.00    +0.000 A 
ENDBRANCH   8  14
BRANCH   2  20
ATOM     20  C   UNL     1      -1.727  12.852  22.625  0.00  0.00    +0.000 A 
ATOM     21  C   UNL     1      -1.114  13.883  23.346  0.00  0.00    +0.000 A 
ATOM     22  C   UNL     1      -1.843  14.592  24.307  0.00  0.00    +0.000 A 
ATOM     23  C   UNL     1      -3.182  14.276  24.552  0.00  0.00    +0.000 A 
ATOM     24  C   UNL     1      -3.795  13.246  23.826  0.00  0.00    +0.000 A 
ATOM     25  C   UNL     1      -3.076  12.536  22.859  0.00  0.00    +0.000 A 
BRANCH  24  26
ATOM     26  N   UNL     1      -5.203  12.914  24.078  0.00  0.00    +0.000 N 
ATOM     27  O   UNL     1      -6.066  13.639  23.562  0.00  0.00    +0.000 OA
ATOM     28  O   UNL     1      -5.448  11.935  24.796  0.00  0.00    +0.000 OA
ENDBRANCH  24  26
ENDBRANCH   2  20
TORSDOF 3
ENDMDL
MODEL 8
REMARK VINA RESULT:      -8.5      3.747     10.479
REMARK  Name = 
REMARK  3 active torsions:
REMARK  status: ('A' for Active; 'I' for Inactive)
REMARK    1  A    between atoms: C_2  and  C_19
REMARK    2  A    between atoms: C_8  and  C_9
REMARK    3  A    between atoms: C_23  and  N_24
REMARK                            x       y       z     vdW  Elec       q    Type
REMARK                         _______ _______ _______ _____ _____    ______ ____
ROOT
ATOM      1  O   UNL     1       2.539   8.788  17.333  0.00  0.00    +0.000 OA
ATOM      2  C   UNL     1       2.530   7.918  18.197  0.00  0.00    +0.000 C 
ATOM      3  N   UNL     1       1.835   7.939  19.387  0.00  0.00    +0.000 N 
ATOM      4  C   UNL     1       1.013   8.978  19.744  0.00  0.00    +0.000 A 
ATOM      5  N   UNL     1       0.673   9.127  21.063  0.00  0.00    +0.000 NA
ATOM      6  C   UNL     1      -0.004  10.261  21.066  0.00  0.00    +0.000 A 
ATOM      7  C   UNL     1      -0.568  11.054  22.111  0.00  0.00    +0.000 A 
ATOM      8  C   UNL     1      -1.243  12.194  21.818  0.00  0.00    +0.000 A 
ATOM      9  C   UNL     1      -1.411  12.608  20.421  0.00  0.00    +0.000 A 
ATOM     10  C   UNL     1      -0.857  11.874  19.441  0.00  0.00    +0.000 A 
ATOM     11  N   UNL     1      -0.148  10.724  19.758  0.00  0.00    +0.000 N 
ATOM     12  N   UNL     1       0.497   9.888  18.925  0.00  0.00    +0.000 NA
ATOM     13  H   UNL     1       2.045   7.302  20.139  0.00  0.00    +0.000 HD
ENDROOT
BRANCH   8  14
ATOM     14  C   UNL     1      -1.811  12.987  22.926  0.00  0.00    +0.000 A 
ATOM     15  C   UNL     1      -1.130  14.100  23.437  0.00  0.00    +0.000 A 
ATOM     16  C   UNL     1      -1.682  14.848  24.482  0.00  0.00    +0.000 A 
ATOM     17  C   UNL     1      -2.922  14.497  25.017  0.00  0.00    +0.000 A 
ATOM     18  C   UNL     1      -3.613  13.402  24.501  0.00  0.00    +0.000 A 
ATOM     19  C   UNL     1      -3.062  12.651  23.459  0.00  0.00    +0.000 A 
ENDBRANCH   8  14
BRANCH   2  20
ATOM     20  C   UNL     1       3.424   6.749  17.977  0.00  0.00    +0.000 A 
ATOM     21  C   UNL     1       3.003   5.434  18.203  0.00  0.00    +0.000 A 
ATOM     22  C   UNL     1       3.863   4.367  17.920  0.00  0.00    +0.000 A 
ATOM     23  C   UNL     1       5.143   4.607  17.413  0.00  0.00    +0.000 A 
ATOM     24  C   UNL     1       5.561   5.925  17.184  0.00  0.00    +0.000 A 
ATOM     25  C   UNL     1       4.706   6.997  17.458  0.00  0.00    +0.000 A 
BRANCH  24  26
ATOM     26  N   UNL     1       6.904   6.181  16.647  0.00  0.00    +0.000 N 
ATOM     27  O   UNL     1       7.445   5.275  15.997  0.00  0.00    +0.000 OA
ATOM     28  O   UNL     1       7.420   7.282  16.880  0.00  0.00    +0.000 OA
ENDBRANCH  24  26
ENDBRANCH   2  20
TORSDOF 3
ENDMDL
MODEL 9
REMARK VINA RESULT:      -8.4      3.767     10.521
REMARK  Name = 
REMARK  3 active torsions:
REMARK  status: ('A' for Active; 'I' for Inactive)
REMARK    1  A    between atoms: C_2  and  C_19
REMARK    2  A    between atoms: C_8  and  C_9
REMARK    3  A    between atoms: C_23  and  N_24
REMARK                            x       y       z     vdW  Elec       q    Type
REMARK                         _______ _______ _______ _____ _____    ______ ____
ROOT
ATOM      1  O   UNL     1       2.571   8.624  17.328  0.00  0.00    +0.000 OA
ATOM      2  C   UNL     1       2.599   7.781  18.217  0.00  0.00    +0.000 C 
ATOM      3  N   UNL     1       1.915   7.815  19.414  0.00  0.00    +0.000 N 
ATOM      4  C   UNL     1       1.061   8.837  19.747  0.00  0.00    +0.000 A 
ATOM      5  N   UNL     1       0.729   9.015  21.064  0.00  0.00    +0.000 NA
ATOM      6  C   UNL     1       0.014  10.125  21.040  0.00  0.00    +0.000 A 
ATOM      7  C   UNL     1      -0.568  10.931  22.066  0.00  0.00    +0.000 A 
ATOM      8  C   UNL     1      -1.284  12.037  21.745  0.00  0.00    +0.000 A 
ATOM      9  C   UNL     1      -1.479  12.402  20.338  0.00  0.00    +0.000 A 
ATOM     10  C   UNL     1      -0.910  11.658  19.375  0.00  0.00    +0.000 A 
ATOM     11  N   UNL     1      -0.159  10.542  19.720  0.00  0.00    +0.000 N 
ATOM     12  N   UNL     1       0.507   9.703  18.906  0.00  0.00    +0.000 NA
ATOM     13  H   UNL     1       2.154   7.209  20.182  0.00  0.00    +0.000 HD
ENDROOT
BRANCH   8  14
ATOM     14  C   UNL     1      -1.868  12.844  22.835  0.00  0.00    +0.000 A 
ATOM     15  C   UNL     1      -3.103  12.502  23.402  0.00  0.00    +0.000 A 
ATOM     16  C   UNL     1      -3.641  13.270  24.439  0.00  0.00    +0.000 A 
ATOM     17  C   UNL     1      -2.946  14.378  24.926  0.00  0.00    +0.000 A 
ATOM     18  C   UNL     1      -1.709  14.713  24.378  0.00  0.00    +0.000 A 
ATOM     19  C   UNL     1      -1.170  13.949  23.339  0.00  0.00    +0.000 A 
ENDBRANCH   8  14
BRANCH   2  20
ATOM     20  C   UNL     1       3.530   6.637  18.025  0.00  0.00    +0.000 A 
ATOM     21  C   UNL     1       3.168   5.320  18.330  0.00  0.00    +0.000 A 
ATOM     22  C   UNL     1       4.060   4.273  18.070  0.00  0.00    +0.000 A 
ATOM     23  C   UNL     1       5.312   4.535  17.507  0.00  0.00    +0.000 A 
ATOM     24  C   UNL     1       5.671   5.854  17.199  0.00  0.00    +0.000 A 
ATOM     25  C   UNL     1       4.784   6.906  17.450  0.00  0.00    +0.000 A 
BRANCH  24  26
ATOM     26  N   UNL     1       6.984   6.133  16.604  0.00  0.00    +0.000 N 
ATOM     27  O   UNL     1       7.538   7.199  16.908  0.00  0.00    +0.000 OA
ATOM     28  O   UNL     1       7.458   5.292  15.828  0.00  0.00    +0.000 OA
ENDBRANCH  24  26
ENDBRANCH   2  20
TORSDOF 3
ENDMDL
