MODEL 1
REMARK VINA RESULT:     -10.1      0.000      0.000
REMARK  Name = 
REMARK  10 active torsions:
REMARK  status: ('A' for Active; 'I' for Inactive)
REMARK    1  A    between atoms: C_2  and  C_3
REMARK    2  A    between atoms: C_4  and  C_5
REMARK    3  A    between atoms: C_8  and  C_9
REMARK    4  A    between atoms: N_11  and  O_12
REMARK    5  A    between atoms: N_15  and  C_16
REMARK    6  A    between atoms: C_16  and  C_17
REMARK    7  A    between atoms: C_16  and  C_27
REMARK    8  A    between atoms: C_17  and  C_18
REMARK    9  A    between atoms: N_29  and  C_30
REMARK   10  A    between atoms: C_30  and  C_31
REMARK                            x       y       z     vdW  Elec       q    Type
REMARK                         _______ _______ _______ _____ _____    ______ ____
ROOT
ATOM      1  C   UNL     1       6.261   5.825  16.743  0.00  0.00    +0.000 C 
ENDROOT
BRANCH   1   4
ATOM      2  O   UNL     1       8.181   6.930  18.757  0.00  0.00    +0.000 OA
ATOM      3  C   UNL     1       7.710   7.600  17.849  0.00  0.00    +0.000 C 
ATOM      4  N   UNL     1       6.870   7.186  16.923  0.00  0.00    +0.000 N 
ATOM      5  H   UNL     1       6.819   7.802  16.112  0.00  0.00    +0.000 HD
BRANCH   3   6
ATOM      6  C   UNL     1       8.105   9.043  17.726  0.00  0.00    +0.000 C 
ATOM      7  C   UNL     1       9.027   9.675  18.473  0.00  0.00    +0.000 C 
BRANCH   7   8
ATOM      8  C   UNL     1       9.419  11.078  18.191  0.00  0.00    +0.000 A 
ATOM      9  C   UNL     1       8.503  12.032  17.715  0.00  0.00    +0.000 A 
ATOM     10  C   UNL     1       8.891  13.353  17.412  0.00  0.00    +0.000 A 
ATOM     11  C   UNL     1      10.200  13.783  17.659  0.00  0.00    +0.000 A 
ATOM     12  C   UNL     1      11.108  12.853  18.179  0.00  0.00    +0.000 A 
ATOM     13  C   UNL     1      10.719  11.526  18.453  0.00  0.00    +0.000 A 
BRANCH  11  14
ATOM     14  C   UNL     1      10.575  15.219  17.408  0.00  0.00    +0.000 C 
ATOM     15  O   UNL     1       9.867  16.143  17.802  0.00  0.00    +0.000 OA
ATOM     16  N   UNL     1      11.751  15.454  16.730  0.00  0.00    +0.000 N 
ATOM     17  H   UNL     1      12.414  14.758  16.421  0.00  0.00    +0.000 HD
BRANCH  16  18
ATOM     18  O   UNL     1      12.128  16.794  16.497  0.00  0.00    +0.000 OA
ATOM     19  H   UNL     1      11.268  17.262  16.487  0.00  0.00    +0.000 HD
ENDBRANCH  16  18
ENDBRANCH  11  14
ENDBRANCH   7   8
ENDBRANCH   3   6
ENDBRANCH   1   4
BRANCH   1  20
ATOM     20  C   UNL     1       7.166   5.168  15.549  0.00  0.00    +0.000 C 
ATOM     21  O   UNL     1       8.037   4.315  15.782  0.00  0.00    +0.000 OA
ATOM     22  N   UNL     1       6.900   5.540  14.250  0.00  0.00    +0.000 N 
ATOM     23  H   UNL     1       6.132   6.161  14.067  0.00  0.00    +0.000 HD
BRANCH  22  24
ATOM     24  C   UNL     1       7.566   4.974  13.067  0.00  0.00    +0.000 C 
BRANCH  24  25
ATOM     25  C   UNL     1       6.713   3.886  12.446  0.00  0.00    +0.000 A 
ATOM     26  C   UNL     1       7.290   2.754  11.838  0.00  0.00    +0.000 A 
ATOM     27  C   UNL     1       6.510   1.833  11.127  0.00  0.00    +0.000 A 
ATOM     28  C   UNL     1       5.126   1.983  11.099  0.00  0.00    +0.000 A 
ATOM     29  C   UNL     1       4.535   3.071  11.743  0.00  0.00    +0.000 A 
ATOM     30  C   UNL     1       5.319   4.024  12.401  0.00  0.00    +0.000 A 
ENDBRANCH  24  25
ENDBRANCH  22  24
ENDBRANCH   1  20
BRANCH   1  31
ATOM     31  C   UNL     1       4.486   5.606  16.596  0.00  0.00    +0.000 C 
BRANCH  31  32
ATOM     32  C   UNL     1       3.299   4.900  17.786  0.00  0.00    +0.000 A 
ATOM     33  C   UNL     1       3.317   3.567  17.463  0.00  0.00    +0.000 A 
ATOM     34  N   UNL     1       1.972   3.556  17.670  0.00  0.00    +0.000 N 
ATOM     35  C   UNL     1       1.840   3.556  19.024  0.00  0.00    +0.000 A 
ATOM     36  C   UNL     1       0.806   2.692  19.608  0.00  0.00    +0.000 A 
ATOM     37  C   UNL     1       0.598   2.479  20.931  0.00  0.00    +0.000 A 
ATOM     38  C   UNL     1       1.536   3.133  21.651  0.00  0.00    +0.000 A 
ATOM     39  C   UNL     1       2.533   4.050  20.952  0.00  0.00    +0.000 A 
ATOM     40  C   UNL     1       2.911   4.583  19.500  0.00  0.00    +0.000 A 
ATOM     41  H   UNL     1       1.322   4.198  17.252  0.00  0.00    +0.000 HD
ENDBRANCH  31  32
ENDBRANCH   1  31
TORSDOF 10
ENDMDL
MODEL 2
REMARK VINA RESULT:      -9.8      1.374      1.906
REMARK  Name = 
REMARK  10 active torsions:
REMARK  status: ('A' for Active; 'I' for Inactive)
REMARK    1  A    between atoms: C_2  and  C_3
REMARK    2  A    between atoms: C_4  and  C_5
REMARK    3  A    between atoms: C_8  and  C_9
REMARK    4  A    between atoms: N_11  and  O_12
REMARK    5  A    between atoms: N_15  and  C_16
REMARK    6  A    between atoms: C_16  and  C_17
REMARK    7  A    between atoms: C_16  and  C_27
REMARK    8  A    between atoms: C_17  and  C_18
REMARK    9  A    between atoms: N_29  and  C_30
REMARK   10  A    between atoms: C_30  and  C_31
REMARK                            x       y       z     vdW  Elec       q    Type
REMARK                         _______ _______ _______ _____ _____    ______ ____
ROOT
ATOM      1  C   UNL     1       7.193   5.825  17.115  0.00  0.00    +0.000 C 
ENDROOT
BRANCH   1   4
ATOM      2  O   UNL     1       8.591   7.391  19.250  0.00  0.00    +0.000 OA
ATOM      3  C   UNL     1       8.321   7.857  18.152  0.00  0.00    +0.000 C 
ATOM      4  N   UNL     1       7.717   7.232  17.162  0.00  0.00    +0.000 N 
ATOM      5  H   UNL     1       7.835   7.688  16.257  0.00  0.00    +0.000 HD
BRANCH   3   6
ATOM      6  C   UNL     1       8.702   9.276  17.846  0.00  0.00    +0.000 C 
ATOM      7  C   UNL     1       9.068  10.206  18.746  0.00  0.00    +0.000 C 
BRANCH   7   8
ATOM      8  C   UNL     1       9.533  11.549  18.323  0.00  0.00    +0.000 A 
ATOM      9  C   UNL     1       8.781  12.713  18.561  0.00  0.00    +0.000 A 
ATOM     10  C   UNL     1       9.210  13.982  18.121  0.00  0.00    +0.000 A 
ATOM     11  C   UNL     1      10.455  14.134  17.498  0.00  0.00    +0.000 A 
ATOM     12  C   UNL     1      11.232  12.987  17.299  0.00  0.00    +0.000 A 
ATOM     13  C   UNL     1      10.784  11.718  17.717  0.00  0.00    +0.000 A 
BRANCH  11  14
ATOM     14  C   UNL     1      10.933  15.507  17.110  0.00  0.00    +0.000 C 
ATOM     15  O   UNL     1      12.121  15.732  16.887  0.00  0.00    +0.000 OA
ATOM     16  N   UNL     1       9.983  16.498  17.002  0.00  0.00    +0.000 N 
ATOM     17  H   UNL     1       8.985  16.387  17.114  0.00  0.00    +0.000 HD
BRANCH  16  18
ATOM     18  O   UNL     1      10.409  17.790  16.625  0.00  0.00    +0.000 OA
ATOM     19  H   UNL     1       9.701  18.081  16.013  0.00  0.00    +0.000 HD
ENDBRANCH  16  18
ENDBRANCH  11  14
ENDBRANCH   7   8
ENDBRANCH   3   6
ENDBRANCH   1   4
BRANCH   1  20
ATOM     20  C   UNL     1       6.106   5.874  15.894  0.00  0.00    +0.000 C 
ATOM     21  O   UNL     1       5.509   6.919  15.591  0.00  0.00    +0.000 OA
ATOM     22  N   UNL     1       5.905   4.729  15.155  0.00  0.00    +0.000 N 
ATOM     23  H   UNL     1       6.462   3.917  15.351  0.00  0.00    +0.000 HD
BRANCH  22  24
ATOM     24  C   UNL     1       5.030   4.641  13.976  0.00  0.00    +0.000 C 
BRANCH  24  25
ATOM     25  C   UNL     1       5.671   3.786  12.900  0.00  0.00    +0.000 A 
ATOM     26  C   UNL     1       4.929   2.830  12.180  0.00  0.00    +0.000 A 
ATOM     27  C   UNL     1       5.555   1.934  11.303  0.00  0.00    +0.000 A 
ATOM     28  C   UNL     1       6.921   2.049  11.063  0.00  0.00    +0.000 A 
ATOM     29  C   UNL     1       7.660   3.029  11.729  0.00  0.00    +0.000 A 
ATOM     30  C   UNL     1       7.047   3.883  12.651  0.00  0.00    +0.000 A 
ENDBRANCH  24  25
ENDBRANCH  22  24
ENDBRANCH   1  20
BRANCH   1  31
ATOM     31  C   UNL     1       6.667   4.973  18.604  0.00  0.00    +0.000 C 
BRANCH  31  32
ATOM     32  C   UNL     1       5.018   4.344  19.063  0.00  0.00    +0.000 A 
ATOM     33  C   UNL     1       4.247   5.478  19.015  0.00  0.00    +0.000 A 
ATOM     34  N   UNL     1       3.608   5.022  20.127  0.00  0.00    +0.000 N 
ATOM     35  C   UNL     1       2.777   4.049  19.664  0.00  0.00    +0.000 A 
ATOM     36  C   UNL     1       1.423   3.985  20.227  0.00  0.00    +0.000 A 
ATOM     37  C   UNL     1       0.427   3.160  19.816  0.00  0.00    +0.000 A 
ATOM     38  C   UNL     1       0.842   2.438  18.752  0.00  0.00    +0.000 A 
ATOM     39  C   UNL     1       2.288   2.538  18.278  0.00  0.00    +0.000 A 
ATOM     40  C   UNL     1       3.654   3.275  18.633  0.00  0.00    +0.000 A 
ATOM     41  H   UNL     1       4.066   4.722  20.970  0.00  0.00    +0.000 HD
ENDBRANCH  31  32
ENDBRANCH   1  31
TORSDOF 10
ENDMDL
MODEL 3
REMARK VINA RESULT:      -9.8      1.162      1.499
REMARK  Name = 
REMARK  10 active torsions:
REMARK  status: ('A' for Active; 'I' for Inactive)
REMARK    1  A    between atoms: C_2  and  C_3
REMARK    2  A    between atoms: C_4  and  C_5
REMARK    3  A    between atoms: C_8  and  C_9
REMARK    4  A    between atoms: N_11  and  O_12
REMARK    5  A    between atoms: N_15  and  C_16
REMARK    6  A    between atoms: C_16  and  C_17
REMARK    7  A    between atoms: C_16  and  C_27
REMARK    8  A    between atoms: C_17  and  C_18
REMARK    9  A    between atoms: N_29  and  C_30
REMARK   10  A    between atoms: C_30  and  C_31
REMARK                            x       y       z     vdW  Elec       q    Type
REMARK                         _______ _______ _______ _____ _____    ______ ____
ROOT
ATOM      1  C   UNL     1       7.495   5.356  16.549  0.00  0.00    +0.000 C 
ENDROOT
BRANCH   1   4
ATOM      2  O   UNL     1       8.087   6.821  19.093  0.00  0.00    +0.000 OA
ATOM      3  C   UNL     1       7.978   7.382  18.011  0.00  0.00    +0.000 C 
ATOM      4  N   UNL     1       7.727   6.808  16.852  0.00  0.00    +0.000 N 
ATOM      5  H   UNL     1       7.951   7.396  16.049  0.00  0.00    +0.000 HD
BRANCH   3   6
ATOM      6  C   UNL     1       8.147   8.872  17.941  0.00  0.00    +0.000 C 
ATOM      7  C   UNL     1       9.053   9.596  18.621  0.00  0.00    +0.000 C 
BRANCH   7   8
ATOM      8  C   UNL     1       9.206  11.053  18.392  0.00  0.00    +0.000 A 
ATOM      9  C   UNL     1      10.410  11.732  18.650  0.00  0.00    +0.000 A 
ATOM     10  C   UNL     1      10.536  13.124  18.467  0.00  0.00    +0.000 A 
ATOM     11  C   UNL     1       9.477  13.869  17.936  0.00  0.00    +0.000 A 
ATOM     12  C   UNL     1       8.290  13.194  17.631  0.00  0.00    +0.000 A 
ATOM     13  C   UNL     1       8.162  11.807  17.842  0.00  0.00    +0.000 A 
BRANCH  11  14
ATOM     14  C   UNL     1       9.658  15.340  17.670  0.00  0.00    +0.000 C 
ATOM     15  O   UNL     1       8.693  16.096  17.576  0.00  0.00    +0.000 OA
ATOM     16  N   UNL     1      10.948  15.804  17.548  0.00  0.00    +0.000 N 
ATOM     17  H   UNL     1      11.793  15.263  17.665  0.00  0.00    +0.000 HD
BRANCH  16  18
ATOM     18  O   UNL     1      11.141  17.182  17.312  0.00  0.00    +0.000 OA
ATOM     19  H   UNL     1      10.230  17.539  17.364  0.00  0.00    +0.000 HD
ENDBRANCH  16  18
ENDBRANCH  11  14
ENDBRANCH   7   8
ENDBRANCH   3   6
ENDBRANCH   1   4
BRANCH   1  20
ATOM     20  C   UNL     1       6.858   5.388  15.042  0.00  0.00    +0.000 C 
ATOM     21  O   UNL     1       5.692   5.759  14.833  0.00  0.00    +0.000 OA
ATOM     22  N   UNL     1       7.671   5.049  13.984  0.00  0.00    +0.000 N 
ATOM     23  H   UNL     1       8.638   4.841  14.158  0.00  0.00    +0.000 HD
BRANCH  22  24
ATOM     24  C   UNL     1       7.270   5.114  12.570  0.00  0.00    +0.000 C 
BRANCH  24  25
ATOM     25  C   UNL     1       6.753   3.768  12.101  0.00  0.00    +0.000 A 
ATOM     26  C   UNL     1       7.623   2.775  11.613  0.00  0.00    +0.000 A 
ATOM     27  C   UNL     1       7.130   1.598  11.033  0.00  0.00    +0.000 A 
ATOM     28  C   UNL     1       5.759   1.360  11.023  0.00  0.00    +0.000 A 
ATOM     29  C   UNL     1       4.887   2.312  11.553  0.00  0.00    +0.000 A 
ATOM     30  C   UNL     1       5.374   3.515  12.076  0.00  0.00    +0.000 A 
ENDBRANCH  24  25
ENDBRANCH  22  24
ENDBRANCH   1  20
BRANCH   1  31
ATOM     31  C   UNL     1       6.681   4.274  17.726  0.00  0.00    +0.000 C 
BRANCH  31  32
ATOM     32  C   UNL     1       4.940   4.243  18.265  0.00  0.00    +0.000 A 
ATOM     33  C   UNL     1       4.912   3.162  19.109  0.00  0.00    +0.000 A 
ATOM     34  N   UNL     1       3.693   2.857  18.586  0.00  0.00    +0.000 N 
ATOM     35  C   UNL     1       2.844   3.743  19.173  0.00  0.00    +0.000 A 
ATOM     36  C   UNL     1       1.534   3.243  19.611  0.00  0.00    +0.000 A 
ATOM     37  C   UNL     1       0.605   3.946  20.306  0.00  0.00    +0.000 A 
ATOM     38  C   UNL     1       1.088   5.171  20.604  0.00  0.00    +0.000 A 
ATOM     39  C   UNL     1       2.440   5.614  20.055  0.00  0.00    +0.000 A 
ATOM     40  C   UNL     1       3.632   5.087  19.140  0.00  0.00    +0.000 A 
ATOM     41  H   UNL     1       3.493   2.774  17.604  0.00  0.00    +0.000 HD
ENDBRANCH  31  32
ENDBRANCH   1  31
TORSDOF 10
ENDMDL
MODEL 4
REMARK VINA RESULT:      -9.7      8.042     12.486
REMARK  Name = 
REMARK  10 active torsions:
REMARK  status: ('A' for Active; 'I' for Inactive)
REMARK    1  A    between atoms: C_2  and  C_3
REMARK    2  A    between atoms: C_4  and  C_5
REMARK    3  A    between atoms: C_8  and  C_9
REMARK    4  A    between atoms: N_11  and  O_12
REMARK    5  A    between atoms: N_15  and  C_16
REMARK    6  A    between atoms: C_16  and  C_17
REMARK    7  A    between atoms: C_16  and  C_27
REMARK    8  A    between atoms: C_17  and  C_18
REMARK    9  A    between atoms: N_29  and  C_30
REMARK   10  A    between atoms: C_30  and  C_31
REMARK                            x       y       z     vdW  Elec       q    Type
REMARK                         _______ _______ _______ _____ _____    ______ ____
ROOT
ATOM      1  C   UNL     1      -0.669  12.481  21.961  0.00  0.00    +0.000 C 
ENDROOT
BRANCH   1   4
ATOM      2  O   UNL     1      -0.401  10.063  23.707  0.00  0.00    +0.000 OA
ATOM      3  C   UNL     1       0.006  10.100  22.554  0.00  0.00    +0.000 C 
ATOM      4  N   UNL     1      -0.081  11.119  21.724  0.00  0.00    +0.000 N 
ATOM      5  H   UNL     1       0.058  10.863  20.747  0.00  0.00    +0.000 HD
BRANCH   3   6
ATOM      6  C   UNL     1       0.671   8.885  21.975  0.00  0.00    +0.000 C 
ATOM      7  C   UNL     1       0.995   8.704  20.683  0.00  0.00    +0.000 C 
BRANCH   7   8
ATOM      8  C   UNL     1       1.753   7.510  20.237  0.00  0.00    +0.000 A 
ATOM      9  C   UNL     1       1.703   6.287  20.930  0.00  0.00    +0.000 A 
ATOM     10  C   UNL     1       2.456   5.168  20.524  0.00  0.00    +0.000 A 
ATOM     11  C   UNL     1       3.224   5.215  19.354  0.00  0.00    +0.000 A 
ATOM     12  C   UNL     1       3.243   6.413  18.631  0.00  0.00    +0.000 A 
ATOM     13  C   UNL     1       2.509   7.537  19.059  0.00  0.00    +0.000 A 
BRANCH  11  14
ATOM     14  C   UNL     1       3.956   3.984  18.890  0.00  0.00    +0.000 C 
ATOM     15  O   UNL     1       5.119   3.768  19.224  0.00  0.00    +0.000 OA
ATOM     16  N   UNL     1       3.264   3.105  18.088  0.00  0.00    +0.000 N 
ATOM     17  H   UNL     1       2.295   3.179  17.813  0.00  0.00    +0.000 HD
BRANCH  16  18
ATOM     18  O   UNL     1       3.927   1.937  17.653  0.00  0.00    +0.000 OA
ATOM     19  H   UNL     1       4.812   2.273  17.399  0.00  0.00    +0.000 HD
ENDBRANCH  16  18
ENDBRANCH  11  14
ENDBRANCH   7   8
ENDBRANCH   3   6
ENDBRANCH   1   4
BRANCH   1  20
ATOM     20  C   UNL     1      -2.157  12.365  21.293  0.00  0.00    +0.000 C 
ATOM     21  O   UNL     1      -3.188  12.579  21.949  0.00  0.00    +0.000 OA
ATOM     22  N   UNL     1      -2.246  12.078  19.948  0.00  0.00    +0.000 N 
ATOM     23  H   UNL     1      -1.403  11.999  19.409  0.00  0.00    +0.000 HD
BRANCH  22  24
ATOM     24  C   UNL     1      -3.504  12.028  19.188  0.00  0.00    +0.000 C 
BRANCH  24  25
ATOM     25  C   UNL     1      -3.327  11.219  17.918  0.00  0.00    +0.000 A 
ATOM     26  C   UNL     1      -2.293  10.272  17.786  0.00  0.00    +0.000 A 
ATOM     27  C   UNL     1      -2.035   9.644  16.561  0.00  0.00    +0.000 A 
ATOM     28  C   UNL     1      -2.872   9.885  15.475  0.00  0.00    +0.000 A 
ATOM     29  C   UNL     1      -3.934  10.781  15.607  0.00  0.00    +0.000 A 
ATOM     30  C   UNL     1      -4.156  11.455  16.812  0.00  0.00    +0.000 A 
ENDBRANCH  24  25
ENDBRANCH  22  24
ENDBRANCH   1  20
BRANCH   1  31
ATOM     31  C   UNL     1       0.251  13.975  21.583  0.00  0.00    +0.000 C 
BRANCH  31  32
ATOM     32  C   UNL     1       0.132  15.078  20.137  0.00  0.00    +0.000 A 
ATOM     33  C   UNL     1      -0.565  16.147  20.638  0.00  0.00    +0.000 A 
ATOM     34  N   UNL     1      -1.231  16.197  19.452  0.00  0.00    +0.000 N 
ATOM     35  C   UNL     1      -0.344  16.768  18.592  0.00  0.00    +0.000 A 
ATOM     36  C   UNL     1      -0.860  17.761  17.641  0.00  0.00    +0.000 A 
ATOM     37  C   UNL     1      -0.116  18.508  16.787  0.00  0.00    +0.000 A 
ATOM     38  C   UNL     1       1.196  18.256  16.984  0.00  0.00    +0.000 A 
ATOM     39  C   UNL     1       1.627  17.164  17.958  0.00  0.00    +0.000 A 
ATOM     40  C   UNL     1       1.009  16.078  18.945  0.00  0.00    +0.000 A 
ATOM     41  H   UNL     1      -1.690  15.416  19.017  0.00  0.00    +0.000 HD
ENDBRANCH  31  32
ENDBRANCH   1  31
TORSDOF 10
ENDMDL
MODEL 5
REMARK VINA RESULT:      -9.5      1.594      2.052
REMARK  Name = 
REMARK  10 active torsions:
REMARK  status: ('A' for Active; 'I' for Inactive)
REMARK    1  A    between atoms: C_2  and  C_3
REMARK    2  A    between atoms: C_4  and  C_5
REMARK    3  A    between atoms: C_8  and  C_9
REMARK    4  A    between atoms: N_11  and  O_12
REMARK    5  A    between atoms: N_15  and  C_16
REMARK    6  A    between atoms: C_16  and  C_17
REMARK    7  A    between atoms: C_16  and  C_27
REMARK    8  A    between atoms: C_17  and  C_18
REMARK    9  A    between atoms: N_29  and  C_30
REMARK   10  A    between atoms: C_30  and  C_31
REMARK                            x       y       z     vdW  Elec       q    Type
REMARK                         _______ _______ _______ _____ _____    ______ ____
ROOT
ATOM      1  C   UNL     1       7.159   5.738  16.741  0.00  0.00    +0.000 C 
ENDROOT
BRANCH   1   4
ATOM      2  O   UNL     1       8.583   7.148  18.967  0.00  0.00    +0.000 OA
ATOM      3  C   UNL     1       8.001   7.740  18.068  0.00  0.00    +0.000 C 
ATOM      4  N   UNL     1       7.361   7.193  17.055  0.00  0.00    +0.000 N 
ATOM      5  H   UNL     1       7.191   7.838  16.283  0.00  0.00    +0.000 HD
BRANCH   3   6
ATOM      6  C   UNL     1       7.992   9.241  18.069  0.00  0.00    +0.000 C 
ATOM      7  C   UNL     1       9.026  10.035  18.396  0.00  0.00    +0.000 C 
BRANCH   7   8
ATOM      8  C   UNL     1       8.942  11.509  18.254  0.00  0.00    +0.000 A 
ATOM      9  C   UNL     1       7.931  12.135  17.502  0.00  0.00    +0.000 A 
ATOM     10  C   UNL     1       7.880  13.534  17.339  0.00  0.00    +0.000 A 
ATOM     11  C   UNL     1       8.799  14.360  17.998  0.00  0.00    +0.000 A 
ATOM     12  C   UNL     1       9.780  13.749  18.787  0.00  0.00    +0.000 A 
ATOM     13  C   UNL     1       9.842  12.348  18.923  0.00  0.00    +0.000 A 
BRANCH  11  14
ATOM     14  C   UNL     1       8.678  15.856  17.879  0.00  0.00    +0.000 C 
ATOM     15  O   UNL     1       9.567  16.530  17.364  0.00  0.00    +0.000 OA
ATOM     16  N   UNL     1       7.524  16.435  18.359  0.00  0.00    +0.000 N 
ATOM     17  H   UNL     1       6.726  15.951  18.745  0.00  0.00    +0.000 HD
BRANCH  16  18
ATOM     18  O   UNL     1       7.385  17.835  18.244  0.00  0.00    +0.000 OA
ATOM     19  H   UNL     1       7.193  18.109  19.165  0.00  0.00    +0.000 HD
ENDBRANCH  16  18
ENDBRANCH  11  14
ENDBRANCH   7   8
ENDBRANCH   3   6
ENDBRANCH   1   4
BRANCH   1  20
ATOM     20  C   UNL     1       6.158   5.773  15.448  0.00  0.00    +0.000 C 
ATOM     21  O   UNL     1       5.337   6.688  15.281  0.00  0.00    +0.000 OA
ATOM     22  N   UNL     1       6.285   4.782  14.500  0.00  0.00    +0.000 N 
ATOM     23  H   UNL     1       7.015   4.100  14.601  0.00  0.00    +0.000 HD
BRANCH  22  24
ATOM     24  C   UNL     1       5.520   4.727  13.245  0.00  0.00    +0.000 C 
BRANCH  24  25
ATOM     25  C   UNL     1       5.927   3.517  12.426  0.00  0.00    +0.000 A 
ATOM     26  C   UNL     1       7.269   3.284  12.073  0.00  0.00    +0.000 A 
ATOM     27  C   UNL     1       7.620   2.257  11.186  0.00  0.00    +0.000 A 
ATOM     28  C   UNL     1       6.638   1.389  10.718  0.00  0.00    +0.000 A 
ATOM     29  C   UNL     1       5.310   1.574  11.104  0.00  0.00    +0.000 A 
ATOM     30  C   UNL     1       4.950   2.636  11.940  0.00  0.00    +0.000 A 
ENDBRANCH  24  25
ENDBRANCH  22  24
ENDBRANCH   1  20
BRANCH   1  31
ATOM     31  C   UNL     1       6.749   4.553  18.025  0.00  0.00    +0.000 C 
BRANCH  31  32
ATOM     32  C   UNL     1       5.126   4.125  18.735  0.00  0.00    +0.000 A 
ATOM     33  C   UNL     1       4.500   5.344  18.796  0.00  0.00    +0.000 A 
ATOM     34  N   UNL     1       3.988   4.958  19.997  0.00  0.00    +0.000 N 
ATOM     35  C   UNL     1       2.984   4.098  19.674  0.00  0.00    +0.000 A 
ATOM     36  C   UNL     1       1.733   4.194  20.438  0.00  0.00    +0.000 A 
ATOM     37  C   UNL     1       0.594   3.500  20.191  0.00  0.00    +0.000 A 
ATOM     38  C   UNL     1       0.751   2.744  19.083  0.00  0.00    +0.000 A 
ATOM     39  C   UNL     1       2.108   2.672  18.393  0.00  0.00    +0.000 A 
ATOM     40  C   UNL     1       3.592   3.234  18.528  0.00  0.00    +0.000 A 
ATOM     41  H   UNL     1       4.529   4.596  20.763  0.00  0.00    +0.000 HD
ENDBRANCH  31  32
ENDBRANCH   1  31
TORSDOF 10
ENDMDL
MODEL 6
REMARK VINA RESULT:      -9.5      1.247      1.562
REMARK  Name = 
REMARK  10 active torsions:
REMARK  status: ('A' for Active; 'I' for Inactive)
REMARK    1  A    between atoms: C_2  and  C_3
REMARK    2  A    between atoms: C_4  and  C_5
REMARK    3  A    between atoms: C_8  and  C_9
REMARK    4  A    between atoms: N_11  and  O_12
REMARK    5  A    between atoms: N_15  and  C_16
REMARK    6  A    between atoms: C_16  and  C_17
REMARK    7  A    between atoms: C_16  and  C_27
REMARK    8  A    between atoms: C_17  and  C_18
REMARK    9  A    between atoms: N_29  and  C_30
REMARK   10  A    between atoms: C_30  and  C_31
REMARK                            x       y       z     vdW  Elec       q    Type
REMARK                         _______ _______ _______ _____ _____    ______ ____
ROOT
ATOM      1  C   UNL     1       6.758   5.791  16.225  0.00  0.00    +0.000 C 
ENDROOT
BRANCH   1   4
ATOM      2  O   UNL     1       7.967   6.662  18.822  0.00  0.00    +0.000 OA
ATOM      3  C   UNL     1       7.820   7.416  17.870  0.00  0.00    +0.000 C 
ATOM      4  N   UNL     1       7.305   7.107  16.697  0.00  0.00    +0.000 N 
ATOM      5  H   UNL     1       7.525   7.782  15.965  0.00  0.00    +0.000 HD
BRANCH   3   6
ATOM      6  C   UNL     1       8.261   8.846  17.996  0.00  0.00    +0.000 C 
ATOM      7  C   UNL     1       8.966   9.367  19.015  0.00  0.00    +0.000 C 
BRANCH   7   8
ATOM      8  C   UNL     1       9.445  10.770  18.984  0.00  0.00    +0.000 A 
ATOM      9  C   UNL     1       9.199  11.624  17.894  0.00  0.00    +0.000 A 
ATOM     10  C   UNL     1       9.691  12.944  17.854  0.00  0.00    +0.000 A 
ATOM     11  C   UNL     1      10.380  13.479  18.949  0.00  0.00    +0.000 A 
ATOM     12  C   UNL     1      10.589  12.652  20.059  0.00  0.00    +0.000 A 
ATOM     13  C   UNL     1      10.118  11.324  20.080  0.00  0.00    +0.000 A 
BRANCH  11  14
ATOM     14  C   UNL     1      10.825  14.916  18.922  0.00  0.00    +0.000 C 
ATOM     15  O   UNL     1      12.008  15.222  19.062  0.00  0.00    +0.000 OA
ATOM     16  N   UNL     1       9.855  15.873  18.722  0.00  0.00    +0.000 N 
ATOM     17  H   UNL     1       8.875  15.705  18.545  0.00  0.00    +0.000 HD
BRANCH  16  18
ATOM     18  O   UNL     1      10.254  17.226  18.679  0.00  0.00    +0.000 OA
ATOM     19  H   UNL     1      10.762  17.328  19.510  0.00  0.00    +0.000 HD
ENDBRANCH  16  18
ENDBRANCH  11  14
ENDBRANCH   7   8
ENDBRANCH   3   6
ENDBRANCH   1   4
BRANCH   1  20
ATOM     20  C   UNL     1       7.445   5.611  14.751  0.00  0.00    +0.000 C 
ATOM     21  O   UNL     1       8.637   5.886  14.547  0.00  0.00    +0.000 OA
ATOM     22  N   UNL     1       6.678   5.083  13.735  0.00  0.00    +0.000 N 
ATOM     23  H   UNL     1       5.743   4.779  13.938  0.00  0.00    +0.000 HD
BRANCH  22  24
ATOM     24  C   UNL     1       7.177   4.781  12.386  0.00  0.00    +0.000 C 
BRANCH  24  25
ATOM     25  C   UNL     1       6.676   3.426  11.924  0.00  0.00    +0.000 A 
ATOM     26  C   UNL     1       7.559   2.434  11.457  0.00  0.00    +0.000 A 
ATOM     27  C   UNL     1       7.083   1.248  10.884  0.00  0.00    +0.000 A 
ATOM     28  C   UNL     1       5.714   0.998  10.860  0.00  0.00    +0.000 A 
ATOM     29  C   UNL     1       4.828   1.949  11.369  0.00  0.00    +0.000 A 
ATOM     30  C   UNL     1       5.300   3.161  11.885  0.00  0.00    +0.000 A 
ENDBRANCH  24  25
ENDBRANCH  22  24
ENDBRANCH   1  20
BRANCH   1  31
ATOM     31  C   UNL     1       5.007   5.415  16.330  0.00  0.00    +0.000 C 
BRANCH  31  32
ATOM     32  C   UNL     1       4.072   4.595  17.663  0.00  0.00    +0.000 A 
ATOM     33  C   UNL     1       3.834   5.628  18.533  0.00  0.00    +0.000 A 
ATOM     34  N   UNL     1       4.070   4.752  19.548  0.00  0.00    +0.000 N 
ATOM     35  C   UNL     1       2.934   4.006  19.619  0.00  0.00    +0.000 A 
ATOM     36  C   UNL     1       2.418   3.677  20.954  0.00  0.00    +0.000 A 
ATOM     37  C   UNL     1       1.251   3.039  21.222  0.00  0.00    +0.000 A 
ATOM     38  C   UNL     1       0.584   2.804  20.071  0.00  0.00    +0.000 A 
ATOM     39  C   UNL     1       1.233   3.135  18.732  0.00  0.00    +0.000 A 
ATOM     40  C   UNL     1       2.582   3.727  18.127  0.00  0.00    +0.000 A 
ATOM     41  H   UNL     1       4.883   4.166  19.624  0.00  0.00    +0.000 HD
ENDBRANCH  31  32
ENDBRANCH   1  31
TORSDOF 10
ENDMDL
MODEL 7
REMARK VINA RESULT:      -9.4      1.380      1.899
REMARK  Name = 
REMARK  10 active torsions:
REMARK  status: ('A' for Active; 'I' for Inactive)
REMARK    1  A    between atoms: C_2  and  C_3
REMARK    2  A    between atoms: C_4  and  C_5
REMARK    3  A    between atoms: C_8  and  C_9
REMARK    4  A    between atoms: N_11  and  O_12
REMARK    5  A    between atoms: N_15  and  C_16
REMARK    6  A    between atoms: C_16  and  C_17
REMARK    7  A    between atoms: C_16  and  C_27
REMARK    8  A    between atoms: C_17  and  C_18
REMARK    9  A    between atoms: N_29  and  C_30
REMARK   10  A    between atoms: C_30  and  C_31
REMARK                            x       y       z     vdW  Elec       q    Type
REMARK                         _______ _______ _______ _____ _____    ______ ____
ROOT
ATOM      1  C   UNL     1       6.884   5.664  16.127  0.00  0.00    +0.000 C 
ENDROOT
BRANCH   1   4
ATOM      2  O   UNL     1       7.759   6.582  18.840  0.00  0.00    +0.000 OA
ATOM      3  C   UNL     1       7.776   7.306  17.854  0.00  0.00    +0.000 C 
ATOM      4  N   UNL     1       7.416   6.975  16.631  0.00  0.00    +0.000 N 
ATOM      5  H   UNL     1       7.763   7.615  15.916  0.00  0.00    +0.000 HD
BRANCH   3   6
ATOM      6  C   UNL     1       8.256   8.721  17.997  0.00  0.00    +0.000 C 
ATOM      7  C   UNL     1       8.940   9.221  19.041  0.00  0.00    +0.000 C 
BRANCH   7   8
ATOM      8  C   UNL     1       9.463  10.609  19.028  0.00  0.00    +0.000 A 
ATOM      9  C   UNL     1       9.508  11.405  20.186  0.00  0.00    +0.000 A 
ATOM     10  C   UNL     1       9.969  12.736  20.158  0.00  0.00    +0.000 A 
ATOM     11  C   UNL     1      10.481  13.287  18.978  0.00  0.00    +0.000 A 
ATOM     12  C   UNL     1      10.486  12.486  17.830  0.00  0.00    +0.000 A 
ATOM     13  C   UNL     1       9.997  11.165  17.859  0.00  0.00    +0.000 A 
BRANCH  11  14
ATOM     14  C   UNL     1      11.047  14.682  18.987  0.00  0.00    +0.000 C 
ATOM     15  O   UNL     1      11.035  15.383  17.977  0.00  0.00    +0.000 OA
ATOM     16  N   UNL     1      11.565  15.144  20.176  0.00  0.00    +0.000 N 
ATOM     17  H   UNL     1      11.565  14.656  21.060  0.00  0.00    +0.000 HD
BRANCH  16  18
ATOM     18  O   UNL     1      12.087  16.455  20.210  0.00  0.00    +0.000 OA
ATOM     19  H   UNL     1      11.961  16.713  21.146  0.00  0.00    +0.000 HD
ENDBRANCH  16  18
ENDBRANCH  11  14
ENDBRANCH   7   8
ENDBRANCH   3   6
ENDBRANCH   1   4
BRANCH   1  20
ATOM     20  C   UNL     1       7.552   5.541  14.638  0.00  0.00    +0.000 C 
ATOM     21  O   UNL     1       8.700   5.946  14.401  0.00  0.00    +0.000 OA
ATOM     22  N   UNL     1       6.827   4.912  13.650  0.00  0.00    +0.000 N 
ATOM     23  H   UNL     1       5.938   4.506  13.879  0.00  0.00    +0.000 HD
BRANCH  22  24
ATOM     24  C   UNL     1       7.325   4.647  12.292  0.00  0.00    +0.000 C 
BRANCH  24  25
ATOM     25  C   UNL     1       6.710   3.377  11.738  0.00  0.00    +0.000 A 
ATOM     26  C   UNL     1       5.315   3.208  11.658  0.00  0.00    +0.000 A 
ATOM     27  C   UNL     1       4.751   1.977  11.297  0.00  0.00    +0.000 A 
ATOM     28  C   UNL     1       5.581   0.927  10.917  0.00  0.00    +0.000 A 
ATOM     29  C   UNL     1       6.966   1.097  10.938  0.00  0.00    +0.000 A 
ATOM     30  C   UNL     1       7.531   2.306  11.358  0.00  0.00    +0.000 A 
ENDBRANCH  24  25
ENDBRANCH  22  24
ENDBRANCH   1  20
BRANCH   1  31
ATOM     31  C   UNL     1       5.141   5.255  16.245  0.00  0.00    +0.000 C 
BRANCH  31  32
ATOM     32  C   UNL     1       4.204   4.551  17.640  0.00  0.00    +0.000 A 
ATOM     33  C   UNL     1       3.802   5.672  18.321  0.00  0.00    +0.000 A 
ATOM     34  N   UNL     1       4.055   4.993  19.474  0.00  0.00    +0.000 N 
ATOM     35  C   UNL     1       3.000   4.144  19.604  0.00  0.00    +0.000 A 
ATOM     36  C   UNL     1       2.428   3.969  20.945  0.00  0.00    +0.000 A 
ATOM     37  C   UNL     1       1.317   3.253  21.250  0.00  0.00    +0.000 A 
ATOM     38  C   UNL     1       0.759   2.772  20.118  0.00  0.00    +0.000 A 
ATOM     39  C   UNL     1       1.461   2.963  18.779  0.00  0.00    +0.000 A 
ATOM     40  C   UNL     1       2.782   3.603  18.159  0.00  0.00    +0.000 A 
ATOM     41  H   UNL     1       4.916   4.520  19.685  0.00  0.00    +0.000 HD
ENDBRANCH  31  32
ENDBRANCH   1  31
TORSDOF 10
ENDMDL
MODEL 8
REMARK VINA RESULT:      -9.4      8.488     11.864
REMARK  Name = 
REMARK  10 active torsions:
REMARK  status: ('A' for Active; 'I' for Inactive)
REMARK    1  A    between atoms: C_2  and  C_3
REMARK    2  A    between atoms: C_4  and  C_5
REMARK    3  A    between atoms: C_8  and  C_9
REMARK    4  A    between atoms: N_11  and  O_12
REMARK    5  A    between atoms: N_15  and  C_16
REMARK    6  A    between atoms: C_16  and  C_17
REMARK    7  A    between atoms: C_16  and  C_27
REMARK    8  A    between atoms: C_17  and  C_18
REMARK    9  A    between atoms: N_29  and  C_30
REMARK   10  A    between atoms: C_30  and  C_31
REMARK                            x       y       z     vdW  Elec       q    Type
REMARK                         _______ _______ _______ _____ _____    ______ ____
ROOT
ATOM      1  C   UNL     1      -0.446  10.060  20.169  0.00  0.00    +0.000 C 
ENDROOT
BRANCH   1   4
ATOM      2  O   UNL     1       1.342   7.841  21.089  0.00  0.00    +0.000 OA
ATOM      3  C   UNL     1       1.392   8.313  19.961  0.00  0.00    +0.000 C 
ATOM      4  N   UNL     1       0.638   9.280  19.481  0.00  0.00    +0.000 N 
ATOM      5  H   UNL     1       0.641   9.334  18.463  0.00  0.00    +0.000 HD
BRANCH   3   6
ATOM      6  C   UNL     1       2.391   7.764  18.984  0.00  0.00    +0.000 C 
ATOM      7  C   UNL     1       2.738   6.472  18.854  0.00  0.00    +0.000 C 
BRANCH   7   8
ATOM      8  C   UNL     1       3.655   6.024  17.777  0.00  0.00    +0.000 A 
ATOM      9  C   UNL     1       4.402   6.929  17.002  0.00  0.00    +0.000 A 
ATOM     10  C   UNL     1       5.242   6.499  15.955  0.00  0.00    +0.000 A 
ATOM     11  C   UNL     1       5.423   5.134  15.705  0.00  0.00    +0.000 A 
ATOM     12  C   UNL     1       4.720   4.223  16.502  0.00  0.00    +0.000 A 
ATOM     13  C   UNL     1       3.861   4.661  17.530  0.00  0.00    +0.000 A 
BRANCH  11  14
ATOM     14  C   UNL     1       6.387   4.691  14.637  0.00  0.00    +0.000 C 
ATOM     15  O   UNL     1       7.496   5.208  14.522  0.00  0.00    +0.000 OA
ATOM     16  N   UNL     1       5.980   3.674  13.803  0.00  0.00    +0.000 N 
ATOM     17  H   UNL     1       5.112   3.161  13.862  0.00  0.00    +0.000 HD
BRANCH  16  18
ATOM     18  O   UNL     1       6.875   3.234  12.804  0.00  0.00    +0.000 OA
ATOM     19  H   UNL     1       7.249   2.417  13.194  0.00  0.00    +0.000 HD
ENDBRANCH  16  18
ENDBRANCH  11  14
ENDBRANCH   7   8
ENDBRANCH   3   6
ENDBRANCH   1   4
BRANCH   1  20
ATOM     20  C   UNL     1      -1.108  10.929  18.951  0.00  0.00    +0.000 C 
ATOM     21  O   UNL     1      -0.435  11.716  18.268  0.00  0.00    +0.000 OA
ATOM     22  N   UNL     1      -2.437  10.723  18.652  0.00  0.00    +0.000 N 
ATOM     23  H   UNL     1      -2.946  10.017  19.152  0.00  0.00    +0.000 HD
BRANCH  22  24
ATOM     24  C   UNL     1      -3.148  11.361  17.534  0.00  0.00    +0.000 C 
BRANCH  24  25
ATOM     25  C   UNL     1      -4.506  11.865  17.985  0.00  0.00    +0.000 A 
ATOM     26  C   UNL     1      -4.816  12.027  19.348  0.00  0.00    +0.000 A 
ATOM     27  C   UNL     1      -6.116  12.338  19.766  0.00  0.00    +0.000 A 
ATOM     28  C   UNL     1      -7.102  12.587  18.816  0.00  0.00    +0.000 A 
ATOM     29  C   UNL     1      -6.795  12.483  17.458  0.00  0.00    +0.000 A 
ATOM     30  C   UNL     1      -5.513  12.112  17.041  0.00  0.00    +0.000 A 
ENDBRANCH  24  25
ENDBRANCH  22  24
ENDBRANCH   1  20
BRANCH   1  31
ATOM     31  C   UNL     1      -0.133  10.953  21.694  0.00  0.00    +0.000 C 
BRANCH  31  32
ATOM     32  C   UNL     1      -1.209  12.104  22.609  0.00  0.00    +0.000 A 
ATOM     33  C   UNL     1      -0.799  13.326  22.141  0.00  0.00    +0.000 A 
ATOM     34  N   UNL     1      -0.936  13.795  23.411  0.00  0.00    +0.000 N 
ATOM     35  C   UNL     1      -2.278  13.948  23.572  0.00  0.00    +0.000 A 
ATOM     36  C   UNL     1      -2.748  15.149  24.275  0.00  0.00    +0.000 A 
ATOM     37  C   UNL     1      -4.042  15.523  24.435  0.00  0.00    +0.000 A 
ATOM     38  C   UNL     1      -4.851  14.658  23.787  0.00  0.00    +0.000 A 
ATOM     39  C   UNL     1      -4.268  13.410  23.133  0.00  0.00    +0.000 A 
ATOM     40  C   UNL     1      -2.877  12.667  22.915  0.00  0.00    +0.000 A 
ATOM     41  H   UNL     1      -0.529  13.372  24.227  0.00  0.00    +0.000 HD
ENDBRANCH  31  32
ENDBRANCH   1  31
TORSDOF 10
ENDMDL
MODEL 9
REMARK VINA RESULT:      -9.4      8.720     12.799
REMARK  Name = 
REMARK  10 active torsions:
REMARK  status: ('A' for Active; 'I' for Inactive)
REMARK    1  A    between atoms: C_2  and  C_3
REMARK    2  A    between atoms: C_4  and  C_5
REMARK    3  A    between atoms: C_8  and  C_9
REMARK    4  A    between atoms: N_11  and  O_12
REMARK    5  A    between atoms: N_15  and  C_16
REMARK    6  A    between atoms: C_16  and  C_17
REMARK    7  A    between atoms: C_16  and  C_27
REMARK    8  A    between atoms: C_17  and  C_18
REMARK    9  A    between atoms: N_29  and  C_30
REMARK   10  A    between atoms: C_30  and  C_31
REMARK                            x       y       z     vdW  Elec       q    Type
REMARK                         _______ _______ _______ _____ _____    ______ ____
ROOT
ATOM      1  C   UNL     1      -0.361  10.865  18.531  0.00  0.00    +0.000 C 
ENDROOT
BRANCH   1   4
ATOM      2  O   UNL     1       2.340  10.293  17.372  0.00  0.00    +0.000 OA
ATOM      3  C   UNL     1       1.749   9.508  18.101  0.00  0.00    +0.000 C 
ATOM      4  N   UNL     1       0.567   9.690  18.653  0.00  0.00    +0.000 N 
ATOM      5  H   UNL     1       0.379   9.059  19.432  0.00  0.00    +0.000 HD
BRANCH   3   6
ATOM      6  C   UNL     1       2.394   8.196  18.437  0.00  0.00    +0.000 C 
ATOM      7  C   UNL     1       2.036   7.375  19.440  0.00  0.00    +0.000 C 
BRANCH   7   8
ATOM      8  C   UNL     1       2.672   6.046  19.614  0.00  0.00    +0.000 A 
ATOM      9  C   UNL     1       3.933   5.740  19.072  0.00  0.00    +0.000 A 
ATOM     10  C   UNL     1       4.513   4.463  19.208  0.00  0.00    +0.000 A 
ATOM     11  C   UNL     1       3.880   3.472  19.968  0.00  0.00    +0.000 A 
ATOM     12  C   UNL     1       2.647   3.783  20.552  0.00  0.00    +0.000 A 
ATOM     13  C   UNL     1       2.059   5.053  20.389  0.00  0.00    +0.000 A 
BRANCH  11  14
ATOM     14  C   UNL     1       4.554   2.142  20.172  0.00  0.00    +0.000 C 
ATOM     15  O   UNL     1       5.146   1.878  21.216  0.00  0.00    +0.000 OA
ATOM     16  N   UNL     1       4.467   1.228  19.145  0.00  0.00    +0.000 N 
ATOM     17  H   UNL     1       3.957   1.343  18.281  0.00  0.00    +0.000 HD
BRANCH  16  18
ATOM     18  O   UNL     1       5.080  -0.031  19.321  0.00  0.00    +0.000 OA
ATOM     19  H   UNL     1       4.313  -0.636  19.393  0.00  0.00    +0.000 HD
ENDBRANCH  16  18
ENDBRANCH  11  14
ENDBRANCH   7   8
ENDBRANCH   3   6
ENDBRANCH   1   4
BRANCH   1  20
ATOM     20  C   UNL     1      -0.472  11.411  20.070  0.00  0.00    +0.000 C 
ATOM     21  O   UNL     1      -0.396  10.645  21.043  0.00  0.00    +0.000 OA
ATOM     22  N   UNL     1      -0.592  12.768  20.272  0.00  0.00    +0.000 N 
ATOM     23  H   UNL     1      -0.558  13.385  19.480  0.00  0.00    +0.000 HD
BRANCH  22  24
ATOM     24  C   UNL     1      -0.614  13.416  21.592  0.00  0.00    +0.000 C 
BRANCH  24  25
ATOM     25  C   UNL     1      -2.041  13.603  22.070  0.00  0.00    +0.000 A 
ATOM     26  C   UNL     1      -2.708  12.605  22.805  0.00  0.00    +0.000 A 
ATOM     27  C   UNL     1      -4.072  12.713  23.106  0.00  0.00    +0.000 A 
ATOM     28  C   UNL     1      -4.763  13.870  22.757  0.00  0.00    +0.000 A 
ATOM     29  C   UNL     1      -4.100  14.892  22.075  0.00  0.00    +0.000 A 
ATOM     30  C   UNL     1      -2.754  14.758  21.720  0.00  0.00    +0.000 A 
ENDBRANCH  24  25
ENDBRANCH  22  24
ENDBRANCH   1  20
BRANCH   1  31
ATOM     31  C   UNL     1      -1.904  10.748  17.623  0.00  0.00    +0.000 C 
BRANCH  31  32
ATOM     32  C   UNL     1      -3.473  11.641  17.878  0.00  0.00    +0.000 A 
ATOM     33  C   UNL     1      -4.306  11.035  16.973  0.00  0.00    +0.000 A 
ATOM     34  N   UNL     1      -4.827  12.266  16.714  0.00  0.00    +0.000 N 
ATOM     35  C   UNL     1      -5.638  12.518  17.777  0.00  0.00    +0.000 A 
ATOM     36  C   UNL     1      -6.938  13.148  17.508  0.00  0.00    +0.000 A 
ATOM     37  C   UNL     1      -7.916  13.376  18.420  0.00  0.00    +0.000 A 
ATOM     38  C   UNL     1      -7.550  12.873  19.619  0.00  0.00    +0.000 A 
ATOM     39  C   UNL     1      -6.155  12.288  19.808  0.00  0.00    +0.000 A 
ATOM     40  C   UNL     1      -4.807  12.027  19.001  0.00  0.00    +0.000 A 
ATOM     41  H   UNL     1      -4.287  13.081  16.481  0.00  0.00    +0.000 HD
ENDBRANCH  31  32
ENDBRANCH   1  31
TORSDOF 10
ENDMDL
