MODEL 1
REMARK VINA RESULT:      -8.6      0.000      0.000
REMARK  Name = 
REMARK  5 active torsions:
REMARK  status: ('A' for Active; 'I' for Inactive)
REMARK    1  A    between atoms: C_2  and  O_3
REMARK    2  A    between atoms: C_2  and  C_4
REMARK    3  A    between atoms: C_4  and  C_5
REMARK    4  A    between atoms: C_8  and  C_9
REMARK    5  A    between atoms: N_19  and  C_20
REMARK                            x       y       z     vdW  Elec       q    Type
REMARK                         _______ _______ _______ _____ _____    ______ ____
ROOT
ATOM      1  C   UNL     1       4.834   3.784  17.309  0.00  0.00    +0.000 C 
ATOM      2  C   UNL     1       5.661   3.938  16.049  0.00  0.00    +0.000 A 
ATOM      3  C   UNL     1       5.376   3.417  14.790  0.00  0.00    +0.000 A 
ATOM      4  C   UNL     1       6.095   3.864  13.670  0.00  0.00    +0.000 A 
ATOM      5  C   UNL     1       7.157   4.779  13.847  0.00  0.00    +0.000 A 
ATOM      6  C   UNL     1       7.504   5.235  15.127  0.00  0.00    +0.000 A 
ATOM      7  C   UNL     1       6.754   4.783  16.194  0.00  0.00    +0.000 A 
ATOM      8  S   UNL     1       6.934   5.273  17.864  0.00  0.00    +0.000 S 
ATOM      9  O   UNL     1       7.068   6.709  17.909  0.00  0.00    +0.000 OA
ATOM     10  O   UNL     1       7.877   4.361  18.471  0.00  0.00    +0.000 OA
ATOM     11  N   UNL     1       5.325   4.786  18.350  0.00  0.00    +0.000 NA
ENDROOT
BRANCH  11  12
ATOM     12  C   UNL     1       4.485   5.887  18.917  0.00  0.00    +0.000 C 
ATOM     13  C   UNL     1       3.597   6.587  17.890  0.00  0.00    +0.000 C 
ATOM     14  C   UNL     1       2.462   7.209  18.674  0.00  0.00    +0.000 C 
ATOM     15  C   UNL     1       2.195   6.240  19.806  0.00  0.00    +0.000 C 
ATOM     16  C   UNL     1       3.403   5.305  19.857  0.00  0.00    +0.000 C 
ENDBRANCH  11  12
BRANCH   4  17
ATOM     17  C   UNL     1       5.678   3.432  12.283  0.00  0.00    +0.000 C 
ATOM     18  F   UNL     1       4.371   3.708  12.006  0.00  0.00    +0.000 F 
ATOM     19  F   UNL     1       6.401   4.041  11.305  0.00  0.00    +0.000 F 
ATOM     20  F   UNL     1       5.824   2.094  12.085  0.00  0.00    +0.000 F 
ENDBRANCH   4  17
BRANCH   1  21
ATOM     21  C   UNL     1       3.334   3.698  17.013  0.00  0.00    +0.000 C 
BRANCH  21  23
ATOM     22  O   UNL     1       1.427   2.553  18.017  0.00  0.00    +0.000 OA
ATOM     23  C   UNL     1       2.608   2.563  17.706  0.00  0.00    +0.000 C 
BRANCH  23  24
ATOM     24  O   UNL     1       3.399   1.489  17.932  0.00  0.00    +0.000 OA
ATOM     25  H   UNL     1       4.344   1.612  17.721  0.00  0.00    +0.000 HD
ENDBRANCH  23  24
ENDBRANCH  21  23
ENDBRANCH   1  21
TORSDOF 5
ENDMDL
MODEL 2
REMARK VINA RESULT:      -7.7      3.807      5.286
REMARK  Name = 
REMARK  5 active torsions:
REMARK  status: ('A' for Active; 'I' for Inactive)
REMARK    1  A    between atoms: C_2  and  O_3
REMARK    2  A    between atoms: C_2  and  C_4
REMARK    3  A    between atoms: C_4  and  C_5
REMARK    4  A    between atoms: C_8  and  C_9
REMARK    5  A    between atoms: N_19  and  C_20
REMARK                            x       y       z     vdW  Elec       q    Type
REMARK                         _______ _______ _______ _____ _____    ______ ____
ROOT
ATOM      1  C   UNL     1       2.682   6.164  18.092  0.00  0.00    +0.000 C 
ATOM      2  C   UNL     1       4.135   5.951  17.718  0.00  0.00    +0.000 A 
ATOM      3  C   UNL     1       5.124   6.924  17.609  0.00  0.00    +0.000 A 
ATOM      4  C   UNL     1       6.473   6.543  17.514  0.00  0.00    +0.000 A 
ATOM      5  C   UNL     1       6.802   5.171  17.446  0.00  0.00    +0.000 A 
ATOM      6  C   UNL     1       5.799   4.191  17.465  0.00  0.00    +0.000 A 
ATOM      7  C   UNL     1       4.490   4.615  17.580  0.00  0.00    +0.000 A 
ATOM      8  S   UNL     1       3.080   3.589  17.713  0.00  0.00    +0.000 S 
ATOM      9  O   UNL     1       3.362   2.542  18.667  0.00  0.00    +0.000 OA
ATOM     10  O   UNL     1       2.611   3.342  16.368  0.00  0.00    +0.000 OA
ATOM     11  N   UNL     1       2.054   4.814  18.425  0.00  0.00    +0.000 NA
ENDROOT
BRANCH  11  12
ATOM     12  C   UNL     1       1.493   4.455  19.765  0.00  0.00    +0.000 C 
ATOM     13  C   UNL     1       0.973   3.022  19.861  0.00  0.00    +0.000 C 
ATOM     14  C   UNL     1       1.003   2.665  21.332  0.00  0.00    +0.000 C 
ATOM     15  C   UNL     1       2.218   3.380  21.881  0.00  0.00    +0.000 C 
ATOM     16  C   UNL     1       2.623   4.404  20.821  0.00  0.00    +0.000 C 
ENDBRANCH  11  12
BRANCH   4  17
ATOM     17  C   UNL     1       7.559   7.592  17.568  0.00  0.00    +0.000 C 
ATOM     18  F   UNL     1       7.074   8.860  17.701  0.00  0.00    +0.000 F 
ATOM     19  F   UNL     1       8.412   7.410  18.611  0.00  0.00    +0.000 F 
ATOM     20  F   UNL     1       8.330   7.606  16.447  0.00  0.00    +0.000 F 
ENDBRANCH   4  17
BRANCH   1  21
ATOM     21  C   UNL     1       2.498   7.328  19.070  0.00  0.00    +0.000 C 
BRANCH  21  23
ATOM     22  O   UNL     1       2.153   8.987  17.315  0.00  0.00    +0.000 OA
ATOM     23  C   UNL     1       1.954   8.601  18.456  0.00  0.00    +0.000 C 
BRANCH  23  24
ATOM     24  O   UNL     1       1.156   9.296  19.300  0.00  0.00    +0.000 OA
ATOM     25  H   UNL     1       0.728  10.085  18.918  0.00  0.00    +0.000 HD
ENDBRANCH  23  24
ENDBRANCH  21  23
ENDBRANCH   1  21
TORSDOF 5
ENDMDL
MODEL 3
REMARK VINA RESULT:      -7.2      4.036      6.895
REMARK  Name = 
REMARK  5 active torsions:
REMARK  status: ('A' for Active; 'I' for Inactive)
REMARK    1  A    between atoms: C_2  and  O_3
REMARK    2  A    between atoms: C_2  and  C_4
REMARK    3  A    between atoms: C_4  and  C_5
REMARK    4  A    between atoms: C_8  and  C_9
REMARK    5  A    between atoms: N_19  and  C_20
REMARK                            x       y       z     vdW  Elec       q    Type
REMARK                         _______ _______ _______ _____ _____    ______ ____
ROOT
ATOM      1  C   UNL     1       5.270   5.359  18.702  0.00  0.00    +0.000 C 
ATOM      2  C   UNL     1       3.957   5.449  19.453  0.00  0.00    +0.000 A 
ATOM      3  C   UNL     1       3.336   6.604  19.920  0.00  0.00    +0.000 A 
ATOM      4  C   UNL     1       2.003   6.552  20.360  0.00  0.00    +0.000 A 
ATOM      5  C   UNL     1       1.335   5.308  20.401  0.00  0.00    +0.000 A 
ATOM      6  C   UNL     1       1.990   4.130  20.016  0.00  0.00    +0.000 A 
ATOM      7  C   UNL     1       3.293   4.235  19.571  0.00  0.00    +0.000 A 
ATOM      8  S   UNL     1       4.283   2.931  18.958  0.00  0.00    +0.000 S 
ATOM      9  O   UNL     1       3.493   2.148  18.037  0.00  0.00    +0.000 OA
ATOM     10  O   UNL     1       4.987   2.369  20.088  0.00  0.00    +0.000 OA
ATOM     11  N   UNL     1       5.396   3.967  18.091  0.00  0.00    +0.000 NA
ENDROOT
BRANCH  11  12
ATOM     12  C   UNL     1       5.481   3.699  16.621  0.00  0.00    +0.000 C 
ATOM     13  C   UNL     1       4.663   4.662  15.762  0.00  0.00    +0.000 C 
ATOM     14  C   UNL     1       5.295   4.635  14.387  0.00  0.00    +0.000 C 
ATOM     15  C   UNL     1       6.775   4.454  14.643  0.00  0.00    +0.000 C 
ATOM     16  C   UNL     1       6.904   4.015  16.101  0.00  0.00    +0.000 C 
ENDBRANCH  11  12
BRANCH   4  17
ATOM     17  C   UNL     1       1.272   7.828  20.707  0.00  0.00    +0.000 C 
ATOM     18  F   UNL     1       1.894   8.555  21.680  0.00  0.00    +0.000 F 
ATOM     19  F   UNL     1       1.146   8.665  19.642  0.00  0.00    +0.000 F 
ATOM     20  F   UNL     1       0.011   7.602  21.163  0.00  0.00    +0.000 F 
ENDBRANCH   4  17
BRANCH   1  21
ATOM     21  C   UNL     1       5.518   6.582  17.815  0.00  0.00    +0.000 C 
BRANCH  21  23
ATOM     22  O   UNL     1       7.399   7.893  16.979  0.00  0.00    +0.000 OA
ATOM     23  C   UNL     1       6.967   7.011  17.705  0.00  0.00    +0.000 C 
BRANCH  23  24
ATOM     24  O   UNL     1       7.783   6.334  18.545  0.00  0.00    +0.000 OA
ATOM     25  H   UNL     1       7.516   6.337  19.484  0.00  0.00    +0.000 HD
ENDBRANCH  23  24
ENDBRANCH  21  23
ENDBRANCH   1  21
TORSDOF 5
ENDMDL
MODEL 4
REMARK VINA RESULT:      -7.2      4.026      6.227
REMARK  Name = 
REMARK  5 active torsions:
REMARK  status: ('A' for Active; 'I' for Inactive)
REMARK    1  A    between atoms: C_2  and  O_3
REMARK    2  A    between atoms: C_2  and  C_4
REMARK    3  A    between atoms: C_4  and  C_5
REMARK    4  A    between atoms: C_8  and  C_9
REMARK    5  A    between atoms: N_19  and  C_20
REMARK                            x       y       z     vdW  Elec       q    Type
REMARK                         _______ _______ _______ _____ _____    ______ ____
ROOT
ATOM      1  C   UNL     1       4.257   6.429  18.412  0.00  0.00    +0.000 C 
ATOM      2  C   UNL     1       3.864   5.201  19.208  0.00  0.00    +0.000 A 
ATOM      3  C   UNL     1       2.599   4.887  19.696  0.00  0.00    +0.000 A 
ATOM      4  C   UNL     1       2.338   3.596  20.182  0.00  0.00    +0.000 A 
ATOM      5  C   UNL     1       3.388   2.654  20.246  0.00  0.00    +0.000 A 
ATOM      6  C   UNL     1       4.685   2.997  19.838  0.00  0.00    +0.000 A 
ATOM      7  C   UNL     1       4.887   4.272  19.349  0.00  0.00    +0.000 A 
ATOM      8  S   UNL     1       6.384   4.905  18.701  0.00  0.00    +0.000 S 
ATOM      9  O   UNL     1       6.950   3.922  17.809  0.00  0.00    +0.000 OA
ATOM     10  O   UNL     1       7.106   5.492  19.807  0.00  0.00    +0.000 OA
ATOM     11  N   UNL     1       5.634   6.202  17.797  0.00  0.00    +0.000 NA
ENDROOT
BRANCH  11  12
ATOM     12  C   UNL     1       5.903   6.172  16.325  0.00  0.00    +0.000 C 
ATOM     13  C   UNL     1       7.313   5.713  15.957  0.00  0.00    +0.000 C 
ATOM     14  C   UNL     1       7.227   5.197  14.538  0.00  0.00    +0.000 C 
ATOM     15  C   UNL     1       5.858   4.562  14.437  0.00  0.00    +0.000 C 
ATOM     16  C   UNL     1       5.072   5.053  15.653  0.00  0.00    +0.000 C 
ENDBRANCH  11  12
BRANCH   4  17
ATOM     17  C   UNL     1       0.928   3.199  20.553  0.00  0.00    +0.000 C 
ATOM     18  F   UNL     1       0.373   2.313  19.677  0.00  0.00    +0.000 F 
ATOM     19  F   UNL     1       0.854   2.608  21.776  0.00  0.00    +0.000 F 
ATOM     20  F   UNL     1       0.078   4.261  20.594  0.00  0.00    +0.000 F 
ENDBRANCH   4  17
BRANCH   1  21
ATOM     21  C   UNL     1       3.120   6.930  17.517  0.00  0.00    +0.000 C 
BRANCH  21  23
ATOM     22  O   UNL     1       2.241   9.195  17.290  0.00  0.00    +0.000 OA
ATOM     23  C   UNL     1       2.456   8.211  17.980  0.00  0.00    +0.000 C 
BRANCH  23  24
ATOM     24  O   UNL     1       2.064   8.165  19.275  0.00  0.00    +0.000 OA
ATOM     25  H   UNL     1       2.785   8.097  19.929  0.00  0.00    +0.000 HD
ENDBRANCH  23  24
ENDBRANCH  21  23
ENDBRANCH   1  21
TORSDOF 5
ENDMDL
MODEL 5
REMARK VINA RESULT:      -6.9      3.746      5.082
REMARK  Name = 
REMARK  5 active torsions:
REMARK  status: ('A' for Active; 'I' for Inactive)
REMARK    1  A    between atoms: C_2  and  O_3
REMARK    2  A    between atoms: C_2  and  C_4
REMARK    3  A    between atoms: C_4  and  C_5
REMARK    4  A    between atoms: C_8  and  C_9
REMARK    5  A    between atoms: N_19  and  C_20
REMARK                            x       y       z     vdW  Elec       q    Type
REMARK                         _______ _______ _______ _____ _____    ______ ____
ROOT
ATOM      1  C   UNL     1       2.838   5.216  18.462  0.00  0.00    +0.000 C 
ATOM      2  C   UNL     1       4.169   5.333  17.747  0.00  0.00    +0.000 A 
ATOM      3  C   UNL     1       5.078   6.383  17.834  0.00  0.00    +0.000 A 
ATOM      4  C   UNL     1       6.377   6.227  17.324  0.00  0.00    +0.000 A 
ATOM      5  C   UNL     1       6.719   5.033  16.653  0.00  0.00    +0.000 A 
ATOM      6  C   UNL     1       5.776   4.009  16.485  0.00  0.00    +0.000 A 
ATOM      7  C   UNL     1       4.519   4.201  17.022  0.00  0.00    +0.000 A 
ATOM      8  S   UNL     1       3.207   3.043  17.020  0.00  0.00    +0.000 S 
ATOM      9  O   UNL     1       3.732   1.754  17.402  0.00  0.00    +0.000 OA
ATOM     10  O   UNL     1       2.446   3.272  15.814  0.00  0.00    +0.000 OA
ATOM     11  N   UNL     1       2.342   3.777  18.352  0.00  0.00    +0.000 NA
ENDROOT
BRANCH  11  12
ATOM     12  C   UNL     1       2.119   2.874  19.524  0.00  0.00    +0.000 C 
ATOM     13  C   UNL     1       3.234   2.919  20.568  0.00  0.00    +0.000 C 
ATOM     14  C   UNL     1       2.611   2.451  21.865  0.00  0.00    +0.000 C 
ATOM     15  C   UNL     1       1.190   2.970  21.823  0.00  0.00    +0.000 C 
ATOM     16  C   UNL     1       0.932   3.385  20.375  0.00  0.00    +0.000 C 
ENDBRANCH  11  12
BRANCH   4  17
ATOM     17  C   UNL     1       7.417   7.296  17.567  0.00  0.00    +0.000 C 
ATOM     18  F   UNL     1       6.875   8.525  17.810  0.00  0.00    +0.000 F 
ATOM     19  F   UNL     1       8.210   7.023  18.637  0.00  0.00    +0.000 F 
ATOM     20  F   UNL     1       8.254   7.464  16.508  0.00  0.00    +0.000 F 
ENDBRANCH   4  17
BRANCH   1  21
ATOM     21  C   UNL     1       2.854   5.891  19.836  0.00  0.00    +0.000 C 
BRANCH  21  23
ATOM     22  O   UNL     1       2.066   8.026  18.955  0.00  0.00    +0.000 OA
ATOM     23  C   UNL     1       2.187   7.250  19.890  0.00  0.00    +0.000 C 
BRANCH  23  24
ATOM     24  O   UNL     1       1.674   7.539  21.109  0.00  0.00    +0.000 OA
ATOM     25  H   UNL     1       0.851   8.063  21.104  0.00  0.00    +0.000 HD
ENDBRANCH  23  24
ENDBRANCH  21  23
ENDBRANCH   1  21
TORSDOF 5
ENDMDL
MODEL 6
REMARK VINA RESULT:      -6.7      0.887      1.413
REMARK  Name = 
REMARK  5 active torsions:
REMARK  status: ('A' for Active; 'I' for Inactive)
REMARK    1  A    between atoms: C_2  and  O_3
REMARK    2  A    between atoms: C_2  and  C_4
REMARK    3  A    between atoms: C_4  and  C_5
REMARK    4  A    between atoms: C_8  and  C_9
REMARK    5  A    between atoms: N_19  and  C_20
REMARK                            x       y       z     vdW  Elec       q    Type
REMARK                         _______ _______ _______ _____ _____    ______ ____
ROOT
ATOM      1  C   UNL     1       4.287   3.507  17.351  0.00  0.00    +0.000 C 
ATOM      2  C   UNL     1       5.250   3.896  16.249  0.00  0.00    +0.000 A 
ATOM      3  C   UNL     1       5.358   3.320  14.986  0.00  0.00    +0.000 A 
ATOM      4  C   UNL     1       6.110   3.959  13.988  0.00  0.00    +0.000 A 
ATOM      5  C   UNL     1       6.819   5.139  14.303  0.00  0.00    +0.000 A 
ATOM      6  C   UNL     1       6.784   5.672  15.599  0.00  0.00    +0.000 A 
ATOM      7  C   UNL     1       6.013   5.020  16.541  0.00  0.00    +0.000 A 
ATOM      8  S   UNL     1       5.741   5.535  18.190  0.00  0.00    +0.000 S 
ATOM      9  O   UNL     1       5.451   6.949  18.187  0.00  0.00    +0.000 OA
ATOM     10  O   UNL     1       6.778   4.932  18.995  0.00  0.00    +0.000 OA
ATOM     11  N   UNL     1       4.276   4.604  18.411  0.00  0.00    +0.000 NA
ENDROOT
BRANCH  11  12
ATOM     12  C   UNL     1       3.070   5.415  18.769  0.00  0.00    +0.000 C 
ATOM     13  C   UNL     1       3.175   6.127  20.117  0.00  0.00    +0.000 C 
ATOM     14  C   UNL     1       2.211   7.292  20.049  0.00  0.00    +0.000 C 
ATOM     15  C   UNL     1       2.264   7.757  18.610  0.00  0.00    +0.000 C 
ATOM     16  C   UNL     1       2.950   6.637  17.828  0.00  0.00    +0.000 C 
ENDBRANCH  11  12
BRANCH   4  17
ATOM     17  C   UNL     1       6.092   3.429  12.573  0.00  0.00    +0.000 C 
ATOM     18  F   UNL     1       7.045   3.994  11.777  0.00  0.00    +0.000 F 
ATOM     19  F   UNL     1       6.306   2.088  12.513  0.00  0.00    +0.000 F 
ATOM     20  F   UNL     1       4.905   3.652  11.945  0.00  0.00    +0.000 F 
ENDBRANCH   4  17
BRANCH   1  21
ATOM     21  C   UNL     1       2.952   2.994  16.803  0.00  0.00    +0.000 C 
BRANCH  21  23
ATOM     22  O   UNL     1       0.906   2.671  18.093  0.00  0.00    +0.000 OA
ATOM     23  C   UNL     1       2.049   2.335  17.826  0.00  0.00    +0.000 C 
BRANCH  23  24
ATOM     24  O   UNL     1       2.622   1.267  18.427  0.00  0.00    +0.000 OA
ATOM     25  H   UNL     1       3.531   1.060  18.138  0.00  0.00    +0.000 HD
ENDBRANCH  23  24
ENDBRANCH  21  23
ENDBRANCH   1  21
TORSDOF 5
ENDMDL
