MODEL 1
REMARK VINA RESULT:      -3.6      0.000      0.000
REMARK  Name = 
REMARK  0 active torsions:
REMARK  status: ('A' for Active; 'I' for Inactive)
REMARK                            x       y       z     vdW  Elec       q    Type
REMARK                         _______ _______ _______ _____ _____    ______ ____
ROOT
ATOM      1  C   UNL     1       8.854   5.120  28.169  0.00  0.00    +0.000 A 
ATOM      2  C   UNL     1       7.594   5.659  28.265  0.00  0.00    +0.000 A 
ATOM      3  N   UNL     1       6.825   4.818  27.521  0.00  0.00    +0.000 N 
ATOM      4  N   UNL     1       7.555   3.825  26.993  0.00  0.00    +0.000 NA
ATOM      5  N   UNL     1       8.810   4.001  27.388  0.00  0.00    +0.000 NA
ATOM      6  H   UNL     1       5.830   4.846  27.329  0.00  0.00    +0.000 HD
ENDROOT
TORSDOF 0
ENDMDL
MODEL 2
REMARK VINA RESULT:      -3.5     10.231     10.443
REMARK  Name = 
REMARK  0 active torsions:
REMARK  status: ('A' for Active; 'I' for Inactive)
REMARK                            x       y       z     vdW  Elec       q    Type
REMARK                         _______ _______ _______ _____ _____    ______ ____
ROOT
ATOM      1  C   UNL     1       7.303   6.445  17.519  0.00  0.00    +0.000 A 
ATOM      2  C   UNL     1       7.511   5.529  18.521  0.00  0.00    +0.000 A 
ATOM      3  N   UNL     1       7.768   4.371  17.853  0.00  0.00    +0.000 N 
ATOM      4  N   UNL     1       7.717   4.551  16.525  0.00  0.00    +0.000 NA
ATOM      5  N   UNL     1       7.432   5.828  16.307  0.00  0.00    +0.000 NA
ATOM      6  H   UNL     1       7.980   3.447  18.212  0.00  0.00    +0.000 HD
ENDROOT
TORSDOF 0
ENDMDL
MODEL 3
REMARK VINA RESULT:      -3.4     10.739     10.945
REMARK  Name = 
REMARK  0 active torsions:
REMARK  status: ('A' for Active; 'I' for Inactive)
REMARK                            x       y       z     vdW  Elec       q    Type
REMARK                         _______ _______ _______ _____ _____    ______ ____
ROOT
ATOM      1  C   UNL     1       7.462   6.096  17.898  0.00  0.00    +0.000 A 
ATOM      2  C   UNL     1       7.521   4.734  17.735  0.00  0.00    +0.000 A 
ATOM      3  N   UNL     1       7.531   4.570  16.383  0.00  0.00    +0.000 N 
ATOM      4  N   UNL     1       7.477   5.749  15.747  0.00  0.00    +0.000 NA
ATOM      5  N   UNL     1       7.435   6.699  16.672  0.00  0.00    +0.000 NA
ATOM      6  H   UNL     1       7.572   3.720  15.833  0.00  0.00    +0.000 HD
ENDROOT
TORSDOF 0
ENDMDL
MODEL 4
REMARK VINA RESULT:      -3.4     10.679     10.835
REMARK  Name = 
REMARK  0 active torsions:
REMARK  status: ('A' for Active; 'I' for Inactive)
REMARK                            x       y       z     vdW  Elec       q    Type
REMARK                         _______ _______ _______ _____ _____    ______ ____
ROOT
ATOM      1  C   UNL     1       7.520   4.837  17.797  0.00  0.00    +0.000 A 
ATOM      2  C   UNL     1       7.471   6.198  17.970  0.00  0.00    +0.000 A 
ATOM      3  N   UNL     1       7.452   6.685  16.698  0.00  0.00    +0.000 N 
ATOM      4  N   UNL     1       7.491   5.695  15.795  0.00  0.00    +0.000 NA
ATOM      5  N   UNL     1       7.533   4.549  16.462  0.00  0.00    +0.000 NA
ATOM      6  H   UNL     1       7.412   7.643  16.370  0.00  0.00    +0.000 HD
ENDROOT
TORSDOF 0
ENDMDL
MODEL 5
REMARK VINA RESULT:      -3.4      0.378      1.636
REMARK  Name = 
REMARK  0 active torsions:
REMARK  status: ('A' for Active; 'I' for Inactive)
REMARK                            x       y       z     vdW  Elec       q    Type
REMARK                         _______ _______ _______ _____ _____    ______ ____
ROOT
ATOM      1  C   UNL     1       8.064   5.539  28.391  0.00  0.00    +0.000 A 
ATOM      2  C   UNL     1       9.288   5.058  27.996  0.00  0.00    +0.000 A 
ATOM      3  N   UNL     1       8.977   4.017  27.175  0.00  0.00    +0.000 N 
ATOM      4  N   UNL     1       7.651   3.856  27.069  0.00  0.00    +0.000 NA
ATOM      5  N   UNL     1       7.076   4.791  27.815  0.00  0.00    +0.000 NA
ATOM      6  H   UNL     1       9.586   3.388  26.664  0.00  0.00    +0.000 HD
ENDROOT
TORSDOF 0
ENDMDL
MODEL 6
REMARK VINA RESULT:      -3.4     10.223     10.391
REMARK  Name = 
REMARK  0 active torsions:
REMARK  status: ('A' for Active; 'I' for Inactive)
REMARK                            x       y       z     vdW  Elec       q    Type
REMARK                         _______ _______ _______ _____ _____    ______ ____
ROOT
ATOM      1  C   UNL     1       7.536   5.778  18.456  0.00  0.00    +0.000 A 
ATOM      2  C   UNL     1       7.301   6.624  17.400  0.00  0.00    +0.000 A 
ATOM      3  N   UNL     1       7.435   5.822  16.308  0.00  0.00    +0.000 N 
ATOM      4  N   UNL     1       7.738   4.564  16.658  0.00  0.00    +0.000 NA
ATOM      5  N   UNL     1       7.802   4.525  17.983  0.00  0.00    +0.000 NA
ATOM      6  H   UNL     1       7.339   6.044  15.324  0.00  0.00    +0.000 HD
ENDROOT
TORSDOF 0
ENDMDL
MODEL 7
REMARK VINA RESULT:      -3.4      0.733      1.596
REMARK  Name = 
REMARK  0 active torsions:
REMARK  status: ('A' for Active; 'I' for Inactive)
REMARK                            x       y       z     vdW  Elec       q    Type
REMARK                         _______ _______ _______ _____ _____    ______ ____
ROOT
ATOM      1  C   UNL     1       6.866   4.938  27.969  0.00  0.00    +0.000 A 
ATOM      2  C   UNL     1       7.973   5.601  28.439  0.00  0.00    +0.000 A 
ATOM      3  N   UNL     1       9.016   4.885  27.936  0.00  0.00    +0.000 N 
ATOM      4  N   UNL     1       8.589   3.844  27.208  0.00  0.00    +0.000 NA
ATOM      5  N   UNL     1       7.262   3.867  27.220  0.00  0.00    +0.000 NA
ATOM      6  H   UNL     1      10.013   5.032  28.038  0.00  0.00    +0.000 HD
ENDROOT
TORSDOF 0
ENDMDL
MODEL 8
REMARK VINA RESULT:      -3.4      8.916      9.126
REMARK  Name = 
REMARK  0 active torsions:
REMARK  status: ('A' for Active; 'I' for Inactive)
REMARK                            x       y       z     vdW  Elec       q    Type
REMARK                         _______ _______ _______ _____ _____    ______ ____
ROOT
ATOM      1  C   UNL     1       7.774   5.598  18.802  0.00  0.00    +0.000 A 
ATOM      2  C   UNL     1       7.557   4.768  17.731  0.00  0.00    +0.000 A 
ATOM      3  N   UNL     1       6.453   4.057  18.091  0.00  0.00    +0.000 N 
ATOM      4  N   UNL     1       6.015   4.415  19.307  0.00  0.00    +0.000 NA
ATOM      5  N   UNL     1       6.823   5.368  19.755  0.00  0.00    +0.000 NA
ATOM      6  H   UNL     1       5.952   3.335  17.587  0.00  0.00    +0.000 HD
ENDROOT
TORSDOF 0
ENDMDL
MODEL 9
REMARK VINA RESULT:      -3.3     10.292     10.465
REMARK  Name = 
REMARK  0 active torsions:
REMARK  status: ('A' for Active; 'I' for Inactive)
REMARK                            x       y       z     vdW  Elec       q    Type
REMARK                         _______ _______ _______ _____ _____    ______ ____
ROOT
ATOM      1  C   UNL     1       6.603   4.437  16.288  0.00  0.00    +0.000 A 
ATOM      2  C   UNL     1       5.709   4.278  17.319  0.00  0.00    +0.000 A 
ATOM      3  N   UNL     1       6.495   4.283  18.432  0.00  0.00    +0.000 N 
ATOM      4  N   UNL     1       7.790   4.430  18.115  0.00  0.00    +0.000 NA
ATOM      5  N   UNL     1       7.868   4.527  16.794  0.00  0.00    +0.000 NA
ATOM      6  H   UNL     1       6.239   4.196  19.408  0.00  0.00    +0.000 HD
ENDROOT
TORSDOF 0
ENDMDL
