MODEL 1
REMARK VINA RESULT:      -6.8      0.000      0.000
REMARK  Name = 
REMARK  8 active torsions:
REMARK  status: ('A' for Active; 'I' for Inactive)
REMARK    1  A    between atoms: C_1  and  O_2
REMARK    2  A    between atoms: O_2  and  N_3
REMARK    3  A    between atoms: C_4  and  C_5
REMARK    4  A    between atoms: C_4  and  C_25
REMARK    5  A    between atoms: N_7  and  C_8
REMARK    6  A    between atoms: C_12  and  C_13
REMARK    7  A    between atoms: C_18  and  C_19
REMARK    8  A    between atoms: C_19  and  O_21
REMARK                            x       y       z     vdW  Elec       q    Type
REMARK                         _______ _______ _______ _____ _____    ______ ____
ROOT
ATOM      1  C   UNL     1       0.497  10.797  21.418  0.00  0.00    +0.000 C 
ATOM      2  C   UNL     1       0.714   9.451  22.158  0.00  0.00    +0.000 C 
ATOM      3  N   UNL     1       0.675   8.498  21.058  0.00  0.00    +0.000 NA
ATOM      4  C   UNL     1       1.344   7.204  21.149  0.00  0.00    +0.000 C 
ATOM      5  C   UNL     1       1.961   7.072  19.765  0.00  0.00    +0.000 C 
ATOM      6  C   UNL     1       1.928   8.281  19.158  0.00  0.00    +0.000 C 
ATOM      7  N   UNL     1       1.252   9.149  19.975  0.00  0.00    +0.000 N 
ATOM      8  C   UNL     1       1.187  10.523  20.082  0.00  0.00    +0.000 C 
ATOM      9  O   UNL     1       1.495  11.326  19.215  0.00  0.00    +0.000 OA
ENDROOT
BRANCH   5  10
ATOM     10  C   UNL     1       2.418   5.880  19.149  0.00  0.00    +0.000 A 
ATOM     11  C   UNL     1       1.793   5.063  18.223  0.00  0.00    +0.000 A 
ATOM     12  C   UNL     1       2.604   3.955  17.833  0.00  0.00    +0.000 A 
ATOM     13  C   UNL     1       3.826   3.962  18.464  0.00  0.00    +0.000 A 
ATOM     14  S   UNL     1       3.999   5.300  19.509  0.00  0.00    +0.000 S 
ENDBRANCH   5  10
BRANCH   1  17
ATOM     15  C   UNL     1      -1.386  12.378  21.040  0.00  0.00    +0.000 C 
ATOM     16  O   UNL     1      -0.641  13.343  21.127  0.00  0.00    +0.000 OA
ATOM     17  N   UNL     1      -0.901  11.094  21.149  0.00  0.00    +0.000 N 
ATOM     18  H   UNL     1      -1.580  10.331  21.174  0.00  0.00    +0.000 HD
BRANCH  15  20
ATOM     19  N   UNL     1      -3.524  12.263  19.669  0.00  0.00    +0.000 NA
ATOM     20  C   UNL     1      -2.929  12.491  20.810  0.00  0.00    +0.000 C 
BRANCH  20  21
ATOM     21  C   UNL     1      -3.838  12.884  21.908  0.00  0.00    +0.000 A 
ATOM     22  C   UNL     1      -4.828  13.849  21.802  0.00  0.00    +0.000 A 
ATOM     23  S   UNL     1      -5.653  14.030  23.290  0.00  0.00    +0.000 S 
ATOM     24  C   UNL     1      -4.650  12.828  23.985  0.00  0.00    +0.000 A 
ATOM     25  N   UNL     1      -4.786  12.461  25.267  0.00  0.00    +0.000 N 
ATOM     26  N   UNL     1      -3.759  12.304  23.180  0.00  0.00    +0.000 NA
ATOM     27  H   UNL     1      -5.644  12.696  25.751  0.00  0.00    +0.000 HD
ATOM     28  H   UNL     1      -4.374  11.581  25.556  0.00  0.00    +0.000 HD
ENDBRANCH  20  21
BRANCH  19  30
ATOM     29  C   UNL     1      -3.353  11.184  17.653  0.00  0.00    +0.000 C 
ATOM     30  O   UNL     1      -2.639  11.908  18.646  0.00  0.00    +0.000 OA
ENDBRANCH  19  30
ENDBRANCH  15  20
ENDBRANCH   1  17
BRANCH   6  31
ATOM     31  C   UNL     1       2.509   8.623  17.830  0.00  0.00    +0.000 C 
ATOM     32  O   UNL     1       3.488   8.063  17.359  0.00  0.00    +0.000 OA
BRANCH  31  33
ATOM     33  O   UNL     1       1.853   9.568  17.125  0.00  0.00    +0.000 OA
ATOM     34  H   UNL     1       1.126   9.250  16.545  0.00  0.00    +0.000 HD
ENDBRANCH  31  33
ENDBRANCH   6  31
TORSDOF 7
ENDMDL
MODEL 2
REMARK VINA RESULT:      -6.6      1.632      3.066
REMARK  Name = 
REMARK  8 active torsions:
REMARK  status: ('A' for Active; 'I' for Inactive)
REMARK    1  A    between atoms: C_1  and  O_2
REMARK    2  A    between atoms: O_2  and  N_3
REMARK    3  A    between atoms: C_4  and  C_5
REMARK    4  A    between atoms: C_4  and  C_25
REMARK    5  A    between atoms: N_7  and  C_8
REMARK    6  A    between atoms: C_12  and  C_13
REMARK    7  A    between atoms: C_18  and  C_19
REMARK    8  A    between atoms: C_19  and  O_21
REMARK                            x       y       z     vdW  Elec       q    Type
REMARK                         _______ _______ _______ _____ _____    ______ ____
ROOT
ATOM      1  C   UNL     1       0.517  10.774  21.390  0.00  0.00    +0.000 C 
ATOM      2  C   UNL     1       0.730   9.430  22.134  0.00  0.00    +0.000 C 
ATOM      3  N   UNL     1       0.692   8.474  21.036  0.00  0.00    +0.000 NA
ATOM      4  C   UNL     1       1.359   7.180  21.132  0.00  0.00    +0.000 C 
ATOM      5  C   UNL     1       1.980   7.043  19.751  0.00  0.00    +0.000 C 
ATOM      6  C   UNL     1       1.950   8.250  19.141  0.00  0.00    +0.000 C 
ATOM      7  N   UNL     1       1.273   9.121  19.954  0.00  0.00    +0.000 N 
ATOM      8  C   UNL     1       1.210  10.495  20.057  0.00  0.00    +0.000 C 
ATOM      9  O   UNL     1       1.522  11.297  19.188  0.00  0.00    +0.000 OA
ENDROOT
BRANCH   5  10
ATOM     10  C   UNL     1       2.436   5.848  19.140  0.00  0.00    +0.000 A 
ATOM     11  C   UNL     1       1.813   5.030  18.215  0.00  0.00    +0.000 A 
ATOM     12  C   UNL     1       2.623   3.919  17.829  0.00  0.00    +0.000 A 
ATOM     13  C   UNL     1       3.844   3.927  18.463  0.00  0.00    +0.000 A 
ATOM     14  S   UNL     1       4.016   5.268  19.504  0.00  0.00    +0.000 S 
ENDBRANCH   5  10
BRANCH   1  17
ATOM     15  C   UNL     1      -1.361  12.357  20.992  0.00  0.00    +0.000 C 
ATOM     16  O   UNL     1      -0.613  13.321  21.070  0.00  0.00    +0.000 OA
ATOM     17  N   UNL     1      -0.880  11.073  21.116  0.00  0.00    +0.000 N 
ATOM     18  H   UNL     1      -1.561  10.312  21.149  0.00  0.00    +0.000 HD
BRANCH  15  20
ATOM     19  N   UNL     1      -3.762  12.845  21.672  0.00  0.00    +0.000 NA
ATOM     20  C   UNL     1      -2.903  12.472  20.760  0.00  0.00    +0.000 C 
BRANCH  20  21
ATOM     21  C   UNL     1      -3.505  12.146  19.449  0.00  0.00    +0.000 A 
ATOM     22  C   UNL     1      -4.866  12.122  19.192  0.00  0.00    +0.000 A 
ATOM     23  S   UNL     1      -5.164  11.683  17.565  0.00  0.00    +0.000 S 
ATOM     24  C   UNL     1      -3.477  11.548  17.300  0.00  0.00    +0.000 A 
ATOM     25  N   UNL     1      -2.985  11.193  16.105  0.00  0.00    +0.000 N 
ATOM     26  N   UNL     1      -2.721  11.816  18.336  0.00  0.00    +0.000 NA
ATOM     27  H   UNL     1      -3.586  11.262  15.292  0.00  0.00    +0.000 HD
ATOM     28  H   UNL     1      -2.009  11.387  15.917  0.00  0.00    +0.000 HD
ENDBRANCH  20  21
BRANCH  19  30
ATOM     29  C   UNL     1      -3.890  12.461  23.929  0.00  0.00    +0.000 C 
ATOM     30  O   UNL     1      -3.167  13.132  22.905  0.00  0.00    +0.000 OA
ENDBRANCH  19  30
ENDBRANCH  15  20
ENDBRANCH   1  17
BRANCH   6  31
ATOM     31  C   UNL     1       2.536   8.588  17.813  0.00  0.00    +0.000 C 
ATOM     32  O   UNL     1       3.520   8.031  17.350  0.00  0.00    +0.000 OA
BRANCH  31  33
ATOM     33  O   UNL     1       1.878   9.526  17.100  0.00  0.00    +0.000 OA
ATOM     34  H   UNL     1       0.896   9.503  17.155  0.00  0.00    +0.000 HD
ENDBRANCH  31  33
ENDBRANCH   6  31
TORSDOF 7
ENDMDL
MODEL 3
REMARK VINA RESULT:      -6.5      1.793      2.961
REMARK  Name = 
REMARK  8 active torsions:
REMARK  status: ('A' for Active; 'I' for Inactive)
REMARK    1  A    between atoms: C_1  and  O_2
REMARK    2  A    between atoms: O_2  and  N_3
REMARK    3  A    between atoms: C_4  and  C_5
REMARK    4  A    between atoms: C_4  and  C_25
REMARK    5  A    between atoms: N_7  and  C_8
REMARK    6  A    between atoms: C_12  and  C_13
REMARK    7  A    between atoms: C_18  and  C_19
REMARK    8  A    between atoms: C_19  and  O_21
REMARK                            x       y       z     vdW  Elec       q    Type
REMARK                         _______ _______ _______ _____ _____    ______ ____
ROOT
ATOM      1  C   UNL     1       0.554  10.749  21.358  0.00  0.00    +0.000 C 
ATOM      2  C   UNL     1       0.772   9.415  22.118  0.00  0.00    +0.000 C 
ATOM      3  N   UNL     1       0.726   8.444  21.033  0.00  0.00    +0.000 NA
ATOM      4  C   UNL     1       1.394   7.151  21.142  0.00  0.00    +0.000 C 
ATOM      5  C   UNL     1       2.004   6.996  19.758  0.00  0.00    +0.000 C 
ATOM      6  C   UNL     1       1.970   8.195  19.132  0.00  0.00    +0.000 C 
ATOM      7  N   UNL     1       1.300   9.077  19.938  0.00  0.00    +0.000 N 
ATOM      8  C   UNL     1       1.237  10.452  20.023  0.00  0.00    +0.000 C 
ATOM      9  O   UNL     1       1.542  11.242  19.142  0.00  0.00    +0.000 OA
ENDROOT
BRANCH   5  10
ATOM     10  C   UNL     1       2.456   5.793  19.159  0.00  0.00    +0.000 A 
ATOM     11  C   UNL     1       1.821   4.957  18.259  0.00  0.00    +0.000 A 
ATOM     12  C   UNL     1       2.630   3.843  17.878  0.00  0.00    +0.000 A 
ATOM     13  C   UNL     1       3.862   3.867  18.491  0.00  0.00    +0.000 A 
ATOM     14  S   UNL     1       4.044   5.226  19.506  0.00  0.00    +0.000 S 
ENDBRANCH   5  10
BRANCH   1  17
ATOM     15  C   UNL     1      -1.291  12.297  20.733  0.00  0.00    +0.000 C 
ATOM     16  O   UNL     1      -0.510  13.225  20.583  0.00  0.00    +0.000 OA
ATOM     17  N   UNL     1      -0.845  11.045  21.090  0.00  0.00    +0.000 N 
ATOM     18  H   UNL     1      -1.547  10.334  21.304  0.00  0.00    +0.000 HD
BRANCH  15  20
ATOM     19  N   UNL     1      -3.657  12.868  21.468  0.00  0.00    +0.000 NA
ATOM     20  C   UNL     1      -2.839  12.426  20.549  0.00  0.00    +0.000 C 
BRANCH  20  21
ATOM     21  C   UNL     1      -3.493  12.035  19.282  0.00  0.00    +0.000 A 
ATOM     22  C   UNL     1      -2.823  11.571  18.161  0.00  0.00    +0.000 A 
ATOM     23  S   UNL     1      -3.925  11.242  16.894  0.00  0.00    +0.000 S 
ATOM     24  C   UNL     1      -5.220  11.737  17.901  0.00  0.00    +0.000 A 
ATOM     25  N   UNL     1      -6.487  11.726  17.465  0.00  0.00    +0.000 N 
ATOM     26  N   UNL     1      -4.880  12.116  19.108  0.00  0.00    +0.000 NA
ATOM     27  H   UNL     1      -6.713  11.181  16.641  0.00  0.00    +0.000 HD
ATOM     28  H   UNL     1      -7.228  11.761  18.155  0.00  0.00    +0.000 HD
ENDBRANCH  20  21
BRANCH  19  30
ATOM     29  C   UNL     1      -3.522  12.403  23.708  0.00  0.00    +0.000 C 
ATOM     30  O   UNL     1      -3.013  13.216  22.659  0.00  0.00    +0.000 OA
ENDBRANCH  19  30
ENDBRANCH  15  20
ENDBRANCH   1  17
BRANCH   6  31
ATOM     31  C   UNL     1       2.546   8.515  17.795  0.00  0.00    +0.000 C 
ATOM     32  O   UNL     1       3.535   7.962  17.338  0.00  0.00    +0.000 OA
BRANCH  31  33
ATOM     33  O   UNL     1       1.873   9.430  17.068  0.00  0.00    +0.000 OA
ATOM     34  H   UNL     1       2.075   9.454  16.106  0.00  0.00    +0.000 HD
ENDBRANCH  31  33
ENDBRANCH   6  31
TORSDOF 7
ENDMDL
MODEL 4
REMARK VINA RESULT:      -6.4      1.972      3.198
REMARK  Name = 
REMARK  8 active torsions:
REMARK  status: ('A' for Active; 'I' for Inactive)
REMARK    1  A    between atoms: C_1  and  O_2
REMARK    2  A    between atoms: O_2  and  N_3
REMARK    3  A    between atoms: C_4  and  C_5
REMARK    4  A    between atoms: C_4  and  C_25
REMARK    5  A    between atoms: N_7  and  C_8
REMARK    6  A    between atoms: C_12  and  C_13
REMARK    7  A    between atoms: C_18  and  C_19
REMARK    8  A    between atoms: C_19  and  O_21
REMARK                            x       y       z     vdW  Elec       q    Type
REMARK                         _______ _______ _______ _____ _____    ______ ____
ROOT
ATOM      1  C   UNL     1      -0.466  11.986  21.460  0.00  0.00    +0.000 C 
ATOM      2  C   UNL     1       0.178  10.909  22.371  0.00  0.00    +0.000 C 
ATOM      3  N   UNL     1       0.174   9.742  21.500  0.00  0.00    +0.000 NA
ATOM      4  C   UNL     1       1.129   8.654  21.683  0.00  0.00    +0.000 C 
ATOM      5  C   UNL     1       1.518   8.333  20.248  0.00  0.00    +0.000 C 
ATOM      6  C   UNL     1       1.104   9.344  19.450  0.00  0.00    +0.000 C 
ATOM      7  N   UNL     1       0.394  10.230  20.218  0.00  0.00    +0.000 N 
ATOM      8  C   UNL     1       0.033  11.554  20.081  0.00  0.00    +0.000 C 
ATOM      9  O   UNL     1      -0.004  12.184  19.035  0.00  0.00    +0.000 OA
ENDROOT
BRANCH   5  10
ATOM     10  C   UNL     1       2.126   7.141  19.780  0.00  0.00    +0.000 A 
ATOM     11  C   UNL     1       3.053   6.955  18.770  0.00  0.00    +0.000 A 
ATOM     12  C   UNL     1       3.435   5.588  18.619  0.00  0.00    +0.000 A 
ATOM     13  C   UNL     1       2.797   4.771  19.525  0.00  0.00    +0.000 A 
ATOM     14  S   UNL     1       1.756   5.649  20.554  0.00  0.00    +0.000 S 
ENDBRANCH   5  10
BRANCH   1  17
ATOM     15  C   UNL     1      -2.701  13.066  21.282  0.00  0.00    +0.000 C 
ATOM     16  O   UNL     1      -2.196  14.164  21.099  0.00  0.00    +0.000 OA
ATOM     17  N   UNL     1      -1.920  11.944  21.445  0.00  0.00    +0.000 N 
ATOM     18  H   UNL     1      -2.389  11.072  21.699  0.00  0.00    +0.000 HD
BRANCH  15  20
ATOM     19  N   UNL     1      -4.874  12.404  22.424  0.00  0.00    +0.000 NA
ATOM     20  C   UNL     1      -4.244  12.821  21.357  0.00  0.00    +0.000 C 
BRANCH  20  21
ATOM     21  C   UNL     1      -5.111  13.048  20.181  0.00  0.00    +0.000 A 
ATOM     22  C   UNL     1      -5.983  14.116  20.041  0.00  0.00    +0.000 A 
ATOM     23  S   UNL     1      -6.823  14.016  18.553  0.00  0.00    +0.000 S 
ATOM     24  C   UNL     1      -5.988  12.566  18.187  0.00  0.00    +0.000 A 
ATOM     25  N   UNL     1      -6.211  11.901  17.045  0.00  0.00    +0.000 N 
ATOM     26  N   UNL     1      -5.128  12.168  19.092  0.00  0.00    +0.000 NA
ATOM     27  H   UNL     1      -6.671  12.385  16.283  0.00  0.00    +0.000 HD
ATOM     28  H   UNL     1      -5.521  11.221  16.748  0.00  0.00    +0.000 HD
ENDBRANCH  20  21
BRANCH  19  30
ATOM     29  C   UNL     1      -4.772  12.349  24.713  0.00  0.00    +0.000 C 
ATOM     30  O   UNL     1      -4.027  12.184  23.514  0.00  0.00    +0.000 OA
ENDBRANCH  19  30
ENDBRANCH  15  20
ENDBRANCH   1  17
BRANCH   6  31
ATOM     31  C   UNL     1       1.358   9.481  17.988  0.00  0.00    +0.000 C 
ATOM     32  O   UNL     1       0.792   8.807  17.140  0.00  0.00    +0.000 OA
BRANCH  31  33
ATOM     33  O   UNL     1       2.226  10.450  17.629  0.00  0.00    +0.000 OA
ATOM     34  H   UNL     1       2.810  10.794  18.341  0.00  0.00    +0.000 HD
ENDBRANCH  31  33
ENDBRANCH   6  31
TORSDOF 7
ENDMDL
MODEL 5
REMARK VINA RESULT:      -6.3      2.483      8.988
REMARK  Name = 
REMARK  8 active torsions:
REMARK  status: ('A' for Active; 'I' for Inactive)
REMARK    1  A    between atoms: C_1  and  O_2
REMARK    2  A    between atoms: O_2  and  N_3
REMARK    3  A    between atoms: C_4  and  C_5
REMARK    4  A    between atoms: C_4  and  C_25
REMARK    5  A    between atoms: N_7  and  C_8
REMARK    6  A    between atoms: C_12  and  C_13
REMARK    7  A    between atoms: C_18  and  C_19
REMARK    8  A    between atoms: C_19  and  O_21
REMARK                            x       y       z     vdW  Elec       q    Type
REMARK                         _______ _______ _______ _____ _____    ______ ____
ROOT
ATOM      1  C   UNL     1      -0.455  10.903  17.851  0.00  0.00    +0.000 C 
ATOM      2  C   UNL     1      -1.817  10.562  17.194  0.00  0.00    +0.000 C 
ATOM      3  N   UNL     1      -2.733  10.709  18.316  0.00  0.00    +0.000 NA
ATOM      4  C   UNL     1      -4.145  11.018  18.109  0.00  0.00    +0.000 C 
ATOM      5  C   UNL     1      -4.407  12.036  19.208  0.00  0.00    +0.000 C 
ATOM      6  C   UNL     1      -3.220  12.471  19.689  0.00  0.00    +0.000 C 
ATOM      7  N   UNL     1      -2.225  11.751  19.082  0.00  0.00    +0.000 N 
ATOM      8  C   UNL     1      -0.872  11.942  18.892  0.00  0.00    +0.000 C 
ATOM      9  O   UNL     1      -0.155  12.694  19.534  0.00  0.00    +0.000 OA
ENDROOT
BRANCH   5  10
ATOM     10  C   UNL     1      -5.670  12.418  19.727  0.00  0.00    +0.000 A 
ATOM     11  C   UNL     1      -6.397  11.884  20.776  0.00  0.00    +0.000 A 
ATOM     12  C   UNL     1      -7.627  12.573  20.999  0.00  0.00    +0.000 A 
ATOM     13  C   UNL     1      -7.800  13.617  20.120  0.00  0.00    +0.000 A 
ATOM     14  S   UNL     1      -6.484  13.773  19.045  0.00  0.00    +0.000 S 
ENDBRANCH   5  10
BRANCH   1  17
ATOM     15  C   UNL     1       1.447   9.373  18.335  0.00  0.00    +0.000 C 
ATOM     16  O   UNL     1       2.174   9.971  17.555  0.00  0.00    +0.000 OA
ATOM     17  N   UNL     1       0.151   9.782  18.553  0.00  0.00    +0.000 N 
ATOM     18  H   UNL     1      -0.444   9.187  19.133  0.00  0.00    +0.000 HD
BRANCH  15  20
ATOM     19  N   UNL     1       1.699   7.947  20.425  0.00  0.00    +0.000 NA
ATOM     20  C   UNL     1       1.893   8.110  19.142  0.00  0.00    +0.000 C 
BRANCH  20  21
ATOM     21  C   UNL     1       2.593   6.989  18.481  0.00  0.00    +0.000 A 
ATOM     22  C   UNL     1       3.819   7.093  17.843  0.00  0.00    +0.000 A 
ATOM     23  S   UNL     1       4.287   5.583  17.187  0.00  0.00    +0.000 S 
ATOM     24  C   UNL     1       2.839   4.884  17.781  0.00  0.00    +0.000 A 
ATOM     25  N   UNL     1       2.555   3.590  17.580  0.00  0.00    +0.000 N 
ATOM     26  N   UNL     1       2.049   5.699  18.436  0.00  0.00    +0.000 NA
ATOM     27  H   UNL     1       3.306   2.964  17.313  0.00  0.00    +0.000 HD
ATOM     28  H   UNL     1       1.846   3.163  18.164  0.00  0.00    +0.000 HD
ENDBRANCH  20  21
BRANCH  19  30
ATOM     29  C   UNL     1       1.397   9.063  22.405  0.00  0.00    +0.000 C 
ATOM     30  O   UNL     1       1.049   9.029  21.026  0.00  0.00    +0.000 OA
ENDBRANCH  19  30
ENDBRANCH  15  20
ENDBRANCH   1  17
BRANCH   6  31
ATOM     31  C   UNL     1      -3.013  13.537  20.709  0.00  0.00    +0.000 C 
ATOM     32  O   UNL     1      -3.143  13.354  21.911  0.00  0.00    +0.000 OA
BRANCH  31  33
ATOM     33  O   UNL     1      -2.611  14.735  20.236  0.00  0.00    +0.000 OA
ATOM     34  H   UNL     1      -2.750  14.891  19.275  0.00  0.00    +0.000 HD
ENDBRANCH  31  33
ENDBRANCH   6  31
TORSDOF 7
ENDMDL
MODEL 6
REMARK VINA RESULT:      -6.3      2.379      3.428
REMARK  Name = 
REMARK  8 active torsions:
REMARK  status: ('A' for Active; 'I' for Inactive)
REMARK    1  A    between atoms: C_1  and  O_2
REMARK    2  A    between atoms: O_2  and  N_3
REMARK    3  A    between atoms: C_4  and  C_5
REMARK    4  A    between atoms: C_4  and  C_25
REMARK    5  A    between atoms: N_7  and  C_8
REMARK    6  A    between atoms: C_12  and  C_13
REMARK    7  A    between atoms: C_18  and  C_19
REMARK    8  A    between atoms: C_19  and  O_21
REMARK                            x       y       z     vdW  Elec       q    Type
REMARK                         _______ _______ _______ _____ _____    ______ ____
ROOT
ATOM      1  C   UNL     1      -1.061  12.273  21.501  0.00  0.00    +0.000 C 
ATOM      2  C   UNL     1      -0.252  11.308  22.406  0.00  0.00    +0.000 C 
ATOM      3  N   UNL     1      -0.202  10.105  21.588  0.00  0.00    +0.000 NA
ATOM      4  C   UNL     1       0.865   9.122  21.745  0.00  0.00    +0.000 C 
ATOM      5  C   UNL     1       1.182   8.770  20.300  0.00  0.00    +0.000 C 
ATOM      6  C   UNL     1       0.617   9.697  19.493  0.00  0.00    +0.000 C 
ATOM      7  N   UNL     1      -0.121  10.547  20.274  0.00  0.00    +0.000 N 
ATOM      8  C   UNL     1      -0.619  11.823  20.109  0.00  0.00    +0.000 C 
ATOM      9  O   UNL     1      -0.791  12.395  19.043  0.00  0.00    +0.000 OA
ENDROOT
BRANCH   5  10
ATOM     10  C   UNL     1       1.870   7.619  19.839  0.00  0.00    +0.000 A 
ATOM     11  C   UNL     1       2.702   7.462  18.745  0.00  0.00    +0.000 A 
ATOM     12  C   UNL     1       3.219   6.136  18.634  0.00  0.00    +0.000 A 
ATOM     13  C   UNL     1       2.775   5.322  19.651  0.00  0.00    +0.000 A 
ATOM     14  S   UNL     1       1.754   6.154  20.736  0.00  0.00    +0.000 S 
ENDBRANCH   5  10
BRANCH   1  17
ATOM     15  C   UNL     1      -3.402  13.095  21.315  0.00  0.00    +0.000 C 
ATOM     16  O   UNL     1      -3.024  14.191  20.927  0.00  0.00    +0.000 OA
ATOM     17  N   UNL     1      -2.500  12.093  21.596  0.00  0.00    +0.000 N 
ATOM     18  H   UNL     1      -2.861  11.234  22.016  0.00  0.00    +0.000 HD
BRANCH  15  20
ATOM     19  N   UNL     1      -5.533  12.837  22.678  0.00  0.00    +0.000 NA
ATOM     20  C   UNL     1      -4.904  12.722  21.537  0.00  0.00    +0.000 C 
BRANCH  20  21
ATOM     21  C   UNL     1      -5.731  12.191  20.432  0.00  0.00    +0.000 A 
ATOM     22  C   UNL     1      -6.127  12.923  19.324  0.00  0.00    +0.000 A 
ATOM     23  S   UNL     1      -7.087  11.965  18.281  0.00  0.00    +0.000 S 
ATOM     24  C   UNL     1      -6.925  10.643  19.358  0.00  0.00    +0.000 A 
ATOM     25  N   UNL     1      -7.506   9.462  19.106  0.00  0.00    +0.000 N 
ATOM     26  N   UNL     1      -6.200  10.872  20.425  0.00  0.00    +0.000 NA
ATOM     27  H   UNL     1      -7.816   9.265  18.161  0.00  0.00    +0.000 HD
ATOM     28  H   UNL     1      -7.170   8.649  19.610  0.00  0.00    +0.000 HD
ENDBRANCH  20  21
BRANCH  19  30
ATOM     29  C   UNL     1      -4.584  12.317  24.698  0.00  0.00    +0.000 C 
ATOM     30  O   UNL     1      -4.723  13.326  23.707  0.00  0.00    +0.000 OA
ENDBRANCH  19  30
ENDBRANCH  15  20
ENDBRANCH   1  17
BRANCH   6  31
ATOM     31  C   UNL     1       0.753   9.785  18.012  0.00  0.00    +0.000 C 
ATOM     32  O   UNL     1      -0.077   9.344  17.232  0.00  0.00    +0.000 OA
BRANCH  31  33
ATOM     33  O   UNL     1       1.841  10.442  17.559  0.00  0.00    +0.000 OA
ATOM     34  H   UNL     1       2.700  10.191  17.966  0.00  0.00    +0.000 HD
ENDBRANCH  31  33
ENDBRANCH   6  31
TORSDOF 7
ENDMDL
MODEL 7
REMARK VINA RESULT:      -6.3      2.674      8.935
REMARK  Name = 
REMARK  8 active torsions:
REMARK  status: ('A' for Active; 'I' for Inactive)
REMARK    1  A    between atoms: C_1  and  O_2
REMARK    2  A    between atoms: O_2  and  N_3
REMARK    3  A    between atoms: C_4  and  C_5
REMARK    4  A    between atoms: C_4  and  C_25
REMARK    5  A    between atoms: N_7  and  C_8
REMARK    6  A    between atoms: C_12  and  C_13
REMARK    7  A    between atoms: C_18  and  C_19
REMARK    8  A    between atoms: C_19  and  O_21
REMARK                            x       y       z     vdW  Elec       q    Type
REMARK                         _______ _______ _______ _____ _____    ______ ____
ROOT
ATOM      1  C   UNL     1       0.044  10.483  18.071  0.00  0.00    +0.000 C 
ATOM      2  C   UNL     1      -1.176  10.133  17.180  0.00  0.00    +0.000 C 
ATOM      3  N   UNL     1      -2.279  10.265  18.121  0.00  0.00    +0.000 NA
ATOM      4  C   UNL     1      -3.634  10.561  17.667  0.00  0.00    +0.000 C 
ATOM      5  C   UNL     1      -4.100  11.571  18.704  0.00  0.00    +0.000 C 
ATOM      6  C   UNL     1      -3.022  12.014  19.392  0.00  0.00    +0.000 C 
ATOM      7  N   UNL     1      -1.927  11.307  18.969  0.00  0.00    +0.000 N 
ATOM      8  C   UNL     1      -0.564  11.512  19.024  0.00  0.00    +0.000 C 
ATOM      9  O   UNL     1       0.018  12.268  19.788  0.00  0.00    +0.000 OA
ENDROOT
BRANCH   5  10
ATOM     10  C   UNL     1      -5.439  11.937  18.992  0.00  0.00    +0.000 A 
ATOM     11  C   UNL     1      -6.241  11.597  20.066  0.00  0.00    +0.000 A 
ATOM     12  C   UNL     1      -7.537  12.193  19.995  0.00  0.00    +0.000 A 
ATOM     13  C   UNL     1      -7.683  12.977  18.873  0.00  0.00    +0.000 A 
ATOM     14  S   UNL     1      -6.265  13.005  17.923  0.00  0.00    +0.000 S 
ENDBRANCH   5  10
BRANCH   1  17
ATOM     15  C   UNL     1       1.673   8.668  18.560  0.00  0.00    +0.000 C 
ATOM     16  O   UNL     1       2.373   8.991  17.611  0.00  0.00    +0.000 OA
ATOM     17  N   UNL     1       0.526   9.365  18.865  0.00  0.00    +0.000 N 
ATOM     18  H   UNL     1      -0.076   8.990  19.602  0.00  0.00    +0.000 HD
BRANCH  15  20
ATOM     19  N   UNL     1       1.603   7.371  20.746  0.00  0.00    +0.000 NA
ATOM     20  C   UNL     1       1.989   7.459  19.500  0.00  0.00    +0.000 C 
BRANCH  20  21
ATOM     21  C   UNL     1       2.779   6.305  19.020  0.00  0.00    +0.000 A 
ATOM     22  C   UNL     1       2.344   5.393  18.072  0.00  0.00    +0.000 A 
ATOM     23  S   UNL     1       3.534   4.194  17.798  0.00  0.00    +0.000 S 
ATOM     24  C   UNL     1       4.550   4.949  18.952  0.00  0.00    +0.000 A 
ATOM     25  N   UNL     1       5.760   4.453  19.248  0.00  0.00    +0.000 N 
ATOM     26  N   UNL     1       4.062   6.030  19.510  0.00  0.00    +0.000 NA
ATOM     27  H   UNL     1       6.184   3.793  18.606  0.00  0.00    +0.000 HD
ATOM     28  H   UNL     1       6.422   5.062  19.715  0.00  0.00    +0.000 HD
ENDBRANCH  20  21
BRANCH  19  30
ATOM     29  C   UNL     1       1.524   9.049  22.306  0.00  0.00    +0.000 C 
ATOM     30  O   UNL     1       0.873   8.483  21.176  0.00  0.00    +0.000 OA
ENDBRANCH  19  30
ENDBRANCH  15  20
ENDBRANCH   1  17
BRANCH   6  31
ATOM     31  C   UNL     1      -3.012  13.076  20.437  0.00  0.00    +0.000 C 
ATOM     32  O   UNL     1      -3.369  12.889  21.591  0.00  0.00    +0.000 OA
BRANCH  31  33
ATOM     33  O   UNL     1      -2.525  14.274  20.054  0.00  0.00    +0.000 OA
ATOM     34  H   UNL     1      -2.503  14.445  19.086  0.00  0.00    +0.000 HD
ENDBRANCH  31  33
ENDBRANCH   6  31
TORSDOF 7
ENDMDL
MODEL 8
REMARK VINA RESULT:      -6.3      2.449      9.018
REMARK  Name = 
REMARK  8 active torsions:
REMARK  status: ('A' for Active; 'I' for Inactive)
REMARK    1  A    between atoms: C_1  and  O_2
REMARK    2  A    between atoms: O_2  and  N_3
REMARK    3  A    between atoms: C_4  and  C_5
REMARK    4  A    between atoms: C_4  and  C_25
REMARK    5  A    between atoms: N_7  and  C_8
REMARK    6  A    between atoms: C_12  and  C_13
REMARK    7  A    between atoms: C_18  and  C_19
REMARK    8  A    between atoms: C_19  and  O_21
REMARK                            x       y       z     vdW  Elec       q    Type
REMARK                         _______ _______ _______ _____ _____    ______ ____
ROOT
ATOM      1  C   UNL     1      -0.563  11.043  17.940  0.00  0.00    +0.000 C 
ATOM      2  C   UNL     1      -1.929  10.708  17.288  0.00  0.00    +0.000 C 
ATOM      3  N   UNL     1      -2.839  10.844  18.416  0.00  0.00    +0.000 NA
ATOM      4  C   UNL     1      -4.251  11.153  18.220  0.00  0.00    +0.000 C 
ATOM      5  C   UNL     1      -4.508  12.161  19.330  0.00  0.00    +0.000 C 
ATOM      6  C   UNL     1      -3.318  12.592  19.808  0.00  0.00    +0.000 C 
ATOM      7  N   UNL     1      -2.327  11.878  19.189  0.00  0.00    +0.000 N 
ATOM      8  C   UNL     1      -0.975  12.072  18.993  0.00  0.00    +0.000 C 
ATOM      9  O   UNL     1      -0.255  12.819  19.639  0.00  0.00    +0.000 OA
ENDROOT
BRANCH   5  10
ATOM     10  C   UNL     1      -5.768  12.537  19.860  0.00  0.00    +0.000 A 
ATOM     11  C   UNL     1      -6.531  11.938  20.846  0.00  0.00    +0.000 A 
ATOM     12  C   UNL     1      -7.744  12.644  21.109  0.00  0.00    +0.000 A 
ATOM     13  C   UNL     1      -7.867  13.766  20.322  0.00  0.00    +0.000 A 
ATOM     14  S   UNL     1      -6.527  13.972  19.286  0.00  0.00    +0.000 S 
ENDBRANCH   5  10
BRANCH   1  17
ATOM     15  C   UNL     1       1.385   9.610  18.524  0.00  0.00    +0.000 C 
ATOM     16  O   UNL     1       2.143  10.309  17.867  0.00  0.00    +0.000 OA
ATOM     17  N   UNL     1       0.047   9.917  18.628  0.00  0.00    +0.000 N 
ATOM     18  H   UNL     1      -0.559   9.243  19.101  0.00  0.00    +0.000 HD
BRANCH  15  20
ATOM     19  N   UNL     1       1.623   8.108  20.561  0.00  0.00    +0.000 NA
ATOM     20  C   UNL     1       1.837   8.323  19.290  0.00  0.00    +0.000 C 
BRANCH  20  21
ATOM     21  C   UNL     1       2.565   7.238  18.598  0.00  0.00    +0.000 A 
ATOM     22  C   UNL     1       2.314   5.887  18.771  0.00  0.00    +0.000 A 
ATOM     23  S   UNL     1       3.376   4.949  17.812  0.00  0.00    +0.000 S 
ATOM     24  C   UNL     1       4.107   6.385  17.230  0.00  0.00    +0.000 A 
ATOM     25  N   UNL     1       5.121   6.346  16.355  0.00  0.00    +0.000 N 
ATOM     26  N   UNL     1       3.604   7.501  17.695  0.00  0.00    +0.000 NA
ATOM     27  H   UNL     1       5.283   5.491  15.835  0.00  0.00    +0.000 HD
ATOM     28  H   UNL     1       5.336   7.192  15.839  0.00  0.00    +0.000 HD
ENDBRANCH  20  21
BRANCH  19  30
ATOM     29  C   UNL     1      -0.203   8.633  21.843  0.00  0.00    +0.000 C 
ATOM     30  O   UNL     1       0.947   9.156  21.192  0.00  0.00    +0.000 OA
ENDBRANCH  19  30
ENDBRANCH  15  20
ENDBRANCH   1  17
BRANCH   6  31
ATOM     31  C   UNL     1      -3.107  13.648  20.838  0.00  0.00    +0.000 C 
ATOM     32  O   UNL     1      -2.938  13.409  22.024  0.00  0.00    +0.000 OA
BRANCH  31  33
ATOM     33  O   UNL     1      -3.053  14.916  20.378  0.00  0.00    +0.000 OA
ATOM     34  H   UNL     1      -2.831  15.608  21.040  0.00  0.00    +0.000 HD
ENDBRANCH  31  33
ENDBRANCH   6  31
TORSDOF 7
ENDMDL
MODEL 9
REMARK VINA RESULT:      -6.2      3.141      8.851
REMARK  Name = 
REMARK  8 active torsions:
REMARK  status: ('A' for Active; 'I' for Inactive)
REMARK    1  A    between atoms: C_1  and  O_2
REMARK    2  A    between atoms: O_2  and  N_3
REMARK    3  A    between atoms: C_4  and  C_5
REMARK    4  A    between atoms: C_4  and  C_25
REMARK    5  A    between atoms: N_7  and  C_8
REMARK    6  A    between atoms: C_12  and  C_13
REMARK    7  A    between atoms: C_18  and  C_19
REMARK    8  A    between atoms: C_19  and  O_21
REMARK                            x       y       z     vdW  Elec       q    Type
REMARK                         _______ _______ _______ _____ _____    ______ ____
ROOT
ATOM      1  C   UNL     1      -0.118  12.359  21.916  0.00  0.00    +0.000 C 
ATOM      2  C   UNL     1       0.030  13.901  21.980  0.00  0.00    +0.000 C 
ATOM      3  N   UNL     1      -1.360  14.334  21.988  0.00  0.00    +0.000 NA
ATOM      4  C   UNL     1      -1.754  15.615  22.566  0.00  0.00    +0.000 C 
ATOM      5  C   UNL     1      -3.032  15.246  23.303  0.00  0.00    +0.000 C 
ATOM      6  C   UNL     1      -3.103  13.899  23.401  0.00  0.00    +0.000 C 
ATOM      7  N   UNL     1      -2.051  13.365  22.705  0.00  0.00    +0.000 N 
ATOM      8  C   UNL     1      -1.405  12.146  22.713  0.00  0.00    +0.000 C 
ATOM      9  O   UNL     1      -1.855  11.098  23.150  0.00  0.00    +0.000 OA
ENDROOT
BRANCH   5  10
ATOM     10  C   UNL     1      -4.045  16.135  23.744  0.00  0.00    +0.000 A 
ATOM     11  C   UNL     1      -5.326  16.330  23.261  0.00  0.00    +0.000 A 
ATOM     12  C   UNL     1      -6.048  17.315  24.000  0.00  0.00    +0.000 A 
ATOM     13  C   UNL     1      -5.300  17.838  25.030  0.00  0.00    +0.000 A 
ATOM     14  S   UNL     1      -3.747  17.137  25.112  0.00  0.00    +0.000 S 
ENDBRANCH   5  10
BRANCH   1  17
ATOM     15  C   UNL     1      -0.049  10.553  20.206  0.00  0.00    +0.000 C 
ATOM     16  O   UNL     1       0.369   9.746  21.023  0.00  0.00    +0.000 OA
ATOM     17  N   UNL     1      -0.334  11.850  20.571  0.00  0.00    +0.000 N 
ATOM     18  H   UNL     1      -0.579  12.509  19.829  0.00  0.00    +0.000 HD
BRANCH  15  20
ATOM     19  N   UNL     1       0.605   9.685  17.907  0.00  0.00    +0.000 NA
ATOM     20  C   UNL     1      -0.291  10.216  18.698  0.00  0.00    +0.000 C 
BRANCH  20  21
ATOM     21  C   UNL     1      -1.591  10.495  18.052  0.00  0.00    +0.000 A 
ATOM     22  C   UNL     1      -2.004   9.949  16.847  0.00  0.00    +0.000 A 
ATOM     23  S   UNL     1      -3.558  10.528  16.425  0.00  0.00    +0.000 S 
ATOM     24  C   UNL     1      -3.589  11.469  17.856  0.00  0.00    +0.000 A 
ATOM     25  N   UNL     1      -4.637  12.248  18.157  0.00  0.00    +0.000 N 
ATOM     26  N   UNL     1      -2.529  11.367  18.619  0.00  0.00    +0.000 NA
ATOM     27  H   UNL     1      -5.518  12.082  17.683  0.00  0.00    +0.000 HD
ATOM     28  H   UNL     1      -4.735  12.563  19.115  0.00  0.00    +0.000 HD
ENDBRANCH  20  21
BRANCH  19  30
ATOM     29  C   UNL     1       2.256   8.127  18.230  0.00  0.00    +0.000 C 
ATOM     30  O   UNL     1       1.828   9.447  18.541  0.00  0.00    +0.000 OA
ENDBRANCH  19  30
ENDBRANCH  15  20
ENDBRANCH   1  17
BRANCH   6  31
ATOM     31  C   UNL     1      -4.142  13.116  24.127  0.00  0.00    +0.000 C 
ATOM     32  O   UNL     1      -5.015  12.471  23.564  0.00  0.00    +0.000 OA
BRANCH  31  33
ATOM     33  O   UNL     1      -4.040  13.107  25.472  0.00  0.00    +0.000 OA
ATOM     34  H   UNL     1      -4.879  12.983  25.970  0.00  0.00    +0.000 HD
ENDBRANCH  31  33
ENDBRANCH   6  31
TORSDOF 7
ENDMDL
