MODEL 1
REMARK VINA RESULT:      -8.0      0.000      0.000
REMARK  Name = 
REMARK  5 active torsions:
REMARK  status: ('A' for Active; 'I' for Inactive)
REMARK    1  A    between atoms: C_2  and  O_3
REMARK    2  A    between atoms: C_2  and  C_4
REMARK    3  A    between atoms: C_11  and  C_12
REMARK    4  A    between atoms: N_14  and  C_15
REMARK    5  A    between atoms: C_15  and  C_16
REMARK                            x       y       z     vdW  Elec       q    Type
REMARK                         _______ _______ _______ _____ _____    ______ ____
ROOT
ATOM      1  C   UNL     1       5.901   5.321  17.735  0.00  0.00    +0.000 A 
ATOM      2  C   UNL     1       5.656   4.080  18.276  0.00  0.00    +0.000 A 
ATOM      3  C   UNL     1       4.472   4.193  19.052  0.00  0.00    +0.000 A 
ATOM      4  C   UNL     1       3.735   3.304  19.850  0.00  0.00    +0.000 A 
ATOM      5  C   UNL     1       2.580   3.779  20.473  0.00  0.00    +0.000 A 
ATOM      6 BR   UNL     1       1.575   2.604  21.568  0.00  0.00    +0.000 Br
ATOM      7  C   UNL     1       2.140   5.095  20.301  0.00  0.00    +0.000 A 
ATOM      8  C   UNL     1       2.853   6.007  19.497  0.00  0.00    +0.000 A 
ATOM      9  C   UNL     1       4.029   5.508  18.909  0.00  0.00    +0.000 A 
ATOM     10  O   UNL     1       4.913   6.192  18.116  0.00  0.00    +0.000 OA
ENDROOT
BRANCH   8  11
ATOM     11  C   UNL     1       2.389   7.400  19.219  0.00  0.00    +0.000 C 
ATOM     12  O   UNL     1       2.548   7.893  18.108  0.00  0.00    +0.000 OA
ATOM     13  N   UNL     1       1.756   8.081  20.247  0.00  0.00    +0.000 N 
ATOM     14  H   UNL     1       1.757   7.718  21.187  0.00  0.00    +0.000 HD
BRANCH  13  15
ATOM     15  C   UNL     1       1.206   9.419  20.084  0.00  0.00    +0.000 C 
BRANCH  15  16
ATOM     16  C   UNL     1      -0.265   9.503  20.541  0.00  0.00    +0.000 C 
ATOM     17  C   UNL     1      -0.773  10.948  20.701  0.00  0.00    +0.000 C 
ATOM     18  C   UNL     1      -0.229  11.633  21.954  0.00  0.00    +0.000 C 
ATOM     19  N   UNL     1      -0.495  10.851  23.163  0.00  0.00    +0.000 NA
ATOM     20  C   UNL     1       0.087   9.514  23.066  0.00  0.00    +0.000 C 
ATOM     21  C   UNL     1      -0.473   8.748  21.866  0.00  0.00    +0.000 C 
ATOM     22  H   UNL     1      -1.503  10.769  23.294  0.00  0.00    +0.000 HD
ENDBRANCH  15  16
ENDBRANCH  13  15
ENDBRANCH   8  11
BRANCH   1  24
ATOM     23  O   UNL     1       7.257   6.977  16.707  0.00  0.00    +0.000 OA
ATOM     24  C   UNL     1       6.969   5.803  16.896  0.00  0.00    +0.000 C 
BRANCH  24  25
ATOM     25  O   UNL     1       7.637   4.781  16.307  0.00  0.00    +0.000 OA
ATOM     26  H   UNL     1       7.004   4.105  15.972  0.00  0.00    +0.000 HD
ENDBRANCH  24  25
ENDBRANCH   1  24
TORSDOF 5
ENDMDL
MODEL 2
REMARK VINA RESULT:      -7.8      1.008      1.201
REMARK  Name = 
REMARK  5 active torsions:
REMARK  status: ('A' for Active; 'I' for Inactive)
REMARK    1  A    between atoms: C_2  and  O_3
REMARK    2  A    between atoms: C_2  and  C_4
REMARK    3  A    between atoms: C_11  and  C_12
REMARK    4  A    between atoms: N_14  and  C_15
REMARK    5  A    between atoms: C_15  and  C_16
REMARK                            x       y       z     vdW  Elec       q    Type
REMARK                         _______ _______ _______ _____ _____    ______ ____
ROOT
ATOM      1  C   UNL     1       4.800   5.025  16.592  0.00  0.00    +0.000 A 
ATOM      2  C   UNL     1       4.607   3.799  17.188  0.00  0.00    +0.000 A 
ATOM      3  C   UNL     1       3.760   4.012  18.308  0.00  0.00    +0.000 A 
ATOM      4  C   UNL     1       3.228   3.181  19.306  0.00  0.00    +0.000 A 
ATOM      5  C   UNL     1       2.398   3.756  20.270  0.00  0.00    +0.000 A 
ATOM      6 BR   UNL     1       1.680   2.659  21.638  0.00  0.00    +0.000 Br
ATOM      7  C   UNL     1       2.076   5.116  20.246  0.00  0.00    +0.000 A 
ATOM      8  C   UNL     1       2.586   5.973  19.251  0.00  0.00    +0.000 A 
ATOM      9  C   UNL     1       3.444   5.371  18.313  0.00  0.00    +0.000 A 
ATOM     10  O   UNL     1       4.093   5.983  17.272  0.00  0.00    +0.000 OA
ENDROOT
BRANCH   8  11
ATOM     11  C   UNL     1       2.215   7.416  19.135  0.00  0.00    +0.000 C 
ATOM     12  O   UNL     1       2.355   8.005  18.069  0.00  0.00    +0.000 OA
ATOM     13  N   UNL     1       1.687   8.033  20.257  0.00  0.00    +0.000 N 
ATOM     14  H   UNL     1       1.708   7.579  21.156  0.00  0.00    +0.000 HD
BRANCH  13  15
ATOM     15  C   UNL     1       1.232   9.416  20.255  0.00  0.00    +0.000 C 
BRANCH  15  16
ATOM     16  C   UNL     1      -0.257   9.540  20.638  0.00  0.00    +0.000 C 
ATOM     17  C   UNL     1      -0.741  10.997  20.747  0.00  0.00    +0.000 C 
ATOM     18  C   UNL     1      -0.244  11.693  22.014  0.00  0.00    +0.000 C 
ATOM     19  N   UNL     1      -0.586  10.939  23.222  0.00  0.00    +0.000 NA
ATOM     20  C   UNL     1      -0.029   9.589  23.176  0.00  0.00    +0.000 C 
ATOM     21  C   UNL     1      -0.546   8.814  21.964  0.00  0.00    +0.000 C 
ATOM     22  H   UNL     1      -1.601  10.881  23.304  0.00  0.00    +0.000 HD
ENDBRANCH  15  16
ENDBRANCH  13  15
ENDBRANCH   8  11
BRANCH   1  24
ATOM     23  O   UNL     1       6.363   4.701  14.835  0.00  0.00    +0.000 OA
ATOM     24  C   UNL     1       5.583   5.418  15.448  0.00  0.00    +0.000 C 
BRANCH  24  25
ATOM     25  O   UNL     1       5.367   6.716  15.120  0.00  0.00    +0.000 OA
ATOM     26  H   UNL     1       5.860   7.310  15.730  0.00  0.00    +0.000 HD
ENDBRANCH  24  25
ENDBRANCH   1  24
TORSDOF 5
ENDMDL
MODEL 3
REMARK VINA RESULT:      -7.6      1.059      1.128
REMARK  Name = 
REMARK  5 active torsions:
REMARK  status: ('A' for Active; 'I' for Inactive)
REMARK    1  A    between atoms: C_2  and  O_3
REMARK    2  A    between atoms: C_2  and  C_4
REMARK    3  A    between atoms: C_11  and  C_12
REMARK    4  A    between atoms: N_14  and  C_15
REMARK    5  A    between atoms: C_15  and  C_16
REMARK                            x       y       z     vdW  Elec       q    Type
REMARK                         _______ _______ _______ _____ _____    ______ ____
ROOT
ATOM      1  C   UNL     1       6.160   5.790  18.023  0.00  0.00    +0.000 A 
ATOM      2  C   UNL     1       5.815   4.460  17.937  0.00  0.00    +0.000 A 
ATOM      3  C   UNL     1       4.433   4.370  18.252  0.00  0.00    +0.000 A 
ATOM      4  C   UNL     1       3.519   3.311  18.356  0.00  0.00    +0.000 A 
ATOM      5  C   UNL     1       2.196   3.610  18.685  0.00  0.00    +0.000 A 
ATOM      6 BR   UNL     1       0.946   2.197  18.848  0.00  0.00    +0.000 Br
ATOM      7  C   UNL     1       1.769   4.926  18.887  0.00  0.00    +0.000 A 
ATOM      8  C   UNL     1       2.661   6.011  18.778  0.00  0.00    +0.000 A 
ATOM      9  C   UNL     1       3.993   5.675  18.478  0.00  0.00    +0.000 A 
ATOM     10  O   UNL     1       5.055   6.531  18.349  0.00  0.00    +0.000 OA
ENDROOT
BRANCH   8  11
ATOM     11  C   UNL     1       2.242   7.440  18.910  0.00  0.00    +0.000 C 
ATOM     12  O   UNL     1       2.159   8.152  17.916  0.00  0.00    +0.000 OA
ATOM     13  N   UNL     1       1.929   7.901  20.178  0.00  0.00    +0.000 N 
ATOM     14  H   UNL     1       2.134   7.349  20.996  0.00  0.00    +0.000 HD
BRANCH  13  15
ATOM     15  C   UNL     1       1.451   9.253  20.430  0.00  0.00    +0.000 C 
BRANCH  15  16
ATOM     16  C   UNL     1      -0.058   9.288  20.744  0.00  0.00    +0.000 C 
ATOM     17  C   UNL     1      -0.653  10.708  20.727  0.00  0.00    +0.000 C 
ATOM     18  C   UNL     1      -0.266  11.529  21.957  0.00  0.00    +0.000 C 
ATOM     19  N   UNL     1      -0.605  10.837  23.203  0.00  0.00    +0.000 NA
ATOM     20  C   UNL     1       0.053   9.535  23.279  0.00  0.00    +0.000 C 
ATOM     21  C   UNL     1      -0.351   8.638  22.108  0.00  0.00    +0.000 C 
ATOM     22  H   UNL     1      -1.615  10.707  23.250  0.00  0.00    +0.000 HD
ENDBRANCH  15  16
ENDBRANCH  13  15
ENDBRANCH   8  11
BRANCH   1  24
ATOM     23  O   UNL     1       8.183   6.811  18.733  0.00  0.00    +0.000 OA
ATOM     24  C   UNL     1       7.422   6.462  17.840  0.00  0.00    +0.000 C 
BRANCH  24  25
ATOM     25  O   UNL     1       7.679   6.687  16.527  0.00  0.00    +0.000 OA
ATOM     26  H   UNL     1       7.049   6.182  15.964  0.00  0.00    +0.000 HD
ENDBRANCH  24  25
ENDBRANCH   1  24
TORSDOF 5
ENDMDL
MODEL 4
REMARK VINA RESULT:      -7.6      5.158      6.634
REMARK  Name = 
REMARK  5 active torsions:
REMARK  status: ('A' for Active; 'I' for Inactive)
REMARK    1  A    between atoms: C_2  and  O_3
REMARK    2  A    between atoms: C_2  and  C_4
REMARK    3  A    between atoms: C_11  and  C_12
REMARK    4  A    between atoms: N_14  and  C_15
REMARK    5  A    between atoms: C_15  and  C_16
REMARK                            x       y       z     vdW  Elec       q    Type
REMARK                         _______ _______ _______ _____ _____    ______ ____
ROOT
ATOM      1  C   UNL     1       6.875   5.047  14.329  0.00  0.00    +0.000 A 
ATOM      2  C   UNL     1       5.689   4.434  14.660  0.00  0.00    +0.000 A 
ATOM      3  C   UNL     1       5.428   4.745  16.021  0.00  0.00    +0.000 A 
ATOM      4  C   UNL     1       4.409   4.408  16.926  0.00  0.00    +0.000 A 
ATOM      5  C   UNL     1       4.479   4.922  18.221  0.00  0.00    +0.000 A 
ATOM      6 BR   UNL     1       3.126   4.469  19.466  0.00  0.00    +0.000 Br
ATOM      7  C   UNL     1       5.516   5.771  18.619  0.00  0.00    +0.000 A 
ATOM      8  C   UNL     1       6.546   6.137  17.730  0.00  0.00    +0.000 A 
ATOM      9  C   UNL     1       6.466   5.577  16.443  0.00  0.00    +0.000 A 
ATOM     10  O   UNL     1       7.350   5.744  15.409  0.00  0.00    +0.000 OA
ENDROOT
BRANCH   8  11
ATOM     11  C   UNL     1       7.635   7.099  18.080  0.00  0.00    +0.000 C 
ATOM     12  O   UNL     1       8.423   6.837  18.984  0.00  0.00    +0.000 OA
ATOM     13  N   UNL     1       7.730   8.260  17.331  0.00  0.00    +0.000 N 
ATOM     14  H   UNL     1       6.998   8.524  16.690  0.00  0.00    +0.000 HD
BRANCH  13  15
ATOM     15  C   UNL     1       8.782   9.246  17.533  0.00  0.00    +0.000 C 
BRANCH  15  16
ATOM     16  C   UNL     1       8.335  10.391  18.464  0.00  0.00    +0.000 C 
ATOM     17  C   UNL     1       8.326  11.769  17.776  0.00  0.00    +0.000 C 
ATOM     18  C   UNL     1       9.730  12.337  17.569  0.00  0.00    +0.000 C 
ATOM     19  N   UNL     1      10.490  12.384  18.820  0.00  0.00    +0.000 NA
ATOM     20  C   UNL     1      10.602  11.057  19.419  0.00  0.00    +0.000 C 
ATOM     21  C   UNL     1       9.226  10.461  19.717  0.00  0.00    +0.000 C 
ATOM     22  H   UNL     1      10.020  13.009  19.474  0.00  0.00    +0.000 HD
ENDBRANCH  15  16
ENDBRANCH  13  15
ENDBRANCH   8  11
BRANCH   1  24
ATOM     23  O   UNL     1       7.376   4.413  12.096  0.00  0.00    +0.000 OA
ATOM     24  C   UNL     1       7.637   5.055  13.105  0.00  0.00    +0.000 C 
BRANCH  24  25
ATOM     25  O   UNL     1       8.717   5.869  13.198  0.00  0.00    +0.000 OA
ATOM     26  H   UNL     1       8.441   6.776  13.463  0.00  0.00    +0.000 HD
ENDBRANCH  24  25
ENDBRANCH   1  24
TORSDOF 5
ENDMDL
MODEL 5
REMARK VINA RESULT:      -7.5      1.589      2.011
REMARK  Name = 
REMARK  5 active torsions:
REMARK  status: ('A' for Active; 'I' for Inactive)
REMARK    1  A    between atoms: C_2  and  O_3
REMARK    2  A    between atoms: C_2  and  C_4
REMARK    3  A    between atoms: C_11  and  C_12
REMARK    4  A    between atoms: N_14  and  C_15
REMARK    5  A    between atoms: C_15  and  C_16
REMARK                            x       y       z     vdW  Elec       q    Type
REMARK                         _______ _______ _______ _____ _____    ______ ____
ROOT
ATOM      1  C   UNL     1       6.027   6.130  17.547  0.00  0.00    +0.000 A 
ATOM      2  C   UNL     1       5.794   4.901  18.122  0.00  0.00    +0.000 A 
ATOM      3  C   UNL     1       4.517   4.970  18.741  0.00  0.00    +0.000 A 
ATOM      4  C   UNL     1       3.741   4.072  19.491  0.00  0.00    +0.000 A 
ATOM      5  C   UNL     1       2.490   4.497  19.941  0.00  0.00    +0.000 A 
ATOM      6 BR   UNL     1       1.431   3.310  20.969  0.00  0.00    +0.000 Br
ATOM      7  C   UNL     1       1.996   5.770  19.643  0.00  0.00    +0.000 A 
ATOM      8  C   UNL     1       2.746   6.689  18.883  0.00  0.00    +0.000 A 
ATOM      9  C   UNL     1       4.015   6.244  18.472  0.00  0.00    +0.000 A 
ATOM     10  O   UNL     1       4.948   6.948  17.756  0.00  0.00    +0.000 OA
ENDROOT
BRANCH   8  11
ATOM     11  C   UNL     1       2.235   8.032  18.474  0.00  0.00    +0.000 C 
ATOM     12  O   UNL     1       2.427   8.445  17.335  0.00  0.00    +0.000 OA
ATOM     13  N   UNL     1       1.522   8.760  19.412  0.00  0.00    +0.000 N 
ATOM     14  H   UNL     1       1.493   8.472  20.378  0.00  0.00    +0.000 HD
BRANCH  13  15
ATOM     15  C   UNL     1       0.922  10.053  19.118  0.00  0.00    +0.000 C 
BRANCH  15  16
ATOM     16  C   UNL     1      -0.546  10.133  19.581  0.00  0.00    +0.000 C 
ATOM     17  C   UNL     1      -1.543  10.317  18.422  0.00  0.00    +0.000 C 
ATOM     18  C   UNL     1      -1.532  11.734  17.849  0.00  0.00    +0.000 C 
ATOM     19  N   UNL     1      -1.748  12.744  18.887  0.00  0.00    +0.000 NA
ATOM     20  C   UNL     1      -0.733  12.650  19.934  0.00  0.00    +0.000 C 
ATOM     21  C   UNL     1      -0.742  11.272  20.597  0.00  0.00    +0.000 C 
ATOM     22  H   UNL     1      -2.670  12.608  19.300  0.00  0.00    +0.000 HD
ENDBRANCH  15  16
ENDBRANCH  13  15
ENDBRANCH   8  11
BRANCH   1  24
ATOM     23  O   UNL     1       7.712   7.716  17.017  0.00  0.00    +0.000 OA
ATOM     24  C   UNL     1       7.160   6.642  16.819  0.00  0.00    +0.000 C 
BRANCH  24  25
ATOM     25  O   UNL     1       7.556   5.783  15.847  0.00  0.00    +0.000 OA
ATOM     26  H   UNL     1       7.899   6.279  15.069  0.00  0.00    +0.000 HD
ENDBRANCH  24  25
ENDBRANCH   1  24
TORSDOF 5
ENDMDL
MODEL 6
REMARK VINA RESULT:      -7.5      3.605      6.107
REMARK  Name = 
REMARK  5 active torsions:
REMARK  status: ('A' for Active; 'I' for Inactive)
REMARK    1  A    between atoms: C_2  and  O_3
REMARK    2  A    between atoms: C_2  and  C_4
REMARK    3  A    between atoms: C_11  and  C_12
REMARK    4  A    between atoms: N_14  and  C_15
REMARK    5  A    between atoms: C_15  and  C_16
REMARK                            x       y       z     vdW  Elec       q    Type
REMARK                         _______ _______ _______ _____ _____    ______ ____
ROOT
ATOM      1  C   UNL     1       2.976   7.437  18.424  0.00  0.00    +0.000 A 
ATOM      2  C   UNL     1       3.536   7.799  17.220  0.00  0.00    +0.000 A 
ATOM      3  C   UNL     1       4.364   6.721  16.808  0.00  0.00    +0.000 A 
ATOM      4  C   UNL     1       5.201   6.494  15.704  0.00  0.00    +0.000 A 
ATOM      5  C   UNL     1       5.873   5.274  15.625  0.00  0.00    +0.000 A 
ATOM      6 BR   UNL     1       7.020   4.949  14.154  0.00  0.00    +0.000 Br
ATOM      7  C   UNL     1       5.713   4.282  16.598  0.00  0.00    +0.000 A 
ATOM      8  C   UNL     1       4.871   4.476  17.711  0.00  0.00    +0.000 A 
ATOM      9  C   UNL     1       4.233   5.728  17.780  0.00  0.00    +0.000 A 
ATOM     10  O   UNL     1       3.396   6.179  18.767  0.00  0.00    +0.000 OA
ENDROOT
BRANCH   8  11
ATOM     11  C   UNL     1       4.606   3.424  18.739  0.00  0.00    +0.000 C 
ATOM     12  O   UNL     1       5.353   3.303  19.704  0.00  0.00    +0.000 OA
ATOM     13  N   UNL     1       3.483   2.631  18.568  0.00  0.00    +0.000 N 
ATOM     14  H   UNL     1       2.962   2.649  17.706  0.00  0.00    +0.000 HD
BRANCH  13  15
ATOM     15  C   UNL     1       3.083   1.613  19.529  0.00  0.00    +0.000 C 
BRANCH  15  16
ATOM     16  C   UNL     1       1.669   1.864  20.089  0.00  0.00    +0.000 C 
ATOM     17  C   UNL     1       0.787   2.718  19.160  0.00  0.00    +0.000 C 
ATOM     18  C   UNL     1       1.172   4.197  19.170  0.00  0.00    +0.000 C 
ATOM     19  N   UNL     1       1.186   4.748  20.527  0.00  0.00    +0.000 NA
ATOM     20  C   UNL     1       2.112   4.013  21.385  0.00  0.00    +0.000 C 
ATOM     21  C   UNL     1       1.736   2.534  21.473  0.00  0.00    +0.000 C 
ATOM     22  H   UNL     1       0.247   4.693  20.921  0.00  0.00    +0.000 HD
ENDBRANCH  15  16
ENDBRANCH  13  15
ENDBRANCH   8  11
BRANCH   1  24
ATOM     23  O   UNL     1       1.416   9.124  19.023  0.00  0.00    +0.000 OA
ATOM     24  C   UNL     1       2.086   8.141  19.312  0.00  0.00    +0.000 C 
BRANCH  24  25
ATOM     25  O   UNL     1       2.077   7.585  20.549  0.00  0.00    +0.000 OA
ATOM     26  H   UNL     1       2.166   6.607  20.486  0.00  0.00    +0.000 HD
ENDBRANCH  24  25
ENDBRANCH   1  24
TORSDOF 5
ENDMDL
MODEL 7
REMARK VINA RESULT:      -7.5      2.730      4.164
REMARK  Name = 
REMARK  5 active torsions:
REMARK  status: ('A' for Active; 'I' for Inactive)
REMARK    1  A    between atoms: C_2  and  O_3
REMARK    2  A    between atoms: C_2  and  C_4
REMARK    3  A    between atoms: C_11  and  C_12
REMARK    4  A    between atoms: N_14  and  C_15
REMARK    5  A    between atoms: C_15  and  C_16
REMARK                            x       y       z     vdW  Elec       q    Type
REMARK                         _______ _______ _______ _____ _____    ______ ____
ROOT
ATOM      1  C   UNL     1       2.483   3.822  20.226  0.00  0.00    +0.000 A 
ATOM      2  C   UNL     1       3.651   3.384  19.645  0.00  0.00    +0.000 A 
ATOM      3  C   UNL     1       4.102   4.422  18.787  0.00  0.00    +0.000 A 
ATOM      4  C   UNL     1       5.196   4.573  17.921  0.00  0.00    +0.000 A 
ATOM      5  C   UNL     1       5.327   5.775  17.225  0.00  0.00    +0.000 A 
ATOM      6 BR   UNL     1       6.786   5.997  16.038  0.00  0.00    +0.000 Br
ATOM      7  C   UNL     1       4.416   6.822  17.390  0.00  0.00    +0.000 A 
ATOM      8  C   UNL     1       3.314   6.706  18.261  0.00  0.00    +0.000 A 
ATOM      9  C   UNL     1       3.191   5.471  18.923  0.00  0.00    +0.000 A 
ATOM     10  O   UNL     1       2.201   5.091  19.791  0.00  0.00    +0.000 OA
ENDROOT
BRANCH   8  11
ATOM     11  C   UNL     1       2.354   7.819  18.531  0.00  0.00    +0.000 C 
ATOM     12  O   UNL     1       2.038   8.592  17.633  0.00  0.00    +0.000 OA
ATOM     13  N   UNL     1       1.827   7.914  19.808  0.00  0.00    +0.000 N 
ATOM     14  H   UNL     1       2.199   7.362  20.565  0.00  0.00    +0.000 HD
BRANCH  13  15
ATOM     15  C   UNL     1       0.838   8.915  20.180  0.00  0.00    +0.000 C 
BRANCH  15  16
ATOM     16  C   UNL     1       1.373   9.895  21.245  0.00  0.00    +0.000 C 
ATOM     17  C   UNL     1       1.222   9.373  22.686  0.00  0.00    +0.000 C 
ATOM     18  C   UNL     1      -0.219   9.438  23.192  0.00  0.00    +0.000 C 
ATOM     19  N   UNL     1      -0.783  10.783  23.063  0.00  0.00    +0.000 NA
ATOM     20  C   UNL     1      -0.750  11.238  21.675  0.00  0.00    +0.000 C 
ATOM     21  C   UNL     1       0.679  11.263  21.131  0.00  0.00    +0.000 C 
ATOM     22  H   UNL     1      -0.246  11.428  23.641  0.00  0.00    +0.000 HD
ENDBRANCH  15  16
ENDBRANCH  13  15
ENDBRANCH   8  11
BRANCH   1  24
ATOM     23  O   UNL     1       1.849   2.841  22.293  0.00  0.00    +0.000 OA
ATOM     24  C   UNL     1       1.579   3.185  21.150  0.00  0.00    +0.000 C 
BRANCH  24  25
ATOM     25  O   UNL     1       0.357   2.990  20.594  0.00  0.00    +0.000 OA
ATOM     26  H   UNL     1      -0.314   3.562  21.032  0.00  0.00    +0.000 HD
ENDBRANCH  24  25
ENDBRANCH   1  24
TORSDOF 5
ENDMDL
MODEL 8
REMARK VINA RESULT:      -7.5      2.727      4.028
REMARK  Name = 
REMARK  5 active torsions:
REMARK  status: ('A' for Active; 'I' for Inactive)
REMARK    1  A    between atoms: C_2  and  O_3
REMARK    2  A    between atoms: C_2  and  C_4
REMARK    3  A    between atoms: C_11  and  C_12
REMARK    4  A    between atoms: N_14  and  C_15
REMARK    5  A    between atoms: C_15  and  C_16
REMARK                            x       y       z     vdW  Elec       q    Type
REMARK                         _______ _______ _______ _____ _____    ______ ____
ROOT
ATOM      1  C   UNL     1       2.544   3.897  19.935  0.00  0.00    +0.000 A 
ATOM      2  C   UNL     1       3.580   3.240  19.311  0.00  0.00    +0.000 A 
ATOM      3  C   UNL     1       4.103   4.128  18.333  0.00  0.00    +0.000 A 
ATOM      4  C   UNL     1       5.129   4.040  17.379  0.00  0.00    +0.000 A 
ATOM      5  C   UNL     1       5.376   5.151  16.571  0.00  0.00    +0.000 A 
ATOM      6 BR   UNL     1       6.743   5.053  15.264  0.00  0.00    +0.000 Br
ATOM      7  C   UNL     1       4.647   6.336  16.709  0.00  0.00    +0.000 A 
ATOM      8  C   UNL     1       3.620   6.459  17.665  0.00  0.00    +0.000 A 
ATOM      9  C   UNL     1       3.373   5.312  18.442  0.00  0.00    +0.000 A 
ATOM     10  O   UNL     1       2.416   5.157  19.410  0.00  0.00    +0.000 OA
ENDROOT
BRANCH   8  11
ATOM     11  C   UNL     1       2.862   7.724  17.905  0.00  0.00    +0.000 C 
ATOM     12  O   UNL     1       2.699   8.528  16.993  0.00  0.00    +0.000 OA
ATOM     13  N   UNL     1       2.336   7.925  19.171  0.00  0.00    +0.000 N 
ATOM     14  H   UNL     1       2.594   7.328  19.940  0.00  0.00    +0.000 HD
BRANCH  13  15
ATOM     15  C   UNL     1       1.529   9.087  19.513  0.00  0.00    +0.000 C 
BRANCH  15  16
ATOM     16  C   UNL     1       0.324   8.718  20.402  0.00  0.00    +0.000 C 
ATOM     17  C   UNL     1      -0.627   9.900  20.666  0.00  0.00    +0.000 C 
ATOM     18  C   UNL     1      -0.059  10.907  21.665  0.00  0.00    +0.000 C 
ATOM     19  N   UNL     1       0.336  10.266  22.921  0.00  0.00    +0.000 NA
ATOM     20  C   UNL     1       1.329   9.219  22.690  0.00  0.00    +0.000 C 
ATOM     21  C   UNL     1       0.792   8.140  21.750  0.00  0.00    +0.000 C 
ATOM     22  H   UNL     1      -0.487   9.857  23.362  0.00  0.00    +0.000 HD
ENDBRANCH  15  16
ENDBRANCH  13  15
ENDBRANCH   8  11
BRANCH   1  24
ATOM     23  O   UNL     1       1.938   3.273  22.144  0.00  0.00    +0.000 OA
ATOM     24  C   UNL     1       1.638   3.480  20.975  0.00  0.00    +0.000 C 
BRANCH  24  25
ATOM     25  O   UNL     1       0.377   3.325  20.503  0.00  0.00    +0.000 OA
ATOM     26  H   UNL     1      -0.280   3.530  21.207  0.00  0.00    +0.000 HD
ENDBRANCH  24  25
ENDBRANCH   1  24
TORSDOF 5
ENDMDL
MODEL 9
REMARK VINA RESULT:      -7.4      2.104      2.576
REMARK  Name = 
REMARK  5 active torsions:
REMARK  status: ('A' for Active; 'I' for Inactive)
REMARK    1  A    between atoms: C_2  and  O_3
REMARK    2  A    between atoms: C_2  and  C_4
REMARK    3  A    between atoms: C_11  and  C_12
REMARK    4  A    between atoms: N_14  and  C_15
REMARK    5  A    between atoms: C_15  and  C_16
REMARK                            x       y       z     vdW  Elec       q    Type
REMARK                         _______ _______ _______ _____ _____    ______ ____
ROOT
ATOM      1  C   UNL     1       4.679   5.952  17.097  0.00  0.00    +0.000 A 
ATOM      2  C   UNL     1       4.532   4.656  17.537  0.00  0.00    +0.000 A 
ATOM      3  C   UNL     1       3.623   4.690  18.628  0.00  0.00    +0.000 A 
ATOM      4  C   UNL     1       3.095   3.721  19.495  0.00  0.00    +0.000 A 
ATOM      5  C   UNL     1       2.190   4.133  20.474  0.00  0.00    +0.000 A 
ATOM      6 BR   UNL     1       1.476   2.847  21.667  0.00  0.00    +0.000 Br
ATOM      7  C   UNL     1       1.790   5.468  20.589  0.00  0.00    +0.000 A 
ATOM      8  C   UNL     1       2.294   6.462  19.726  0.00  0.00    +0.000 A 
ATOM      9  C   UNL     1       3.228   6.021  18.772  0.00  0.00    +0.000 A 
ATOM     10  O   UNL     1       3.887   6.784  17.844  0.00  0.00    +0.000 OA
ENDROOT
BRANCH   8  11
ATOM     11  C   UNL     1       1.844   7.886  19.757  0.00  0.00    +0.000 C 
ATOM     12  O   UNL     1       1.709   8.467  20.829  0.00  0.00    +0.000 OA
ATOM     13  N   UNL     1       1.623   8.515  18.543  0.00  0.00    +0.000 N 
ATOM     14  H   UNL     1       1.603   7.989  17.683  0.00  0.00    +0.000 HD
BRANCH  13  15
ATOM     15  C   UNL     1       1.242   9.916  18.438  0.00  0.00    +0.000 C 
BRANCH  15  16
ATOM     16  C   UNL     1      -0.105  10.206  19.130  0.00  0.00    +0.000 C 
ATOM     17  C   UNL     1      -1.326   9.925  18.236  0.00  0.00    +0.000 C 
ATOM     18  C   UNL     1      -1.527  10.987  17.155  0.00  0.00    +0.000 C 
ATOM     19  N   UNL     1      -1.597  12.335  17.722  0.00  0.00    +0.000 NA
ATOM     20  C   UNL     1      -0.387  12.654  18.477  0.00  0.00    +0.000 C 
ATOM     21  C   UNL     1      -0.168  11.663  19.621  0.00  0.00    +0.000 C 
ATOM     22  H   UNL     1      -2.405  12.398  18.341  0.00  0.00    +0.000 HD
ENDBRANCH  15  16
ENDBRANCH  13  15
ENDBRANCH   8  11
BRANCH   1  24
ATOM     23  O   UNL     1       5.074   7.013  15.010  0.00  0.00    +0.000 OA
ATOM     24  C   UNL     1       5.491   6.517  16.048  0.00  0.00    +0.000 C 
BRANCH  24  25
ATOM     25  O   UNL     1       6.812   6.426  16.340  0.00  0.00    +0.000 OA
ATOM     26  H   UNL     1       6.979   6.709  17.268  0.00  0.00    +0.000 HD
ENDBRANCH  24  25
ENDBRANCH   1  24
TORSDOF 5
ENDMDL
