MODEL 1
REMARK VINA RESULT:      -7.3      0.000      0.000
REMARK  Name = 
REMARK  1 active torsions:
REMARK  status: ('A' for Active; 'I' for Inactive)
REMARK    1  A    between atoms: C_4  and  N_5
REMARK                            x       y       z     vdW  Elec       q    Type
REMARK                         _______ _______ _______ _____ _____    ______ ____
ROOT
ATOM      1  O   UNL     1       7.537   5.901  18.657  0.00  0.00    +0.000 OA
ATOM      2  C   UNL     1       6.532   5.312  18.276  0.00  0.00    +0.000 C 
ATOM      3  C   UNL     1       5.480   4.942  19.234  0.00  0.00    +0.000 C 
ATOM      4  C   UNL     1       4.334   4.321  18.911  0.00  0.00    +0.000 C 
ATOM      5  C   UNL     1       4.085   4.039  17.438  0.00  0.00    +0.000 C 
ATOM      6  O   UNL     1       3.032   3.567  17.019  0.00  0.00    +0.000 OA
ATOM      7  C   UNL     1       5.159   4.337  16.466  0.00  0.00    +0.000 A 
ATOM      8  C   UNL     1       4.981   4.001  15.115  0.00  0.00    +0.000 A 
ATOM      9  C   UNL     1       5.999   4.244  14.191  0.00  0.00    +0.000 A 
ATOM     10  C   UNL     1       7.195   4.823  14.608  0.00  0.00    +0.000 A 
ATOM     11  C   UNL     1       7.370   5.173  15.947  0.00  0.00    +0.000 A 
ATOM     12  C   UNL     1       6.346   4.932  16.872  0.00  0.00    +0.000 A 
ENDROOT
BRANCH   4  13
ATOM     13  N   UNL     1       3.377   3.929  19.860  0.00  0.00    +0.000 N 
ATOM     14  C   UNL     1       3.355   2.624  20.532  0.00  0.00    +0.000 C 
ATOM     15  C   UNL     1       2.080   2.652  21.297  0.00  0.00    +0.000 C 
ATOM     16  C   UNL     1       1.439   3.810  21.129  0.00  0.00    +0.000 C 
ATOM     17  C   UNL     1       2.197   4.728  20.231  0.00  0.00    +0.000 C 
ENDBRANCH   4  13
TORSDOF 1
ENDMDL
MODEL 2
REMARK VINA RESULT:      -7.0      2.274      3.292
REMARK  Name = 
REMARK  1 active torsions:
REMARK  status: ('A' for Active; 'I' for Inactive)
REMARK    1  A    between atoms: C_4  and  N_5
REMARK                            x       y       z     vdW  Elec       q    Type
REMARK                         _______ _______ _______ _____ _____    ______ ____
ROOT
ATOM      1  O   UNL     1       4.861   7.021  15.625  0.00  0.00    +0.000 OA
ATOM      2  C   UNL     1       4.928   6.310  16.621  0.00  0.00    +0.000 C 
ATOM      3  C   UNL     1       3.835   5.383  16.948  0.00  0.00    +0.000 C 
ATOM      4  C   UNL     1       3.828   4.547  17.999  0.00  0.00    +0.000 C 
ATOM      5  C   UNL     1       5.070   4.518  18.875  0.00  0.00    +0.000 C 
ATOM      6  O   UNL     1       5.213   3.725  19.802  0.00  0.00    +0.000 OA
ATOM      7  C   UNL     1       6.150   5.491  18.609  0.00  0.00    +0.000 A 
ATOM      8  C   UNL     1       7.264   5.538  19.462  0.00  0.00    +0.000 A 
ATOM      9  C   UNL     1       8.277   6.475  19.244  0.00  0.00    +0.000 A 
ATOM     10  C   UNL     1       8.185   7.366  18.177  0.00  0.00    +0.000 A 
ATOM     11  C   UNL     1       7.087   7.312  17.317  0.00  0.00    +0.000 A 
ATOM     12  C   UNL     1       6.074   6.369  17.535  0.00  0.00    +0.000 A 
ENDROOT
BRANCH   4  13
ATOM     13  N   UNL     1       2.741   3.718  18.315  0.00  0.00    +0.000 N 
ATOM     14  C   UNL     1       1.610   4.112  19.163  0.00  0.00    +0.000 C 
ATOM     15  C   UNL     1       0.836   2.850  19.314  0.00  0.00    +0.000 C 
ATOM     16  C   UNL     1       1.404   1.850  18.638  0.00  0.00    +0.000 C 
ATOM     17  C   UNL     1       2.638   2.299  17.932  0.00  0.00    +0.000 C 
ENDBRANCH   4  13
TORSDOF 1
ENDMDL
MODEL 3
REMARK VINA RESULT:      -7.0      1.649      6.034
REMARK  Name = 
REMARK  1 active torsions:
REMARK  status: ('A' for Active; 'I' for Inactive)
REMARK    1  A    between atoms: C_4  and  N_5
REMARK                            x       y       z     vdW  Elec       q    Type
REMARK                         _______ _______ _______ _____ _____    ______ ____
ROOT
ATOM      1  O   UNL     1       0.781   4.300  17.260  0.00  0.00    +0.000 OA
ATOM      2  C   UNL     1       1.888   4.122  17.757  0.00  0.00    +0.000 C 
ATOM      3  C   UNL     1       3.104   4.423  16.988  0.00  0.00    +0.000 C 
ATOM      4  C   UNL     1       4.357   4.287  17.452  0.00  0.00    +0.000 C 
ATOM      5  C   UNL     1       4.521   3.849  18.899  0.00  0.00    +0.000 C 
ATOM      6  O   UNL     1       5.614   3.788  19.456  0.00  0.00    +0.000 OA
ATOM      7  C   UNL     1       3.316   3.473  19.668  0.00  0.00    +0.000 A 
ATOM      8  C   UNL     1       3.456   2.982  20.975  0.00  0.00    +0.000 A 
ATOM      9  C   UNL     1       2.331   2.590  21.703  0.00  0.00    +0.000 A 
ATOM     10  C   UNL     1       1.064   2.686  21.132  0.00  0.00    +0.000 A 
ATOM     11  C   UNL     1       0.919   3.188  19.839  0.00  0.00    +0.000 A 
ATOM     12  C   UNL     1       2.048   3.585  19.112  0.00  0.00    +0.000 A 
ENDROOT
BRANCH   4  13
ATOM     13  N   UNL     1       5.498   4.526  16.670  0.00  0.00    +0.000 N 
ATOM     14  C   UNL     1       6.394   5.678  16.832  0.00  0.00    +0.000 C 
ATOM     15  C   UNL     1       7.327   5.552  15.680  0.00  0.00    +0.000 C 
ATOM     16  C   UNL     1       7.049   4.473  14.947  0.00  0.00    +0.000 C 
ATOM     17  C   UNL     1       5.892   3.716  15.505  0.00  0.00    +0.000 C 
ENDBRANCH   4  13
TORSDOF 1
ENDMDL
MODEL 4
REMARK VINA RESULT:      -6.9      1.633      1.871
REMARK  Name = 
REMARK  1 active torsions:
REMARK  status: ('A' for Active; 'I' for Inactive)
REMARK    1  A    between atoms: C_4  and  N_5
REMARK                            x       y       z     vdW  Elec       q    Type
REMARK                         _______ _______ _______ _____ _____    ______ ____
ROOT
ATOM      1  O   UNL     1       4.034   7.461  17.460  0.00  0.00    +0.000 OA
ATOM      2  C   UNL     1       4.046   6.237  17.507  0.00  0.00    +0.000 C 
ATOM      3  C   UNL     1       3.326   5.527  18.575  0.00  0.00    +0.000 C 
ATOM      4  C   UNL     1       3.259   4.192  18.697  0.00  0.00    +0.000 C 
ATOM      5  C   UNL     1       3.926   3.358  17.615  0.00  0.00    +0.000 C 
ATOM      6  O   UNL     1       3.843   2.134  17.572  0.00  0.00    +0.000 OA
ATOM      7  C   UNL     1       4.715   4.048  16.573  0.00  0.00    +0.000 A 
ATOM      8  C   UNL     1       5.411   3.290  15.618  0.00  0.00    +0.000 A 
ATOM      9  C   UNL     1       6.190   3.924  14.648  0.00  0.00    +0.000 A 
ATOM     10  C   UNL     1       6.277   5.315  14.625  0.00  0.00    +0.000 A 
ATOM     11  C   UNL     1       5.575   6.072  15.562  0.00  0.00    +0.000 A 
ATOM     12  C   UNL     1       4.791   5.434  16.532  0.00  0.00    +0.000 A 
ENDROOT
BRANCH   4  13
ATOM     13  N   UNL     1       2.612   3.548  19.764  0.00  0.00    +0.000 N 
ATOM     14  C   UNL     1       1.168   3.607  20.021  0.00  0.00    +0.000 C 
ATOM     15  C   UNL     1       1.023   2.912  21.328  0.00  0.00    +0.000 C 
ATOM     16  C   UNL     1       2.200   2.479  21.780  0.00  0.00    +0.000 C 
ATOM     17  C   UNL     1       3.305   2.816  20.837  0.00  0.00    +0.000 C 
ENDBRANCH   4  13
TORSDOF 1
ENDMDL
MODEL 5
REMARK VINA RESULT:      -6.9      0.416      1.026
REMARK  Name = 
REMARK  1 active torsions:
REMARK  status: ('A' for Active; 'I' for Inactive)
REMARK    1  A    between atoms: C_4  and  N_5
REMARK                            x       y       z     vdW  Elec       q    Type
REMARK                         _______ _______ _______ _____ _____    ______ ____
ROOT
ATOM      1  O   UNL     1       7.246   6.450  18.189  0.00  0.00    +0.000 OA
ATOM      2  C   UNL     1       6.340   5.677  17.899  0.00  0.00    +0.000 C 
ATOM      3  C   UNL     1       5.372   5.250  18.920  0.00  0.00    +0.000 C 
ATOM      4  C   UNL     1       4.332   4.430  18.695  0.00  0.00    +0.000 C 
ATOM      5  C   UNL     1       4.110   3.964  17.265  0.00  0.00    +0.000 C 
ATOM      6  O   UNL     1       3.137   3.294  16.927  0.00  0.00    +0.000 OA
ATOM      7  C   UNL     1       5.110   4.322  16.237  0.00  0.00    +0.000 A 
ATOM      8  C   UNL     1       4.967   3.825  14.932  0.00  0.00    +0.000 A 
ATOM      9  C   UNL     1       5.922   4.125  13.958  0.00  0.00    +0.000 A 
ATOM     10  C   UNL     1       7.019   4.921  14.279  0.00  0.00    +0.000 A 
ATOM     11  C   UNL     1       7.156   5.430  15.571  0.00  0.00    +0.000 A 
ATOM     12  C   UNL     1       6.196   5.130  16.546  0.00  0.00    +0.000 A 
ENDROOT
BRANCH   4  13
ATOM     13  N   UNL     1       3.462   3.995  19.706  0.00  0.00    +0.000 N 
ATOM     14  C   UNL     1       2.511   4.858  20.416  0.00  0.00    +0.000 C 
ATOM     15  C   UNL     1       1.962   3.968  21.474  0.00  0.00    +0.000 C 
ATOM     16  C   UNL     1       2.487   2.744  21.399  0.00  0.00    +0.000 C 
ATOM     17  C   UNL     1       3.460   2.636  20.274  0.00  0.00    +0.000 C 
ENDBRANCH   4  13
TORSDOF 1
ENDMDL
MODEL 6
REMARK VINA RESULT:      -6.9      2.406      3.126
REMARK  Name = 
REMARK  1 active torsions:
REMARK  status: ('A' for Active; 'I' for Inactive)
REMARK    1  A    between atoms: C_4  and  N_5
REMARK                            x       y       z     vdW  Elec       q    Type
REMARK                         _______ _______ _______ _____ _____    ______ ____
ROOT
ATOM      1  O   UNL     1       4.161   7.430  16.156  0.00  0.00    +0.000 OA
ATOM      2  C   UNL     1       4.407   6.601  17.024  0.00  0.00    +0.000 C 
ATOM      3  C   UNL     1       3.374   5.648  17.456  0.00  0.00    +0.000 C 
ATOM      4  C   UNL     1       3.554   4.689  18.378  0.00  0.00    +0.000 C 
ATOM      5  C   UNL     1       4.946   4.544  18.971  0.00  0.00    +0.000 C 
ATOM      6  O   UNL     1       5.249   3.641  19.747  0.00  0.00    +0.000 OA
ATOM      7  C   UNL     1       5.980   5.535  18.606  0.00  0.00    +0.000 A 
ATOM      8  C   UNL     1       7.245   5.470  19.212  0.00  0.00    +0.000 A 
ATOM      9  C   UNL     1       8.221   6.419  18.904  0.00  0.00    +0.000 A 
ATOM     10  C   UNL     1       7.943   7.435  17.993  0.00  0.00    +0.000 A 
ATOM     11  C   UNL     1       6.693   7.495  17.377  0.00  0.00    +0.000 A 
ATOM     12  C   UNL     1       5.716   6.539  17.684  0.00  0.00    +0.000 A 
ENDROOT
BRANCH   4  13
ATOM     13  N   UNL     1       2.528   3.834  18.809  0.00  0.00    +0.000 N 
ATOM     14  C   UNL     1       2.075   2.642  18.083  0.00  0.00    +0.000 C 
ATOM     15  C   UNL     1       0.888   2.195  18.861  0.00  0.00    +0.000 C 
ATOM     16  C   UNL     1       0.671   2.986  19.912  0.00  0.00    +0.000 C 
ATOM     17  C   UNL     1       1.687   4.076  19.994  0.00  0.00    +0.000 C 
ENDBRANCH   4  13
TORSDOF 1
ENDMDL
MODEL 7
REMARK VINA RESULT:      -6.7      1.945      5.687
REMARK  Name = 
REMARK  1 active torsions:
REMARK  status: ('A' for Active; 'I' for Inactive)
REMARK    1  A    between atoms: C_4  and  N_5
REMARK                            x       y       z     vdW  Elec       q    Type
REMARK                         _______ _______ _______ _____ _____    ______ ____
ROOT
ATOM      1  O   UNL     1       2.661   7.228  19.233  0.00  0.00    +0.000 OA
ATOM      2  C   UNL     1       3.022   6.144  18.790  0.00  0.00    +0.000 C 
ATOM      3  C   UNL     1       4.013   6.077  17.705  0.00  0.00    +0.000 C 
ATOM      4  C   UNL     1       4.491   4.941  17.173  0.00  0.00    +0.000 C 
ATOM      5  C   UNL     1       4.015   3.632  17.782  0.00  0.00    +0.000 C 
ATOM      6  O   UNL     1       4.459   2.539  17.441  0.00  0.00    +0.000 OA
ATOM      7  C   UNL     1       2.967   3.672  18.823  0.00  0.00    +0.000 A 
ATOM      8  C   UNL     1       2.452   2.470  19.333  0.00  0.00    +0.000 A 
ATOM      9  C   UNL     1       1.437   2.491  20.292  0.00  0.00    +0.000 A 
ATOM     10  C   UNL     1       0.933   3.708  20.747  0.00  0.00    +0.000 A 
ATOM     11  C   UNL     1       1.452   4.904  20.254  0.00  0.00    +0.000 A 
ATOM     12  C   UNL     1       2.473   4.882  19.295  0.00  0.00    +0.000 A 
ENDROOT
BRANCH   4  13
ATOM     13  N   UNL     1       5.392   4.914  16.097  0.00  0.00    +0.000 N 
ATOM     14  C   UNL     1       5.059   4.460  14.741  0.00  0.00    +0.000 C 
ATOM     15  C   UNL     1       6.372   4.476  14.042  0.00  0.00    +0.000 C 
ATOM     16  C   UNL     1       7.346   4.898  14.848  0.00  0.00    +0.000 C 
ATOM     17  C   UNL     1       6.826   5.233  16.205  0.00  0.00    +0.000 C 
ENDBRANCH   4  13
TORSDOF 1
ENDMDL
MODEL 8
REMARK VINA RESULT:      -6.7      2.345      5.615
REMARK  Name = 
REMARK  1 active torsions:
REMARK  status: ('A' for Active; 'I' for Inactive)
REMARK    1  A    between atoms: C_4  and  N_5
REMARK                            x       y       z     vdW  Elec       q    Type
REMARK                         _______ _______ _______ _____ _____    ______ ____
ROOT
ATOM      1  O   UNL     1       3.974   1.669  17.519  0.00  0.00    +0.000 OA
ATOM      2  C   UNL     1       3.932   2.787  18.019  0.00  0.00    +0.000 C 
ATOM      3  C   UNL     1       5.035   3.737  17.809  0.00  0.00    +0.000 C 
ATOM      4  C   UNL     1       5.069   4.989  18.292  0.00  0.00    +0.000 C 
ATOM      5  C   UNL     1       3.848   5.475  19.057  0.00  0.00    +0.000 C 
ATOM      6  O   UNL     1       3.730   6.631  19.457  0.00  0.00    +0.000 OA
ATOM      7  C   UNL     1       2.760   4.517  19.341  0.00  0.00    +0.000 A 
ATOM      8  C   UNL     1       1.667   4.924  20.123  0.00  0.00    +0.000 A 
ATOM      9  C   UNL     1       0.648   4.020  20.429  0.00  0.00    +0.000 A 
ATOM     10  C   UNL     1       0.712   2.710  19.959  0.00  0.00    +0.000 A 
ATOM     11  C   UNL     1       1.788   2.306  19.169  0.00  0.00    +0.000 A 
ATOM     12  C   UNL     1       2.808   3.215  18.859  0.00  0.00    +0.000 A 
ENDROOT
BRANCH   4  13
ATOM     13  N   UNL     1       6.165   5.849  18.123  0.00  0.00    +0.000 N 
ATOM     14  C   UNL     1       7.353   5.867  18.985  0.00  0.00    +0.000 C 
ATOM     15  C   UNL     1       8.121   7.040  18.489  0.00  0.00    +0.000 C 
ATOM     16  C   UNL     1       7.500   7.629  17.466  0.00  0.00    +0.000 C 
ATOM     17  C   UNL     1       6.228   6.930  17.124  0.00  0.00    +0.000 C 
ENDBRANCH   4  13
TORSDOF 1
ENDMDL
MODEL 9
REMARK VINA RESULT:      -6.6      2.008      5.924
REMARK  Name = 
REMARK  1 active torsions:
REMARK  status: ('A' for Active; 'I' for Inactive)
REMARK    1  A    between atoms: C_4  and  N_5
REMARK                            x       y       z     vdW  Elec       q    Type
REMARK                         _______ _______ _______ _____ _____    ______ ____
ROOT
ATOM      1  O   UNL     1       2.688   1.840  18.442  0.00  0.00    +0.000 OA
ATOM      2  C   UNL     1       3.085   2.972  18.194  0.00  0.00    +0.000 C 
ATOM      3  C   UNL     1       4.050   3.200  17.108  0.00  0.00    +0.000 C 
ATOM      4  C   UNL     1       4.524   4.402  16.744  0.00  0.00    +0.000 C 
ATOM      5  C   UNL     1       3.971   5.618  17.470  0.00  0.00    +0.000 C 
ATOM      6  O   UNL     1       4.258   6.770  17.154  0.00  0.00    +0.000 OA
ATOM      7  C   UNL     1       3.056   5.409  18.611  0.00  0.00    +0.000 A 
ATOM      8  C   UNL     1       2.606   6.515  19.349  0.00  0.00    +0.000 A 
ATOM      9  C   UNL     1       1.769   6.332  20.451  0.00  0.00    +0.000 A 
ATOM     10  C   UNL     1       1.376   5.048  20.822  0.00  0.00    +0.000 A 
ATOM     11  C   UNL     1       1.807   3.947  20.082  0.00  0.00    +0.000 A 
ATOM     12  C   UNL     1       2.644   4.133  18.974  0.00  0.00    +0.000 A 
ENDROOT
BRANCH   4  13
ATOM     13  N   UNL     1       5.490   4.577  15.742  0.00  0.00    +0.000 N 
ATOM     14  C   UNL     1       5.290   4.254  14.324  0.00  0.00    +0.000 C 
ATOM     15  C   UNL     1       6.637   4.463  13.729  0.00  0.00    +0.000 C 
ATOM     16  C   UNL     1       7.514   4.873  14.647  0.00  0.00    +0.000 C 
ATOM     17  C   UNL     1       6.878   5.004  15.990  0.00  0.00    +0.000 C 
ENDBRANCH   4  13
TORSDOF 1
ENDMDL
