MODEL 1
REMARK VINA RESULT:      -7.2      0.000      0.000
REMARK  Name = 
REMARK  10 active torsions:
REMARK  status: ('A' for Active; 'I' for Inactive)
REMARK    1  A    between atoms: C_1  and  C_2
REMARK    2  A    between atoms: C_2  and  C_3
REMARK    3  A    between atoms: C_3  and  C_4
REMARK    4  A    between atoms: C_4  and  C_5
REMARK    5  A    between atoms: C_5  and  C_6
REMARK    6  A    between atoms: C_6  and  C_7
REMARK    7  A    between atoms: C_7  and  C_8
REMARK    8  A    between atoms: C_8  and  N_9
REMARK    9  A    between atoms: C_11  and  C_12
REMARK   10  A    between atoms: C_12  and  N_13
REMARK                            x       y       z     vdW  Elec       q    Type
REMARK                         _______ _______ _______ _____ _____    ______ ____
ROOT
ATOM      1  N   UNL     1       2.338   6.036  20.282  0.00  0.00    +0.000 N 
ATOM      2  C   UNL     1       3.212   5.926  19.234  0.00  0.00    +0.000 A 
ATOM      3  C   UNL     1       3.097   7.056  18.447  0.00  0.00    +0.000 A 
ATOM      4  C   UNL     1       2.178   7.931  19.117  0.00  0.00    +0.000 A 
ATOM      5  C   UNL     1       1.649   9.205  18.830  0.00  0.00    +0.000 A 
ATOM      6  F   UNL     1       2.022   9.869  17.726  0.00  0.00    +0.000 F 
ATOM      7  C   UNL     1       0.712   9.795  19.679  0.00  0.00    +0.000 A 
ATOM      8  C   UNL     1       0.298   9.132  20.829  0.00  0.00    +0.000 A 
ATOM      9  C   UNL     1       0.810   7.870  21.149  0.00  0.00    +0.000 A 
ATOM     10  C   UNL     1       1.738   7.278  20.274  0.00  0.00    +0.000 A 
ENDROOT
BRANCH   1  11
ATOM     11  C   UNL     1       2.012   4.932  21.174  0.00  0.00    +0.000 C 
BRANCH  11  12
ATOM     12  C   UNL     1       1.000   3.940  20.590  0.00  0.00    +0.000 C 
BRANCH  12  13
ATOM     13  C   UNL     1       1.556   2.519  20.460  0.00  0.00    +0.000 C 
BRANCH  13  14
ATOM     14  C   UNL     1       2.928   2.395  21.118  0.00  0.00    +0.000 C 
BRANCH  14  15
ATOM     15  C   UNL     1       4.033   2.361  20.063  0.00  0.00    +0.000 C 
BRANCH  15  16
ATOM     16  C   UNL     1       3.543   1.714  18.768  0.00  0.00    +0.000 C 
BRANCH  16  18
ATOM     17  C   UNL     1       2.694   3.343  17.050  0.00  0.00    +0.000 C 
ATOM     18  C   UNL     1       3.901   2.572  17.556  0.00  0.00    +0.000 C 
ENDBRANCH  16  18
ENDBRANCH  15  16
ENDBRANCH  14  15
ENDBRANCH  13  14
ENDBRANCH  12  13
ENDBRANCH  11  12
ENDBRANCH   1  11
BRANCH   3  19
ATOM     19  C   UNL     1       3.766   7.299  17.129  0.00  0.00    +0.000 C 
BRANCH  19  20
ATOM     20  N   UNL     1       4.773   6.249  16.836  0.00  0.00    +0.000 NA
ATOM     21  C   UNL     1       5.161   6.228  15.422  0.00  0.00    +0.000 C 
ATOM     22  C   UNL     1       5.634   4.835  14.985  0.00  0.00    +0.000 C 
ATOM     23  C   UNL     1       7.082   4.508  15.324  0.00  0.00    +0.000 C 
ATOM     24  C   UNL     1       7.412   4.569  16.809  0.00  0.00    +0.000 C 
ATOM     25  C   UNL     1       7.298   5.979  17.371  0.00  0.00    +0.000 C 
ATOM     26  C   UNL     1       5.882   6.384  17.792  0.00  0.00    +0.000 C 
ENDBRANCH  19  20
ENDBRANCH   3  19
TORSDOF 9
ENDMDL
MODEL 2
REMARK VINA RESULT:      -7.2      0.626      1.072
REMARK  Name = 
REMARK  10 active torsions:
REMARK  status: ('A' for Active; 'I' for Inactive)
REMARK    1  A    between atoms: C_1  and  C_2
REMARK    2  A    between atoms: C_2  and  C_3
REMARK    3  A    between atoms: C_3  and  C_4
REMARK    4  A    between atoms: C_4  and  C_5
REMARK    5  A    between atoms: C_5  and  C_6
REMARK    6  A    between atoms: C_6  and  C_7
REMARK    7  A    between atoms: C_7  and  C_8
REMARK    8  A    between atoms: C_8  and  N_9
REMARK    9  A    between atoms: C_11  and  C_12
REMARK   10  A    between atoms: C_12  and  N_13
REMARK                            x       y       z     vdW  Elec       q    Type
REMARK                         _______ _______ _______ _____ _____    ______ ____
ROOT
ATOM      1  N   UNL     1       2.289   6.274  20.133  0.00  0.00    +0.000 N 
ATOM      2  C   UNL     1       3.175   6.132  19.098  0.00  0.00    +0.000 A 
ATOM      3  C   UNL     1       3.106   7.260  18.303  0.00  0.00    +0.000 A 
ATOM      4  C   UNL     1       2.204   8.166  18.955  0.00  0.00    +0.000 A 
ATOM      5  C   UNL     1       1.719   9.454  18.654  0.00  0.00    +0.000 A 
ATOM      6  F   UNL     1       2.128  10.100  17.551  0.00  0.00    +0.000 F 
ATOM      7  C   UNL     1       0.788  10.077  19.486  0.00  0.00    +0.000 A 
ATOM      8  C   UNL     1       0.337   9.433  20.633  0.00  0.00    +0.000 A 
ATOM      9  C   UNL     1       0.806   8.158  20.968  0.00  0.00    +0.000 A 
ATOM     10  C   UNL     1       1.728   7.534  20.109  0.00  0.00    +0.000 A 
ENDROOT
BRANCH   1  11
ATOM     11  C   UNL     1       1.918   5.186  21.025  0.00  0.00    +0.000 C 
BRANCH  11  12
ATOM     12  C   UNL     1       0.769   4.318  20.501  0.00  0.00    +0.000 C 
BRANCH  12  13
ATOM     13  C   UNL     1       1.137   2.835  20.386  0.00  0.00    +0.000 C 
BRANCH  13  14
ATOM     14  C   UNL     1       0.823   2.290  18.995  0.00  0.00    +0.000 C 
BRANCH  14  15
ATOM     15  C   UNL     1       2.099   1.826  18.295  0.00  0.00    +0.000 C 
BRANCH  15  16
ATOM     16  C   UNL     1       2.656   2.914  17.378  0.00  0.00    +0.000 C 
BRANCH  16  18
ATOM     17  C   UNL     1       4.533   2.919  19.052  0.00  0.00    +0.000 C 
ATOM     18  C   UNL     1       4.157   3.097  17.591  0.00  0.00    +0.000 C 
ENDBRANCH  16  18
ENDBRANCH  15  16
ENDBRANCH  14  15
ENDBRANCH  13  14
ENDBRANCH  12  13
ENDBRANCH  11  12
ENDBRANCH   1  11
BRANCH   3  19
ATOM     19  C   UNL     1       3.801   7.474  16.994  0.00  0.00    +0.000 C 
BRANCH  19  20
ATOM     20  N   UNL     1       4.778   6.392  16.721  0.00  0.00    +0.000 NA
ATOM     21  C   UNL     1       5.190   6.354  15.313  0.00  0.00    +0.000 C 
ATOM     22  C   UNL     1       5.625   4.946  14.888  0.00  0.00    +0.000 C 
ATOM     23  C   UNL     1       7.056   4.574  15.253  0.00  0.00    +0.000 C 
ATOM     24  C   UNL     1       7.363   4.629  16.743  0.00  0.00    +0.000 C 
ATOM     25  C   UNL     1       7.284   6.044  17.299  0.00  0.00    +0.000 C 
ATOM     26  C   UNL     1       5.875   6.495  17.695  0.00  0.00    +0.000 C 
ENDBRANCH  19  20
ENDBRANCH   3  19
TORSDOF 9
ENDMDL
MODEL 3
REMARK VINA RESULT:      -7.1      3.138      7.141
REMARK  Name = 
REMARK  10 active torsions:
REMARK  status: ('A' for Active; 'I' for Inactive)
REMARK    1  A    between atoms: C_1  and  C_2
REMARK    2  A    between atoms: C_2  and  C_3
REMARK    3  A    between atoms: C_3  and  C_4
REMARK    4  A    between atoms: C_4  and  C_5
REMARK    5  A    between atoms: C_5  and  C_6
REMARK    6  A    between atoms: C_6  and  C_7
REMARK    7  A    between atoms: C_7  and  C_8
REMARK    8  A    between atoms: C_8  and  N_9
REMARK    9  A    between atoms: C_11  and  C_12
REMARK   10  A    between atoms: C_12  and  N_13
REMARK                            x       y       z     vdW  Elec       q    Type
REMARK                         _______ _______ _______ _____ _____    ______ ____
ROOT
ATOM      1  N   UNL     1       5.739   5.154  15.571  0.00  0.00    +0.000 N 
ATOM      2  C   UNL     1       4.980   4.166  16.138  0.00  0.00    +0.000 A 
ATOM      3  C   UNL     1       5.296   4.085  17.481  0.00  0.00    +0.000 A 
ATOM      4  C   UNL     1       6.220   5.150  17.749  0.00  0.00    +0.000 A 
ATOM      5  C   UNL     1       6.905   5.590  18.899  0.00  0.00    +0.000 A 
ATOM      6  F   UNL     1       6.727   4.976  20.079  0.00  0.00    +0.000 F 
ATOM      7  C   UNL     1       7.798   6.660  18.831  0.00  0.00    +0.000 A 
ATOM      8  C   UNL     1       8.011   7.314  17.624  0.00  0.00    +0.000 A 
ATOM      9  C   UNL     1       7.341   6.911  16.464  0.00  0.00    +0.000 A 
ATOM     10  C   UNL     1       6.460   5.818  16.542  0.00  0.00    +0.000 A 
ENDROOT
BRANCH   1  11
ATOM     11  C   UNL     1       5.849   5.355  14.133  0.00  0.00    +0.000 C 
BRANCH  11  12
ATOM     12  C   UNL     1       6.879   4.445  13.456  0.00  0.00    +0.000 C 
BRANCH  12  13
ATOM     13  C   UNL     1       6.243   3.283  12.686  0.00  0.00    +0.000 C 
BRANCH  13  14
ATOM     14  C   UNL     1       4.791   3.585  12.324  0.00  0.00    +0.000 C 
BRANCH  14  15
ATOM     15  C   UNL     1       4.394   2.864  11.036  0.00  0.00    +0.000 C 
BRANCH  15  16
ATOM     16  C   UNL     1       3.060   3.381  10.499  0.00  0.00    +0.000 C 
BRANCH  16  18
ATOM     17  C   UNL     1       1.988   5.051   8.954  0.00  0.00    +0.000 C 
ATOM     18  C   UNL     1       3.271   4.321   9.315  0.00  0.00    +0.000 C 
ENDBRANCH  16  18
ENDBRANCH  15  16
ENDBRANCH  14  15
ENDBRANCH  13  14
ENDBRANCH  12  13
ENDBRANCH  11  12
ENDBRANCH   1  11
BRANCH   3  19
ATOM     19  C   UNL     1       4.806   3.058  18.454  0.00  0.00    +0.000 C 
BRANCH  19  20
ATOM     20  N   UNL     1       3.400   3.319  18.848  0.00  0.00    +0.000 NA
ATOM     21  C   UNL     1       2.650   2.082  19.090  0.00  0.00    +0.000 C 
ATOM     22  C   UNL     1       1.147   2.274  18.845  0.00  0.00    +0.000 C 
ATOM     23  C   UNL     1       0.377   2.894  20.002  0.00  0.00    +0.000 C 
ATOM     24  C   UNL     1       0.869   4.274  20.420  0.00  0.00    +0.000 C 
ATOM     25  C   UNL     1       2.276   4.236  21.000  0.00  0.00    +0.000 C 
ATOM     26  C   UNL     1       3.396   4.285  19.958  0.00  0.00    +0.000 C 
ENDBRANCH  19  20
ENDBRANCH   3  19
TORSDOF 9
ENDMDL
MODEL 4
REMARK VINA RESULT:      -7.1      1.896      6.158
REMARK  Name = 
REMARK  10 active torsions:
REMARK  status: ('A' for Active; 'I' for Inactive)
REMARK    1  A    between atoms: C_1  and  C_2
REMARK    2  A    between atoms: C_2  and  C_3
REMARK    3  A    between atoms: C_3  and  C_4
REMARK    4  A    between atoms: C_4  and  C_5
REMARK    5  A    between atoms: C_5  and  C_6
REMARK    6  A    between atoms: C_6  and  C_7
REMARK    7  A    between atoms: C_7  and  C_8
REMARK    8  A    between atoms: C_8  and  N_9
REMARK    9  A    between atoms: C_11  and  C_12
REMARK   10  A    between atoms: C_12  and  N_13
REMARK                            x       y       z     vdW  Elec       q    Type
REMARK                         _______ _______ _______ _____ _____    ______ ____
ROOT
ATOM      1  N   UNL     1       5.278   5.001  18.599  0.00  0.00    +0.000 N 
ATOM      2  C   UNL     1       4.908   6.298  18.367  0.00  0.00    +0.000 A 
ATOM      3  C   UNL     1       3.592   6.311  17.946  0.00  0.00    +0.000 A 
ATOM      4  C   UNL     1       3.122   4.957  18.028  0.00  0.00    +0.000 A 
ATOM      5  C   UNL     1       1.898   4.324  17.739  0.00  0.00    +0.000 A 
ATOM      6  F   UNL     1       0.845   5.033  17.303  0.00  0.00    +0.000 F 
ATOM      7  C   UNL     1       1.759   2.943  17.883  0.00  0.00    +0.000 A 
ATOM      8  C   UNL     1       2.830   2.176  18.326  0.00  0.00    +0.000 A 
ATOM      9  C   UNL     1       4.058   2.774  18.632  0.00  0.00    +0.000 A 
ATOM     10  C   UNL     1       4.190   4.164  18.463  0.00  0.00    +0.000 A 
ENDROOT
BRANCH   1  11
ATOM     11  C   UNL     1       6.656   4.587  18.819  0.00  0.00    +0.000 C 
BRANCH  11  12
ATOM     12  C   UNL     1       7.574   4.818  17.613  0.00  0.00    +0.000 C 
BRANCH  12  13
ATOM     13  C   UNL     1       7.006   4.253  16.307  0.00  0.00    +0.000 C 
BRANCH  13  14
ATOM     14  C   UNL     1       6.809   5.352  15.264  0.00  0.00    +0.000 C 
BRANCH  14  15
ATOM     15  C   UNL     1       6.913   4.780  13.851  0.00  0.00    +0.000 C 
BRANCH  15  16
ATOM     16  C   UNL     1       5.868   3.690  13.615  0.00  0.00    +0.000 C 
BRANCH  16  18
ATOM     17  C   UNL     1       4.492   3.302  11.546  0.00  0.00    +0.000 C 
ATOM     18  C   UNL     1       5.879   3.224  12.161  0.00  0.00    +0.000 C 
ENDBRANCH  16  18
ENDBRANCH  15  16
ENDBRANCH  14  15
ENDBRANCH  13  14
ENDBRANCH  12  13
ENDBRANCH  11  12
ENDBRANCH   1  11
BRANCH   3  19
ATOM     19  C   UNL     1       2.821   7.498  17.456  0.00  0.00    +0.000 C 
BRANCH  19  20
ATOM     20  N   UNL     1       1.829   7.948  18.463  0.00  0.00    +0.000 NA
ATOM     21  C   UNL     1       2.303   7.755  19.838  0.00  0.00    +0.000 C 
ATOM     22  C   UNL     1       1.138   7.579  20.819  0.00  0.00    +0.000 C 
ATOM     23  C   UNL     1       0.487   8.873  21.290  0.00  0.00    +0.000 C 
ATOM     24  C   UNL     1      -0.089   9.732  20.173  0.00  0.00    +0.000 C 
ATOM     25  C   UNL     1       0.989  10.275  19.245  0.00  0.00    +0.000 C 
ATOM     26  C   UNL     1       1.409   9.316  18.127  0.00  0.00    +0.000 C 
ENDBRANCH  19  20
ENDBRANCH   3  19
TORSDOF 9
ENDMDL
MODEL 5
REMARK VINA RESULT:      -7.1      2.214      6.228
REMARK  Name = 
REMARK  10 active torsions:
REMARK  status: ('A' for Active; 'I' for Inactive)
REMARK    1  A    between atoms: C_1  and  C_2
REMARK    2  A    between atoms: C_2  and  C_3
REMARK    3  A    between atoms: C_3  and  C_4
REMARK    4  A    between atoms: C_4  and  C_5
REMARK    5  A    between atoms: C_5  and  C_6
REMARK    6  A    between atoms: C_6  and  C_7
REMARK    7  A    between atoms: C_7  and  C_8
REMARK    8  A    between atoms: C_8  and  N_9
REMARK    9  A    between atoms: C_11  and  C_12
REMARK   10  A    between atoms: C_12  and  N_13
REMARK                            x       y       z     vdW  Elec       q    Type
REMARK                         _______ _______ _______ _____ _____    ______ ____
ROOT
ATOM      1  N   UNL     1       4.745   4.746  18.505  0.00  0.00    +0.000 N 
ATOM      2  C   UNL     1       4.359   5.731  19.374  0.00  0.00    +0.000 A 
ATOM      3  C   UNL     1       3.058   5.483  19.769  0.00  0.00    +0.000 A 
ATOM      4  C   UNL     1       2.684   4.228  19.183  0.00  0.00    +0.000 A 
ATOM      5  C   UNL     1       1.511   3.447  19.200  0.00  0.00    +0.000 A 
ATOM      6  F   UNL     1       0.437   3.839  19.902  0.00  0.00    +0.000 F 
ATOM      7  C   UNL     1       1.436   2.259  18.472  0.00  0.00    +0.000 A 
ATOM      8  C   UNL     1       2.528   1.826  17.729  0.00  0.00    +0.000 A 
ATOM      9  C   UNL     1       3.711   2.571  17.697  0.00  0.00    +0.000 A 
ATOM     10  C   UNL     1       3.766   3.777  18.418  0.00  0.00    +0.000 A 
ENDROOT
BRANCH   1  11
ATOM     11  C   UNL     1       5.958   4.813  17.704  0.00  0.00    +0.000 C 
BRANCH  11  12
ATOM     12  C   UNL     1       5.942   5.922  16.646  0.00  0.00    +0.000 C 
BRANCH  12  13
ATOM     13  C   UNL     1       5.405   5.453  15.290  0.00  0.00    +0.000 C 
BRANCH  13  14
ATOM     14  C   UNL     1       5.897   4.048  14.952  0.00  0.00    +0.000 C 
BRANCH  14  15
ATOM     15  C   UNL     1       6.214   3.930  13.462  0.00  0.00    +0.000 C 
BRANCH  15  16
ATOM     16  C   UNL     1       4.981   3.511  12.663  0.00  0.00    +0.000 C 
BRANCH  16  18
ATOM     17  C   UNL     1       6.850   2.275  11.521  0.00  0.00    +0.000 C 
ATOM     18  C   UNL     1       5.357   2.559  11.530  0.00  0.00    +0.000 C 
ENDBRANCH  16  18
ENDBRANCH  15  16
ENDBRANCH  14  15
ENDBRANCH  13  14
ENDBRANCH  12  13
ENDBRANCH  11  12
ENDBRANCH   1  11
BRANCH   3  19
ATOM     19  C   UNL     1       2.193   6.373  20.607  0.00  0.00    +0.000 C 
BRANCH  19  20
ATOM     20  N   UNL     1       2.087   7.730  20.016  0.00  0.00    +0.000 NA
ATOM     21  C   UNL     1       1.791   7.691  18.580  0.00  0.00    +0.000 C 
ATOM     22  C   UNL     1       2.313   8.941  17.860  0.00  0.00    +0.000 C 
ATOM     23  C   UNL     1       1.411  10.163  17.950  0.00  0.00    +0.000 C 
ATOM     24  C   UNL     1       1.129  10.637  19.369  0.00  0.00    +0.000 C 
ATOM     25  C   UNL     1       0.320   9.625  20.168  0.00  0.00    +0.000 C 
ATOM     26  C   UNL     1       1.154   8.524  20.830  0.00  0.00    +0.000 C 
ENDBRANCH  19  20
ENDBRANCH   3  19
TORSDOF 9
ENDMDL
MODEL 6
REMARK VINA RESULT:      -6.9      2.292      6.490
REMARK  Name = 
REMARK  10 active torsions:
REMARK  status: ('A' for Active; 'I' for Inactive)
REMARK    1  A    between atoms: C_1  and  C_2
REMARK    2  A    between atoms: C_2  and  C_3
REMARK    3  A    between atoms: C_3  and  C_4
REMARK    4  A    between atoms: C_4  and  C_5
REMARK    5  A    between atoms: C_5  and  C_6
REMARK    6  A    between atoms: C_6  and  C_7
REMARK    7  A    between atoms: C_7  and  C_8
REMARK    8  A    between atoms: C_8  and  N_9
REMARK    9  A    between atoms: C_11  and  C_12
REMARK   10  A    between atoms: C_12  and  N_13
REMARK                            x       y       z     vdW  Elec       q    Type
REMARK                         _______ _______ _______ _____ _____    ______ ____
ROOT
ATOM      1  N   UNL     1       3.875   5.075  17.536  0.00  0.00    +0.000 N 
ATOM      2  C   UNL     1       3.934   6.167  18.360  0.00  0.00    +0.000 A 
ATOM      3  C   UNL     1       2.947   6.047  19.321  0.00  0.00    +0.000 A 
ATOM      4  C   UNL     1       2.334   4.765  19.119  0.00  0.00    +0.000 A 
ATOM      5  C   UNL     1       1.285   4.069  19.752  0.00  0.00    +0.000 A 
ATOM      6  F   UNL     1       0.647   4.600  20.806  0.00  0.00    +0.000 F 
ATOM      7  C   UNL     1       0.876   2.819  19.284  0.00  0.00    +0.000 A 
ATOM      8  C   UNL     1       1.510   2.242  18.190  0.00  0.00    +0.000 A 
ATOM      9  C   UNL     1       2.561   2.901  17.544  0.00  0.00    +0.000 A 
ATOM     10  C   UNL     1       2.950   4.169  18.013  0.00  0.00    +0.000 A 
ENDROOT
BRANCH   1  11
ATOM     11  C   UNL     1       4.598   4.980  16.277  0.00  0.00    +0.000 C 
BRANCH  11  12
ATOM     12  C   UNL     1       5.843   4.089  16.341  0.00  0.00    +0.000 C 
BRANCH  12  13
ATOM     13  C   UNL     1       7.069   4.718  15.670  0.00  0.00    +0.000 C 
BRANCH  13  14
ATOM     14  C   UNL     1       6.875   4.843  14.161  0.00  0.00    +0.000 C 
BRANCH  14  15
ATOM     15  C   UNL     1       6.121   3.633  13.611  0.00  0.00    +0.000 C 
BRANCH  15  16
ATOM     16  C   UNL     1       6.423   3.417  12.129  0.00  0.00    +0.000 C 
BRANCH  16  18
ATOM     17  C   UNL     1       6.383   1.140  11.061  0.00  0.00    +0.000 C 
ATOM     18  C   UNL     1       5.545   2.313  11.544  0.00  0.00    +0.000 C 
ENDBRANCH  16  18
ENDBRANCH  15  16
ENDBRANCH  14  15
ENDBRANCH  13  14
ENDBRANCH  12  13
ENDBRANCH  11  12
ENDBRANCH   1  11
BRANCH   3  19
ATOM     19  C   UNL     1       2.564   7.073  20.341  0.00  0.00    +0.000 C 
BRANCH  19  20
ATOM     20  N   UNL     1       1.496   7.967  19.830  0.00  0.00    +0.000 NA
ATOM     21  C   UNL     1       1.106   8.987  20.810  0.00  0.00    +0.000 C 
ATOM     22  C   UNL     1      -0.342   9.448  20.601  0.00  0.00    +0.000 C 
ATOM     23  C   UNL     1      -0.536  10.501  19.519  0.00  0.00    +0.000 C 
ATOM     24  C   UNL     1      -0.074  10.073  18.132  0.00  0.00    +0.000 C 
ATOM     25  C   UNL     1       1.432   9.865  18.062  0.00  0.00    +0.000 C 
ATOM     26  C   UNL     1       1.905   8.481  18.514  0.00  0.00    +0.000 C 
ENDBRANCH  19  20
ENDBRANCH   3  19
TORSDOF 9
ENDMDL
MODEL 7
REMARK VINA RESULT:      -6.9      2.089      6.276
REMARK  Name = 
REMARK  10 active torsions:
REMARK  status: ('A' for Active; 'I' for Inactive)
REMARK    1  A    between atoms: C_1  and  C_2
REMARK    2  A    between atoms: C_2  and  C_3
REMARK    3  A    between atoms: C_3  and  C_4
REMARK    4  A    between atoms: C_4  and  C_5
REMARK    5  A    between atoms: C_5  and  C_6
REMARK    6  A    between atoms: C_6  and  C_7
REMARK    7  A    between atoms: C_7  and  C_8
REMARK    8  A    between atoms: C_8  and  N_9
REMARK    9  A    between atoms: C_11  and  C_12
REMARK   10  A    between atoms: C_12  and  N_13
REMARK                            x       y       z     vdW  Elec       q    Type
REMARK                         _______ _______ _______ _____ _____    ______ ____
ROOT
ATOM      1  N   UNL     1       5.285   5.082  18.170  0.00  0.00    +0.000 N 
ATOM      2  C   UNL     1       4.787   6.353  18.067  0.00  0.00    +0.000 A 
ATOM      3  C   UNL     1       3.431   6.274  17.812  0.00  0.00    +0.000 A 
ATOM      4  C   UNL     1       3.085   4.882  17.865  0.00  0.00    +0.000 A 
ATOM      5  C   UNL     1       1.887   4.161  17.689  0.00  0.00    +0.000 A 
ATOM      6  F   UNL     1       0.735   4.798  17.430  0.00  0.00    +0.000 F 
ATOM      7  C   UNL     1       1.878   2.767  17.761  0.00  0.00    +0.000 A 
ATOM      8  C   UNL     1       3.055   2.075  18.021  0.00  0.00    +0.000 A 
ATOM      9  C   UNL     1       4.260   2.759  18.211  0.00  0.00    +0.000 A 
ATOM     10  C   UNL     1       4.258   4.163  18.115  0.00  0.00    +0.000 A 
ENDROOT
BRANCH   1  11
ATOM     11  C   UNL     1       6.709   4.779  18.193  0.00  0.00    +0.000 C 
BRANCH  11  12
ATOM     12  C   UNL     1       7.368   4.791  16.809  0.00  0.00    +0.000 C 
BRANCH  12  13
ATOM     13  C   UNL     1       6.503   4.144  15.723  0.00  0.00    +0.000 C 
BRANCH  13  14
ATOM     14  C   UNL     1       6.786   4.751  14.351  0.00  0.00    +0.000 C 
BRANCH  14  15
ATOM     15  C   UNL     1       6.520   3.732  13.244  0.00  0.00    +0.000 C 
BRANCH  15  16
ATOM     16  C   UNL     1       5.079   3.819  12.744  0.00  0.00    +0.000 C 
BRANCH  16  18
ATOM     17  C   UNL     1       3.519   3.220  10.864  0.00  0.00    +0.000 C 
ATOM     18  C   UNL     1       4.880   2.967  11.493  0.00  0.00    +0.000 C 
ENDBRANCH  16  18
ENDBRANCH  15  16
ENDBRANCH  14  15
ENDBRANCH  13  14
ENDBRANCH  12  13
ENDBRANCH  11  12
ENDBRANCH   1  11
BRANCH   3  19
ATOM     19  C   UNL     1       2.513   7.414  17.496  0.00  0.00    +0.000 C 
BRANCH  19  20
ATOM     20  N   UNL     1       2.238   8.233  18.702  0.00  0.00    +0.000 NA
ATOM     21  C   UNL     1       1.139   9.182  18.493  0.00  0.00    +0.000 C 
ATOM     22  C   UNL     1       1.271  10.411  19.401  0.00  0.00    +0.000 C 
ATOM     23  C   UNL     1       0.758  10.223  20.822  0.00  0.00    +0.000 C 
ATOM     24  C   UNL     1       1.442   9.106  21.599  0.00  0.00    +0.000 C 
ATOM     25  C   UNL     1       1.158   7.732  21.008  0.00  0.00    +0.000 C 
ATOM     26  C   UNL     1       2.082   7.332  19.854  0.00  0.00    +0.000 C 
ENDBRANCH  19  20
ENDBRANCH   3  19
TORSDOF 9
ENDMDL
MODEL 8
REMARK VINA RESULT:      -6.9      2.421      5.612
REMARK  Name = 
REMARK  10 active torsions:
REMARK  status: ('A' for Active; 'I' for Inactive)
REMARK    1  A    between atoms: C_1  and  C_2
REMARK    2  A    between atoms: C_2  and  C_3
REMARK    3  A    between atoms: C_3  and  C_4
REMARK    4  A    between atoms: C_4  and  C_5
REMARK    5  A    between atoms: C_5  and  C_6
REMARK    6  A    between atoms: C_6  and  C_7
REMARK    7  A    between atoms: C_7  and  C_8
REMARK    8  A    between atoms: C_8  and  N_9
REMARK    9  A    between atoms: C_11  and  C_12
REMARK   10  A    between atoms: C_12  and  N_13
REMARK                            x       y       z     vdW  Elec       q    Type
REMARK                         _______ _______ _______ _____ _____    ______ ____
ROOT
ATOM      1  N   UNL     1       2.040   6.337  19.570  0.00  0.00    +0.000 N 
ATOM      2  C   UNL     1       2.857   6.626  18.510  0.00  0.00    +0.000 A 
ATOM      3  C   UNL     1       3.263   5.438  17.931  0.00  0.00    +0.000 A 
ATOM      4  C   UNL     1       2.569   4.388  18.621  0.00  0.00    +0.000 A 
ATOM      5  C   UNL     1       2.556   2.984  18.512  0.00  0.00    +0.000 A 
ATOM      6  F   UNL     1       3.294   2.362  17.580  0.00  0.00    +0.000 F 
ATOM      7  C   UNL     1       1.788   2.209  19.383  0.00  0.00    +0.000 A 
ATOM      8  C   UNL     1       1.017   2.820  20.364  0.00  0.00    +0.000 A 
ATOM      9  C   UNL     1       0.999   4.213  20.495  0.00  0.00    +0.000 A 
ATOM     10  C   UNL     1       1.793   4.980  19.624  0.00  0.00    +0.000 A 
ENDROOT
BRANCH   1  11
ATOM     11  C   UNL     1       1.625   7.324  20.555  0.00  0.00    +0.000 C 
BRANCH  11  12
ATOM     12  C   UNL     1       1.303   8.699  19.958  0.00  0.00    +0.000 C 
BRANCH  12  13
ATOM     13  C   UNL     1       0.128   9.397  20.651  0.00  0.00    +0.000 C 
BRANCH  13  14
ATOM     14  C   UNL     1      -0.664  10.259  19.670  0.00  0.00    +0.000 C 
BRANCH  14  15
ATOM     15  C   UNL     1      -0.241   9.969  18.231  0.00  0.00    +0.000 C 
BRANCH  15  16
ATOM     16  C   UNL     1      -1.420  10.101  17.268  0.00  0.00    +0.000 C 
BRANCH  16  18
ATOM     17  C   UNL     1      -3.860  10.663  17.500  0.00  0.00    +0.000 C 
ATOM     18  C   UNL     1      -2.736   9.750  17.959  0.00  0.00    +0.000 C 
ENDBRANCH  16  18
ENDBRANCH  15  16
ENDBRANCH  14  15
ENDBRANCH  13  14
ENDBRANCH  12  13
ENDBRANCH  11  12
ENDBRANCH   1  11
BRANCH   3  19
ATOM     19  C   UNL     1       4.265   5.277  16.830  0.00  0.00    +0.000 C 
BRANCH  19  20
ATOM     20  N   UNL     1       5.636   5.593  17.301  0.00  0.00    +0.000 NA
ATOM     21  C   UNL     1       5.870   7.038  17.407  0.00  0.00    +0.000 C 
ATOM     22  C   UNL     1       7.355   7.385  17.239  0.00  0.00    +0.000 C 
ATOM     23  C   UNL     1       8.203   7.218  18.491  0.00  0.00    +0.000 C 
ATOM     24  C   UNL     1       8.209   5.808  19.067  0.00  0.00    +0.000 C 
ATOM     25  C   UNL     1       6.843   5.390  19.589  0.00  0.00    +0.000 C 
ATOM     26  C   UNL     1       5.900   4.821  18.525  0.00  0.00    +0.000 C 
ENDBRANCH  19  20
ENDBRANCH   3  19
TORSDOF 9
ENDMDL
MODEL 9
REMARK VINA RESULT:      -6.9      2.946      6.959
REMARK  Name = 
REMARK  10 active torsions:
REMARK  status: ('A' for Active; 'I' for Inactive)
REMARK    1  A    between atoms: C_1  and  C_2
REMARK    2  A    between atoms: C_2  and  C_3
REMARK    3  A    between atoms: C_3  and  C_4
REMARK    4  A    between atoms: C_4  and  C_5
REMARK    5  A    between atoms: C_5  and  C_6
REMARK    6  A    between atoms: C_6  and  C_7
REMARK    7  A    between atoms: C_7  and  C_8
REMARK    8  A    between atoms: C_8  and  N_9
REMARK    9  A    between atoms: C_11  and  C_12
REMARK   10  A    between atoms: C_12  and  N_13
REMARK                            x       y       z     vdW  Elec       q    Type
REMARK                         _______ _______ _______ _____ _____    ______ ____
ROOT
ATOM      1  N   UNL     1       5.522   5.216  16.291  0.00  0.00    +0.000 N 
ATOM      2  C   UNL     1       4.919   4.240  17.039  0.00  0.00    +0.000 A 
ATOM      3  C   UNL     1       5.497   4.229  18.294  0.00  0.00    +0.000 A 
ATOM      4  C   UNL     1       6.423   5.324  18.328  0.00  0.00    +0.000 A 
ATOM      5  C   UNL     1       7.309   5.831  19.300  0.00  0.00    +0.000 A 
ATOM      6  F   UNL     1       7.385   5.271  20.516  0.00  0.00    +0.000 F 
ATOM      7  C   UNL     1       8.138   6.916  19.011  0.00  0.00    +0.000 A 
ATOM      8  C   UNL     1       8.090   7.517  17.759  0.00  0.00    +0.000 A 
ATOM      9  C   UNL     1       7.215   7.046  16.773  0.00  0.00    +0.000 A 
ATOM     10  C   UNL     1       6.400   5.939  17.071  0.00  0.00    +0.000 A 
ENDROOT
BRANCH   1  11
ATOM     11  C   UNL     1       5.339   5.352  14.853  0.00  0.00    +0.000 C 
BRANCH  11  12
ATOM     12  C   UNL     1       5.762   4.114  14.054  0.00  0.00    +0.000 C 
BRANCH  12  13
ATOM     13  C   UNL     1       6.899   4.393  13.066  0.00  0.00    +0.000 C 
BRANCH  13  14
ATOM     14  C   UNL     1       6.738   3.575  11.787  0.00  0.00    +0.000 C 
BRANCH  14  15
ATOM     15  C   UNL     1       5.620   2.544  11.942  0.00  0.00    +0.000 C 
BRANCH  15  16
ATOM     16  C   UNL     1       4.679   2.562  10.738  0.00  0.00    +0.000 C 
BRANCH  16  18
ATOM     17  C   UNL     1       3.000   4.121   9.702  0.00  0.00    +0.000 C 
ATOM     18  C   UNL     1       3.482   3.476  10.990  0.00  0.00    +0.000 C 
ENDBRANCH  16  18
ENDBRANCH  15  16
ENDBRANCH  14  15
ENDBRANCH  13  14
ENDBRANCH  12  13
ENDBRANCH  11  12
ENDBRANCH   1  11
BRANCH   3  19
ATOM     19  C   UNL     1       5.239   3.239  19.388  0.00  0.00    +0.000 C 
BRANCH  19  20
ATOM     20  N   UNL     1       3.816   3.261  19.808  0.00  0.00    +0.000 NA
ATOM     21  C   UNL     1       3.304   4.625  19.972  0.00  0.00    +0.000 C 
ATOM     22  C   UNL     1       2.150   4.679  20.982  0.00  0.00    +0.000 C 
ATOM     23  C   UNL     1       0.785   4.299  20.426  0.00  0.00    +0.000 C 
ATOM     24  C   UNL     1       0.710   2.894  19.844  0.00  0.00    +0.000 C 
ATOM     25  C   UNL     1       1.578   2.733  18.605  0.00  0.00    +0.000 C 
ATOM     26  C   UNL     1       3.046   2.404  18.894  0.00  0.00    +0.000 C 
ENDBRANCH  19  20
ENDBRANCH   3  19
TORSDOF 9
ENDMDL
