MODEL 1
REMARK VINA RESULT:      -8.3      0.000      0.000
REMARK  Name = 
REMARK  11 active torsions:
REMARK  status: ('A' for Active; 'I' for Inactive)
REMARK    1  A    between atoms: C_1  and  C_2
REMARK    2  A    between atoms: C_5  and  S_6
REMARK    3  A    between atoms: S_6  and  O_9
REMARK    4  A    between atoms: O_9  and  C_10
REMARK    5  A    between atoms: C_10  and  C_11
REMARK    6  A    between atoms: C_11  and  C_12
REMARK    7  A    between atoms: C_15  and  O_17
REMARK    8  A    between atoms: O_17  and  C_18
REMARK    9  A    between atoms: C_18  and  C_19
REMARK   10  A    between atoms: C_25  and  C_26
REMARK   11  A    between atoms: C_25  and  C_27
REMARK                            x       y       z     vdW  Elec       q    Type
REMARK                         _______ _______ _______ _____ _____    ______ ____
ROOT
ATOM      1  C   UNL     1       1.983   5.974  18.998  0.00  0.00    +0.000 C 
ATOM      2  C   UNL     1       3.196   5.818  19.892  0.00  0.00    +0.000 C 
ATOM      3  N   UNL     1       3.758   4.566  19.459  0.00  0.00    +0.000 N 
ATOM      4  C   UNL     1       5.083   4.233  19.512  0.00  0.00    +0.000 C 
ATOM      5  O   UNL     1       5.520   3.112  19.283  0.00  0.00    +0.000 OA
ATOM      6  C   UNL     1       2.744   3.744  18.839  0.00  0.00    +0.000 C 
ATOM      7  C   UNL     1       3.179   3.181  17.480  0.00  0.00    +0.000 C 
ATOM      8  C   UNL     1       2.222   2.619  19.735  0.00  0.00    +0.000 C 
ATOM      9  O   UNL     1       1.624   4.637  18.605  0.00  0.00    +0.000 OA
ENDROOT
BRANCH   1  10
ATOM     10  C   UNL     1       2.304   6.829  17.770  0.00  0.00    +0.000 C 
BRANCH  10  11
ATOM     11  C   UNL     1       2.488   8.310  18.076  0.00  0.00    +0.000 C 
BRANCH  11  12
ATOM     12  O   UNL     1       1.375   9.105  17.680  0.00  0.00    +0.000 OA
BRANCH  12  13
ATOM     13  S   UNL     1       0.805  10.104  18.843  0.00  0.00    +0.000 S 
ATOM     14  O   UNL     1       1.541  11.346  18.749  0.00  0.00    +0.000 OA
ATOM     15  O   UNL     1       0.761   9.357  20.089  0.00  0.00    +0.000 OA
BRANCH  13  20
ATOM     16  C   UNL     1      -4.877  11.450  17.185  0.00  0.00    +0.000 C 
ATOM     17  C   UNL     1      -3.489  11.100  17.642  0.00  0.00    +0.000 A 
ATOM     18  C   UNL     1      -2.912  11.725  18.758  0.00  0.00    +0.000 A 
ATOM     19  C   UNL     1      -1.608  11.410  19.157  0.00  0.00    +0.000 A 
ATOM     20  C   UNL     1      -0.882  10.469  18.428  0.00  0.00    +0.000 A 
ATOM     21  C   UNL     1      -1.451   9.829  17.320  0.00  0.00    +0.000 A 
ATOM     22  C   UNL     1      -2.751  10.147  16.930  0.00  0.00    +0.000 A 
ENDBRANCH  13  20
ENDBRANCH  12  13
ENDBRANCH  11  12
ENDBRANCH  10  11
ENDBRANCH   1  10
BRANCH   4  23
ATOM     23  O   UNL     1       5.858   5.324  19.753  0.00  0.00    +0.000 OA
BRANCH  23  24
ATOM     24  C   UNL     1       7.000   5.507  18.907  0.00  0.00    +0.000 C 
BRANCH  24  25
ATOM     25  C   UNL     1       6.637   5.520  17.435  0.00  0.00    +0.000 A 
ATOM     26  C   UNL     1       7.161   4.524  16.594  0.00  0.00    +0.000 A 
ATOM     27  C   UNL     1       6.723   4.396  15.273  0.00  0.00    +0.000 A 
ATOM     28  C   UNL     1       5.757   5.263  14.773  0.00  0.00    +0.000 A 
ATOM     29  C   UNL     1       5.250   6.278  15.584  0.00  0.00    +0.000 A 
ATOM     30  C   UNL     1       5.686   6.407  16.907  0.00  0.00    +0.000 A 
ENDBRANCH  24  25
ENDBRANCH  23  24
ENDBRANCH   4  23
TORSDOF 8
ENDMDL
MODEL 2
REMARK VINA RESULT:      -8.3      1.128      1.986
REMARK  Name = 
REMARK  11 active torsions:
REMARK  status: ('A' for Active; 'I' for Inactive)
REMARK    1  A    between atoms: C_1  and  C_2
REMARK    2  A    between atoms: C_5  and  S_6
REMARK    3  A    between atoms: S_6  and  O_9
REMARK    4  A    between atoms: O_9  and  C_10
REMARK    5  A    between atoms: C_10  and  C_11
REMARK    6  A    between atoms: C_11  and  C_12
REMARK    7  A    between atoms: C_15  and  O_17
REMARK    8  A    between atoms: O_17  and  C_18
REMARK    9  A    between atoms: C_18  and  C_19
REMARK   10  A    between atoms: C_25  and  C_26
REMARK   11  A    between atoms: C_25  and  C_27
REMARK                            x       y       z     vdW  Elec       q    Type
REMARK                         _______ _______ _______ _____ _____    ______ ____
ROOT
ATOM      1  C   UNL     1       2.179   5.952  19.659  0.00  0.00    +0.000 C 
ATOM      2  C   UNL     1       3.476   5.297  20.090  0.00  0.00    +0.000 C 
ATOM      3  N   UNL     1       3.248   3.907  19.799  0.00  0.00    +0.000 N 
ATOM      4  C   UNL     1       4.216   2.998  19.470  0.00  0.00    +0.000 C 
ATOM      5  O   UNL     1       4.023   1.792  19.377  0.00  0.00    +0.000 OA
ATOM      6  C   UNL     1       1.832   3.619  19.780  0.00  0.00    +0.000 C 
ATOM      7  C   UNL     1       1.396   2.846  18.529  0.00  0.00    +0.000 C 
ATOM      8  C   UNL     1       1.323   2.916  21.040  0.00  0.00    +0.000 C 
ATOM      9  O   UNL     1       1.183   4.916  19.742  0.00  0.00    +0.000 OA
ENDROOT
BRANCH   1  10
ATOM     10  C   UNL     1       2.277   6.492  18.230  0.00  0.00    +0.000 C 
BRANCH  10  11
ATOM     11  C   UNL     1       2.528   7.992  18.150  0.00  0.00    +0.000 C 
BRANCH  11  12
ATOM     12  O   UNL     1       1.383   8.729  17.733  0.00  0.00    +0.000 OA
BRANCH  12  13
ATOM     13  S   UNL     1       0.956   9.948  18.735  0.00  0.00    +0.000 S 
ATOM     14  O   UNL     1       1.812  11.076  18.436  0.00  0.00    +0.000 OA
ATOM     15  O   UNL     1       0.877   9.410  20.083  0.00  0.00    +0.000 OA
BRANCH  13  20
ATOM     16  C   UNL     1      -4.778  11.498  17.485  0.00  0.00    +0.000 C 
ATOM     17  C   UNL     1      -3.345  11.127  17.744  0.00  0.00    +0.000 A 
ATOM     18  C   UNL     1      -2.719  10.098  17.026  0.00  0.00    +0.000 A 
ATOM     19  C   UNL     1      -1.392   9.744  17.296  0.00  0.00    +0.000 A 
ATOM     20  C   UNL     1      -0.697  10.423  18.296  0.00  0.00    +0.000 A 
ATOM     21  C   UNL     1      -1.307  11.460  19.012  0.00  0.00    +0.000 A 
ATOM     22  C   UNL     1      -2.628  11.807  18.736  0.00  0.00    +0.000 A 
ENDBRANCH  13  20
ENDBRANCH  12  13
ENDBRANCH  11  12
ENDBRANCH  10  11
ENDBRANCH   1  10
BRANCH   4  23
ATOM     23  O   UNL     1       5.388   3.614  19.163  0.00  0.00    +0.000 OA
BRANCH  23  24
ATOM     24  C   UNL     1       5.488   4.206  17.862  0.00  0.00    +0.000 C 
BRANCH  24  25
ATOM     25  C   UNL     1       6.417   5.404  17.839  0.00  0.00    +0.000 A 
ATOM     26  C   UNL     1       6.134   6.470  16.970  0.00  0.00    +0.000 A 
ATOM     27  C   UNL     1       6.861   7.662  17.033  0.00  0.00    +0.000 A 
ATOM     28  C   UNL     1       7.884   7.804  17.965  0.00  0.00    +0.000 A 
ATOM     29  C   UNL     1       8.201   6.744  18.813  0.00  0.00    +0.000 A 
ATOM     30  C   UNL     1       7.473   5.550  18.752  0.00  0.00    +0.000 A 
ENDBRANCH  24  25
ENDBRANCH  23  24
ENDBRANCH   4  23
TORSDOF 8
ENDMDL
MODEL 3
REMARK VINA RESULT:      -8.1      1.454      1.861
REMARK  Name = 
REMARK  11 active torsions:
REMARK  status: ('A' for Active; 'I' for Inactive)
REMARK    1  A    between atoms: C_1  and  C_2
REMARK    2  A    between atoms: C_5  and  S_6
REMARK    3  A    between atoms: S_6  and  O_9
REMARK    4  A    between atoms: O_9  and  C_10
REMARK    5  A    between atoms: C_10  and  C_11
REMARK    6  A    between atoms: C_11  and  C_12
REMARK    7  A    between atoms: C_15  and  O_17
REMARK    8  A    between atoms: O_17  and  C_18
REMARK    9  A    between atoms: C_18  and  C_19
REMARK   10  A    between atoms: C_25  and  C_26
REMARK   11  A    between atoms: C_25  and  C_27
REMARK                            x       y       z     vdW  Elec       q    Type
REMARK                         _______ _______ _______ _____ _____    ______ ____
ROOT
ATOM      1  C   UNL     1       1.643   5.208  20.728  0.00  0.00    +0.000 C 
ATOM      2  C   UNL     1       2.864   4.316  20.841  0.00  0.00    +0.000 C 
ATOM      3  N   UNL     1       2.908   3.666  19.559  0.00  0.00    +0.000 N 
ATOM      4  C   UNL     1       4.042   3.223  18.935  0.00  0.00    +0.000 C 
ATOM      5  O   UNL     1       4.046   2.538  17.920  0.00  0.00    +0.000 OA
ATOM      6  C   UNL     1       1.597   3.651  18.952  0.00  0.00    +0.000 C 
ATOM      7  C   UNL     1       1.603   4.148  17.501  0.00  0.00    +0.000 C 
ATOM      8  C   UNL     1       0.883   2.301  19.046  0.00  0.00    +0.000 C 
ATOM      9  O   UNL     1       0.809   4.587  19.733  0.00  0.00    +0.000 OA
ENDROOT
BRANCH   1  10
ATOM     10  C   UNL     1       2.029   6.626  20.300  0.00  0.00    +0.000 C 
BRANCH  10  11
ATOM     11  C   UNL     1       1.247   7.722  21.013  0.00  0.00    +0.000 C 
BRANCH  11  12
ATOM     12  O   UNL     1       1.454   9.014  20.449  0.00  0.00    +0.000 OA
BRANCH  12  13
ATOM     13  S   UNL     1       0.418  10.162  20.982  0.00  0.00    +0.000 S 
ATOM     14  O   UNL     1       1.190  11.361  21.231  0.00  0.00    +0.000 OA
ATOM     15  O   UNL     1      -0.400   9.573  22.029  0.00  0.00    +0.000 OA
BRANCH  13  20
ATOM     16  C   UNL     1      -3.564  11.331  16.553  0.00  0.00    +0.000 C 
ATOM     17  C   UNL     1      -2.539  11.054  17.616  0.00  0.00    +0.000 A 
ATOM     18  C   UNL     1      -1.569  10.054  17.448  0.00  0.00    +0.000 A 
ATOM     19  C   UNL     1      -0.637   9.788  18.457  0.00  0.00    +0.000 A 
ATOM     20  C   UNL     1      -0.685  10.525  19.640  0.00  0.00    +0.000 A 
ATOM     21  C   UNL     1      -1.640  11.534  19.815  0.00  0.00    +0.000 A 
ATOM     22  C   UNL     1      -2.565  11.794  18.804  0.00  0.00    +0.000 A 
ENDBRANCH  13  20
ENDBRANCH  12  13
ENDBRANCH  11  12
ENDBRANCH  10  11
ENDBRANCH   1  10
BRANCH   4  23
ATOM     23  O   UNL     1       5.160   3.723  19.527  0.00  0.00    +0.000 OA
BRANCH  23  24
ATOM     24  C   UNL     1       5.515   5.072  19.203  0.00  0.00    +0.000 C 
BRANCH  24  25
ATOM     25  C   UNL     1       5.821   5.255  17.729  0.00  0.00    +0.000 A 
ATOM     26  C   UNL     1       6.902   4.557  17.165  0.00  0.00    +0.000 A 
ATOM     27  C   UNL     1       7.118   4.561  15.785  0.00  0.00    +0.000 A 
ATOM     28  C   UNL     1       6.258   5.265  14.948  0.00  0.00    +0.000 A 
ATOM     29  C   UNL     1       5.199   5.990  15.493  0.00  0.00    +0.000 A 
ATOM     30  C   UNL     1       4.981   5.986  16.876  0.00  0.00    +0.000 A 
ENDBRANCH  24  25
ENDBRANCH  23  24
ENDBRANCH   4  23
TORSDOF 8
ENDMDL
MODEL 4
REMARK VINA RESULT:      -8.0      1.415      3.777
REMARK  Name = 
REMARK  11 active torsions:
REMARK  status: ('A' for Active; 'I' for Inactive)
REMARK    1  A    between atoms: C_1  and  C_2
REMARK    2  A    between atoms: C_5  and  S_6
REMARK    3  A    between atoms: S_6  and  O_9
REMARK    4  A    between atoms: O_9  and  C_10
REMARK    5  A    between atoms: C_10  and  C_11
REMARK    6  A    between atoms: C_11  and  C_12
REMARK    7  A    between atoms: C_15  and  O_17
REMARK    8  A    between atoms: O_17  and  C_18
REMARK    9  A    between atoms: C_18  and  C_19
REMARK   10  A    between atoms: C_25  and  C_26
REMARK   11  A    between atoms: C_25  and  C_27
REMARK                            x       y       z     vdW  Elec       q    Type
REMARK                         _______ _______ _______ _____ _____    ______ ____
ROOT
ATOM      1  C   UNL     1       3.919   6.701  16.736  0.00  0.00    +0.000 C 
ATOM      2  C   UNL     1       4.085   5.370  17.441  0.00  0.00    +0.000 C 
ATOM      3  N   UNL     1       5.511   5.260  17.592  0.00  0.00    +0.000 N 
ATOM      4  C   UNL     1       6.151   4.588  18.597  0.00  0.00    +0.000 C 
ATOM      5  O   UNL     1       7.357   4.377  18.624  0.00  0.00    +0.000 OA
ATOM      6  C   UNL     1       6.189   6.063  16.600  0.00  0.00    +0.000 C 
ATOM      7  C   UNL     1       7.273   6.966  17.201  0.00  0.00    +0.000 C 
ATOM      8  C   UNL     1       6.759   5.257  15.431  0.00  0.00    +0.000 C 
ATOM      9  O   UNL     1       5.161   6.923  16.044  0.00  0.00    +0.000 OA
ENDROOT
BRANCH   1  10
ATOM     10  C   UNL     1       3.650   7.829  17.736  0.00  0.00    +0.000 C 
BRANCH  10  11
ATOM     11  C   UNL     1       2.171   8.118  17.961  0.00  0.00    +0.000 C 
BRANCH  11  12
ATOM     12  O   UNL     1       1.790   9.429  17.555  0.00  0.00    +0.000 OA
BRANCH  12  13
ATOM     13  S   UNL     1       1.139  10.346  18.742  0.00  0.00    +0.000 S 
ATOM     14  O   UNL     1       1.758  11.653  18.670  0.00  0.00    +0.000 OA
ATOM     15  O   UNL     1       1.174   9.573  19.972  0.00  0.00    +0.000 OA
BRANCH  13  20
ATOM     16  C   UNL     1      -4.656  11.176  17.137  0.00  0.00    +0.000 C 
ATOM     17  C   UNL     1      -3.238  10.956  17.583  0.00  0.00    +0.000 A 
ATOM     18  C   UNL     1      -2.686  11.691  18.643  0.00  0.00    +0.000 A 
ATOM     19  C   UNL     1      -1.356  11.495  19.030  0.00  0.00    +0.000 A 
ATOM     20  C   UNL     1      -0.577  10.563  18.345  0.00  0.00    +0.000 A 
ATOM     21  C   UNL     1      -1.120   9.814  17.293  0.00  0.00    +0.000 A 
ATOM     22  C   UNL     1      -2.446  10.014  16.915  0.00  0.00    +0.000 A 
ENDBRANCH  13  20
ENDBRANCH  12  13
ENDBRANCH  11  12
ENDBRANCH  10  11
ENDBRANCH   1  10
BRANCH   4  23
ATOM     23  O   UNL     1       5.295   4.277  19.607  0.00  0.00    +0.000 OA
BRANCH  23  24
ATOM     24  C   UNL     1       4.851   2.917  19.683  0.00  0.00    +0.000 C 
BRANCH  24  25
ATOM     25  C   UNL     1       3.340   2.802  19.753  0.00  0.00    +0.000 A 
ATOM     26  C   UNL     1       2.651   3.485  20.770  0.00  0.00    +0.000 A 
ATOM     27  C   UNL     1       1.255   3.547  20.774  0.00  0.00    +0.000 A 
ATOM     28  C   UNL     1       0.528   2.925  19.765  0.00  0.00    +0.000 A 
ATOM     29  C   UNL     1       1.194   2.216  18.766  0.00  0.00    +0.000 A 
ATOM     30  C   UNL     1       2.592   2.154  18.759  0.00  0.00    +0.000 A 
ENDBRANCH  24  25
ENDBRANCH  23  24
ENDBRANCH   4  23
TORSDOF 8
ENDMDL
MODEL 5
REMARK VINA RESULT:      -8.0      1.238      1.373
REMARK  Name = 
REMARK  11 active torsions:
REMARK  status: ('A' for Active; 'I' for Inactive)
REMARK    1  A    between atoms: C_1  and  C_2
REMARK    2  A    between atoms: C_5  and  S_6
REMARK    3  A    between atoms: S_6  and  O_9
REMARK    4  A    between atoms: O_9  and  C_10
REMARK    5  A    between atoms: C_10  and  C_11
REMARK    6  A    between atoms: C_11  and  C_12
REMARK    7  A    between atoms: C_15  and  O_17
REMARK    8  A    between atoms: O_17  and  C_18
REMARK    9  A    between atoms: C_18  and  C_19
REMARK   10  A    between atoms: C_25  and  C_26
REMARK   11  A    between atoms: C_25  and  C_27
REMARK                            x       y       z     vdW  Elec       q    Type
REMARK                         _______ _______ _______ _____ _____    ______ ____
ROOT
ATOM      1  C   UNL     1       1.800   5.463  20.615  0.00  0.00    +0.000 C 
ATOM      2  C   UNL     1       2.974   4.520  20.785  0.00  0.00    +0.000 C 
ATOM      3  N   UNL     1       2.979   3.784  19.549  0.00  0.00    +0.000 N 
ATOM      4  C   UNL     1       4.086   3.243  18.954  0.00  0.00    +0.000 C 
ATOM      5  O   UNL     1       4.049   2.493  17.987  0.00  0.00    +0.000 OA
ATOM      6  C   UNL     1       1.665   3.796  18.947  0.00  0.00    +0.000 C 
ATOM      7  C   UNL     1       1.690   4.194  17.466  0.00  0.00    +0.000 C 
ATOM      8  C   UNL     1       0.885   2.493  19.132  0.00  0.00    +0.000 C 
ATOM      9  O   UNL     1       0.930   4.821  19.665  0.00  0.00    +0.000 OA
ENDROOT
BRANCH   1  10
ATOM     10  C   UNL     1       2.255   6.828  20.093  0.00  0.00    +0.000 C 
BRANCH  10  11
ATOM     11  C   UNL     1       1.410   7.994  20.590  0.00  0.00    +0.000 C 
BRANCH  11  12
ATOM     12  O   UNL     1       1.327   9.064  19.653  0.00  0.00    +0.000 OA
BRANCH  12  13
ATOM     13  S   UNL     1       0.494  10.368  20.181  0.00  0.00    +0.000 S 
ATOM     14  O   UNL     1       1.344  11.527  20.005  0.00  0.00    +0.000 OA
ATOM     15  O   UNL     1      -0.061  10.044  21.485  0.00  0.00    +0.000 OA
BRANCH  13  20
ATOM     16  C   UNL     1      -4.077  11.161  16.268  0.00  0.00    +0.000 C 
ATOM     17  C   UNL     1      -2.980  10.948  17.273  0.00  0.00    +0.000 A 
ATOM     18  C   UNL     1      -2.954  11.660  18.481  0.00  0.00    +0.000 A 
ATOM     19  C   UNL     1      -1.912  11.473  19.397  0.00  0.00    +0.000 A 
ATOM     20  C   UNL     1      -0.892  10.572  19.092  0.00  0.00    +0.000 A 
ATOM     21  C   UNL     1      -0.914   9.846  17.895  0.00  0.00    +0.000 A 
ATOM     22  C   UNL     1      -1.956  10.037  16.989  0.00  0.00    +0.000 A 
ENDBRANCH  13  20
ENDBRANCH  12  13
ENDBRANCH  11  12
ENDBRANCH  10  11
ENDBRANCH   1  10
BRANCH   4  23
ATOM     23  O   UNL     1       5.230   3.724  19.510  0.00  0.00    +0.000 OA
BRANCH  23  24
ATOM     24  C   UNL     1       5.604   5.063  19.166  0.00  0.00    +0.000 C 
BRANCH  24  25
ATOM     25  C   UNL     1       5.868   5.230  17.682  0.00  0.00    +0.000 A 
ATOM     26  C   UNL     1       6.934   4.526  17.096  0.00  0.00    +0.000 A 
ATOM     27  C   UNL     1       7.111   4.515  15.710  0.00  0.00    +0.000 A 
ATOM     28  C   UNL     1       6.228   5.210  14.890  0.00  0.00    +0.000 A 
ATOM     29  C   UNL     1       5.185   5.940  15.457  0.00  0.00    +0.000 A 
ATOM     30  C   UNL     1       5.004   5.952  16.845  0.00  0.00    +0.000 A 
ENDBRANCH  24  25
ENDBRANCH  23  24
ENDBRANCH   4  23
TORSDOF 8
ENDMDL
MODEL 6
REMARK VINA RESULT:      -7.9      1.958      2.866
REMARK  Name = 
REMARK  11 active torsions:
REMARK  status: ('A' for Active; 'I' for Inactive)
REMARK    1  A    between atoms: C_1  and  C_2
REMARK    2  A    between atoms: C_5  and  S_6
REMARK    3  A    between atoms: S_6  and  O_9
REMARK    4  A    between atoms: O_9  and  C_10
REMARK    5  A    between atoms: C_10  and  C_11
REMARK    6  A    between atoms: C_11  and  C_12
REMARK    7  A    between atoms: C_15  and  O_17
REMARK    8  A    between atoms: O_17  and  C_18
REMARK    9  A    between atoms: C_18  and  C_19
REMARK   10  A    between atoms: C_25  and  C_26
REMARK   11  A    between atoms: C_25  and  C_27
REMARK                            x       y       z     vdW  Elec       q    Type
REMARK                         _______ _______ _______ _____ _____    ______ ____
ROOT
ATOM      1  C   UNL     1       2.136   5.780  19.606  0.00  0.00    +0.000 C 
ATOM      2  C   UNL     1       3.440   5.223  20.140  0.00  0.00    +0.000 C 
ATOM      3  N   UNL     1       3.298   3.807  19.927  0.00  0.00    +0.000 N 
ATOM      4  C   UNL     1       4.327   2.934  19.703  0.00  0.00    +0.000 C 
ATOM      5  O   UNL     1       4.201   1.716  19.676  0.00  0.00    +0.000 OA
ATOM      6  C   UNL     1       1.902   3.443  19.855  0.00  0.00    +0.000 C 
ATOM      7  C   UNL     1       1.572   2.574  18.636  0.00  0.00    +0.000 C 
ATOM      8  C   UNL     1       1.364   2.791  21.131  0.00  0.00    +0.000 C 
ATOM      9  O   UNL     1       1.191   4.699  19.705  0.00  0.00    +0.000 OA
ENDROOT
BRANCH   1  10
ATOM     10  C   UNL     1       2.282   6.237  18.152  0.00  0.00    +0.000 C 
BRANCH  10  11
ATOM     11  C   UNL     1       2.620   7.715  17.998  0.00  0.00    +0.000 C 
BRANCH  11  12
ATOM     12  O   UNL     1       2.074   8.524  19.036  0.00  0.00    +0.000 OA
BRANCH  12  13
ATOM     13  S   UNL     1       1.216   9.813  18.511  0.00  0.00    +0.000 S 
ATOM     14  O   UNL     1       0.227   9.325  17.574  0.00  0.00    +0.000 OA
ATOM     15  O   UNL     1       2.159  10.850  18.125  0.00  0.00    +0.000 OA
BRANCH  13  20
ATOM     16  C   UNL     1      -1.925  11.745  23.333  0.00  0.00    +0.000 C 
ATOM     17  C   UNL     1      -1.127  11.316  22.134  0.00  0.00    +0.000 A 
ATOM     18  C   UNL     1      -1.330  11.904  20.877  0.00  0.00    +0.000 A 
ATOM     19  C   UNL     1      -0.599  11.477  19.763  0.00  0.00    +0.000 A 
ATOM     20  C   UNL     1       0.332  10.449  19.913  0.00  0.00    +0.000 A 
ATOM     21  C   UNL     1       0.553   9.862  21.165  0.00  0.00    +0.000 A 
ATOM     22  C   UNL     1      -0.178  10.296  22.270  0.00  0.00    +0.000 A 
ENDBRANCH  13  20
ENDBRANCH  12  13
ENDBRANCH  11  12
ENDBRANCH  10  11
ENDBRANCH   1  10
BRANCH   4  23
ATOM     23  O   UNL     1       5.481   3.593  19.416  0.00  0.00    +0.000 OA
BRANCH  23  24
ATOM     24  C   UNL     1       5.703   3.943  18.045  0.00  0.00    +0.000 C 
BRANCH  24  25
ATOM     25  C   UNL     1       6.469   5.243  17.894  0.00  0.00    +0.000 A 
ATOM     26  C   UNL     1       5.961   6.240  17.044  0.00  0.00    +0.000 A 
ATOM     27  C   UNL     1       6.537   7.512  17.002  0.00  0.00    +0.000 A 
ATOM     28  C   UNL     1       7.632   7.806  17.809  0.00  0.00    +0.000 A 
ATOM     29  C   UNL     1       8.170   6.820  18.634  0.00  0.00    +0.000 A 
ATOM     30  C   UNL     1       7.593   5.545  18.678  0.00  0.00    +0.000 A 
ENDBRANCH  24  25
ENDBRANCH  23  24
ENDBRANCH   4  23
TORSDOF 8
ENDMDL
MODEL 7
REMARK VINA RESULT:      -7.8      5.330      8.218
REMARK  Name = 
REMARK  11 active torsions:
REMARK  status: ('A' for Active; 'I' for Inactive)
REMARK    1  A    between atoms: C_1  and  C_2
REMARK    2  A    between atoms: C_5  and  S_6
REMARK    3  A    between atoms: S_6  and  O_9
REMARK    4  A    between atoms: O_9  and  C_10
REMARK    5  A    between atoms: C_10  and  C_11
REMARK    6  A    between atoms: C_11  and  C_12
REMARK    7  A    between atoms: C_15  and  O_17
REMARK    8  A    between atoms: O_17  and  C_18
REMARK    9  A    between atoms: C_18  and  C_19
REMARK   10  A    between atoms: C_25  and  C_26
REMARK   11  A    between atoms: C_25  and  C_27
REMARK                            x       y       z     vdW  Elec       q    Type
REMARK                         _______ _______ _______ _____ _____    ______ ____
ROOT
ATOM      1  C   UNL     1       7.288   7.625  16.942  0.00  0.00    +0.000 C 
ATOM      2  C   UNL     1       5.843   7.279  17.242  0.00  0.00    +0.000 C 
ATOM      3  N   UNL     1       5.886   5.855  17.439  0.00  0.00    +0.000 N 
ATOM      4  C   UNL     1       5.041   5.142  18.245  0.00  0.00    +0.000 C 
ATOM      5  O   UNL     1       4.996   3.919  18.281  0.00  0.00    +0.000 OA
ATOM      6  C   UNL     1       7.029   5.284  16.764  0.00  0.00    +0.000 C 
ATOM      7  C   UNL     1       7.852   4.354  17.663  0.00  0.00    +0.000 C 
ATOM      8  C   UNL     1       6.686   4.582  15.448  0.00  0.00    +0.000 C 
ATOM      9  O   UNL     1       7.868   6.417  16.418  0.00  0.00    +0.000 OA
ENDROOT
BRANCH   1  10
ATOM     10  C   UNL     1       8.026   8.074  18.206  0.00  0.00    +0.000 C 
BRANCH  10  11
ATOM     11  C   UNL     1       8.580   9.490  18.130  0.00  0.00    +0.000 C 
BRANCH  11  12
ATOM     12  O   UNL     1       9.189   9.918  19.345  0.00  0.00    +0.000 OA
BRANCH  12  13
ATOM     13  S   UNL     1       9.862  11.407  19.280  0.00  0.00    +0.000 S 
ATOM     14  O   UNL     1       9.198  12.139  18.223  0.00  0.00    +0.000 OA
ATOM     15  O   UNL     1      11.307  11.243  19.278  0.00  0.00    +0.000 OA
BRANCH  13  20
ATOM     16  C   UNL     1       8.228  14.158  24.438  0.00  0.00    +0.000 C 
ATOM     17  C   UNL     1       8.683  13.487  23.173  0.00  0.00    +0.000 A 
ATOM     18  C   UNL     1       9.395  14.192  22.191  0.00  0.00    +0.000 A 
ATOM     19  C   UNL     1       9.790  13.562  21.006  0.00  0.00    +0.000 A 
ATOM     20  C   UNL     1       9.461  12.222  20.805  0.00  0.00    +0.000 A 
ATOM     21  C   UNL     1       8.762  11.504  21.783  0.00  0.00    +0.000 A 
ATOM     22  C   UNL     1       8.374  12.138  22.962  0.00  0.00    +0.000 A 
ENDBRANCH  13  20
ENDBRANCH  12  13
ENDBRANCH  11  12
ENDBRANCH  10  11
ENDBRANCH   1  10
BRANCH   4  23
ATOM     23  O   UNL     1       4.335   5.961  19.069  0.00  0.00    +0.000 OA
BRANCH  23  24
ATOM     24  C   UNL     1       2.907   5.898  18.976  0.00  0.00    +0.000 C 
BRANCH  24  25
ATOM     25  C   UNL     1       2.335   4.667  19.652  0.00  0.00    +0.000 A 
ATOM     26  C   UNL     1       2.663   4.411  20.994  0.00  0.00    +0.000 A 
ATOM     27  C   UNL     1       2.031   3.389  21.706  0.00  0.00    +0.000 A 
ATOM     28  C   UNL     1       1.063   2.605  21.086  0.00  0.00    +0.000 A 
ATOM     29  C   UNL     1       0.748   2.824  19.746  0.00  0.00    +0.000 A 
ATOM     30  C   UNL     1       1.379   3.848  19.031  0.00  0.00    +0.000 A 
ENDBRANCH  24  25
ENDBRANCH  23  24
ENDBRANCH   4  23
TORSDOF 8
ENDMDL
MODEL 8
REMARK VINA RESULT:      -7.8      2.636      7.639
REMARK  Name = 
REMARK  11 active torsions:
REMARK  status: ('A' for Active; 'I' for Inactive)
REMARK    1  A    between atoms: C_1  and  C_2
REMARK    2  A    between atoms: C_5  and  S_6
REMARK    3  A    between atoms: S_6  and  O_9
REMARK    4  A    between atoms: O_9  and  C_10
REMARK    5  A    between atoms: C_10  and  C_11
REMARK    6  A    between atoms: C_11  and  C_12
REMARK    7  A    between atoms: C_15  and  O_17
REMARK    8  A    between atoms: O_17  and  C_18
REMARK    9  A    between atoms: C_18  and  C_19
REMARK   10  A    between atoms: C_25  and  C_26
REMARK   11  A    between atoms: C_25  and  C_27
REMARK                            x       y       z     vdW  Elec       q    Type
REMARK                         _______ _______ _______ _____ _____    ______ ____
ROOT
ATOM      1  C   UNL     1       4.002   3.308  18.168  0.00  0.00    +0.000 C 
ATOM      2  C   UNL     1       3.140   4.555  18.143  0.00  0.00    +0.000 C 
ATOM      3  N   UNL     1       2.221   4.334  19.228  0.00  0.00    +0.000 N 
ATOM      4  C   UNL     1       1.635   5.314  19.981  0.00  0.00    +0.000 C 
ATOM      5  O   UNL     1       0.743   5.114  20.795  0.00  0.00    +0.000 OA
ATOM      6  C   UNL     1       2.092   2.921  19.503  0.00  0.00    +0.000 C 
ATOM      7  C   UNL     1       2.255   2.583  20.989  0.00  0.00    +0.000 C 
ATOM      8  C   UNL     1       0.806   2.297  18.956  0.00  0.00    +0.000 C 
ATOM      9  O   UNL     1       3.189   2.295  18.787  0.00  0.00    +0.000 OA
ENDROOT
BRANCH   1  10
ATOM     10  C   UNL     1       5.285   3.536  18.971  0.00  0.00    +0.000 C 
BRANCH  10  11
ATOM     11  C   UNL     1       5.800   4.968  18.923  0.00  0.00    +0.000 C 
BRANCH  11  12
ATOM     12  O   UNL     1       6.887   5.141  18.018  0.00  0.00    +0.000 OA
BRANCH  12  13
ATOM     13  S   UNL     1       6.613   6.226  16.826  0.00  0.00    +0.000 S 
ATOM     14  O   UNL     1       7.813   7.021  16.677  0.00  0.00    +0.000 OA
ATOM     15  O   UNL     1       5.329   6.858  17.084  0.00  0.00    +0.000 OA
BRANCH  13  20
ATOM     16  C   UNL     1       5.923   2.839  11.836  0.00  0.00    +0.000 C 
ATOM     17  C   UNL     1       6.097   3.721  13.040  0.00  0.00    +0.000 A 
ATOM     18  C   UNL     1       7.260   4.484  13.221  0.00  0.00    +0.000 A 
ATOM     19  C   UNL     1       7.422   5.280  14.360  0.00  0.00    +0.000 A 
ATOM     20  C   UNL     1       6.413   5.303  15.323  0.00  0.00    +0.000 A 
ATOM     21  C   UNL     1       5.242   4.555  15.149  0.00  0.00    +0.000 A 
ATOM     22  C   UNL     1       5.089   3.766  14.010  0.00  0.00    +0.000 A 
ENDBRANCH  13  20
ENDBRANCH  12  13
ENDBRANCH  11  12
ENDBRANCH  10  11
ENDBRANCH   1  10
BRANCH   4  23
ATOM     23  O   UNL     1       2.238   6.517  19.782  0.00  0.00    +0.000 OA
BRANCH  23  24
ATOM     24  C   UNL     1       1.907   7.566  20.699  0.00  0.00    +0.000 C 
BRANCH  24  25
ATOM     25  C   UNL     1       1.204   8.728  20.024  0.00  0.00    +0.000 A 
ATOM     26  C   UNL     1       1.477   8.997  18.672  0.00  0.00    +0.000 A 
ATOM     27  C   UNL     1       0.733   9.945  17.964  0.00  0.00    +0.000 A 
ATOM     28  C   UNL     1      -0.293  10.639  18.598  0.00  0.00    +0.000 A 
ATOM     29  C   UNL     1      -0.555  10.408  19.947  0.00  0.00    +0.000 A 
ATOM     30  C   UNL     1       0.188   9.458  20.658  0.00  0.00    +0.000 A 
ENDBRANCH  24  25
ENDBRANCH  23  24
ENDBRANCH   4  23
TORSDOF 8
ENDMDL
MODEL 9
REMARK VINA RESULT:      -7.8      1.241      1.935
REMARK  Name = 
REMARK  11 active torsions:
REMARK  status: ('A' for Active; 'I' for Inactive)
REMARK    1  A    between atoms: C_1  and  C_2
REMARK    2  A    between atoms: C_5  and  S_6
REMARK    3  A    between atoms: S_6  and  O_9
REMARK    4  A    between atoms: O_9  and  C_10
REMARK    5  A    between atoms: C_10  and  C_11
REMARK    6  A    between atoms: C_11  and  C_12
REMARK    7  A    between atoms: C_15  and  O_17
REMARK    8  A    between atoms: O_17  and  C_18
REMARK    9  A    between atoms: C_18  and  C_19
REMARK   10  A    between atoms: C_25  and  C_26
REMARK   11  A    between atoms: C_25  and  C_27
REMARK                            x       y       z     vdW  Elec       q    Type
REMARK                         _______ _______ _______ _____ _____    ______ ____
ROOT
ATOM      1  C   UNL     1       2.345   5.735  20.178  0.00  0.00    +0.000 C 
ATOM      2  C   UNL     1       3.531   4.794  20.103  0.00  0.00    +0.000 C 
ATOM      3  N   UNL     1       2.922   3.534  19.771  0.00  0.00    +0.000 N 
ATOM      4  C   UNL     1       3.520   2.529  19.062  0.00  0.00    +0.000 C 
ATOM      5  O   UNL     1       3.044   1.409  18.922  0.00  0.00    +0.000 OA
ATOM      6  C   UNL     1       1.537   3.516  20.183  0.00  0.00    +0.000 C 
ATOM      7  C   UNL     1       0.589   3.046  19.073  0.00  0.00    +0.000 C 
ATOM      8  C   UNL     1       1.281   2.726  21.468  0.00  0.00    +0.000 C 
ATOM      9  O   UNL     1       1.213   4.899  20.480  0.00  0.00    +0.000 OA
ENDROOT
BRANCH   1  10
ATOM     10  C   UNL     1       2.134   6.470  18.852  0.00  0.00    +0.000 C 
BRANCH  10  11
ATOM     11  C   UNL     1       2.331   7.978  18.941  0.00  0.00    +0.000 C 
BRANCH  11  12
ATOM     12  O   UNL     1       1.300   8.716  18.292  0.00  0.00    +0.000 OA
BRANCH  12  13
ATOM     13  S   UNL     1       0.926  10.138  19.008  0.00  0.00    +0.000 S 
ATOM     14  O   UNL     1       1.771  11.155  18.420  0.00  0.00    +0.000 OA
ATOM     15  O   UNL     1       0.912   9.922  20.446  0.00  0.00    +0.000 OA
BRANCH  13  20
ATOM     16  C   UNL     1      -4.696  11.545  17.204  0.00  0.00    +0.000 C 
ATOM     17  C   UNL     1      -3.324  11.182  17.697  0.00  0.00    +0.000 A 
ATOM     18  C   UNL     1      -2.754  11.829  18.804  0.00  0.00    +0.000 A 
ATOM     19  C   UNL     1      -1.465  11.501  19.237  0.00  0.00    +0.000 A 
ATOM     20  C   UNL     1      -0.744  10.523  18.550  0.00  0.00    +0.000 A 
ATOM     21  C   UNL     1      -1.307   9.861  17.452  0.00  0.00    +0.000 A 
ATOM     22  C   UNL     1      -2.592  10.193  17.028  0.00  0.00    +0.000 A 
ENDBRANCH  13  20
ENDBRANCH  12  13
ENDBRANCH  11  12
ENDBRANCH  10  11
ENDBRANCH   1  10
BRANCH   4  23
ATOM     23  O   UNL     1       4.656   2.962  18.453  0.00  0.00    +0.000 OA
BRANCH  23  24
ATOM     24  C   UNL     1       4.495   3.756  17.272  0.00  0.00    +0.000 C 
BRANCH  24  25
ATOM     25  C   UNL     1       5.461   4.924  17.221  0.00  0.00    +0.000 A 
ATOM     26  C   UNL     1       5.004   6.168  16.753  0.00  0.00    +0.000 A 
ATOM     27  C   UNL     1       5.804   7.309  16.846  0.00  0.00    +0.000 A 
ATOM     28  C   UNL     1       7.075   7.224  17.406  0.00  0.00    +0.000 A 
ATOM     29  C   UNL     1       7.557   5.992  17.846  0.00  0.00    +0.000 A 
ATOM     30  C   UNL     1       6.756   4.848  17.755  0.00  0.00    +0.000 A 
ENDBRANCH  24  25
ENDBRANCH  23  24
ENDBRANCH   4  23
TORSDOF 8
ENDMDL
