MODEL 1
REMARK VINA RESULT:      -8.4      0.000      0.000
REMARK  Name = 
REMARK  5 active torsions:
REMARK  status: ('A' for Active; 'I' for Inactive)
REMARK    1  A    between atoms: C_1  and  O_2
REMARK    2  A    between atoms: O_2  and  C_3
REMARK    3  A    between atoms: C_9  and  C_10
REMARK    4  A    between atoms: C_12  and  C_13
REMARK    5  A    between atoms: N_15  and  C_16
REMARK                            x       y       z     vdW  Elec       q    Type
REMARK                         _______ _______ _______ _____ _____    ______ ____
ROOT
ATOM      1  C   UNL     1       1.674   5.207  20.323  0.00  0.00    +0.000 A 
ATOM      2  C   UNL     1       0.833   4.129  20.598  0.00  0.00    +0.000 A 
ATOM      3  C   UNL     1       1.090   2.858  20.069  0.00  0.00    +0.000 A 
ATOM      4  C   UNL     1       2.212   2.710  19.247  0.00  0.00    +0.000 A 
ATOM      5  N   UNL     1       2.678   1.606  18.568  0.00  0.00    +0.000 N 
ATOM      6  C   UNL     1       3.799   1.929  17.847  0.00  0.00    +0.000 A 
ATOM      7  C   UNL     1       4.093   3.250  18.102  0.00  0.00    +0.000 A 
ATOM      8  C   UNL     1       3.084   3.763  18.970  0.00  0.00    +0.000 A 
ATOM      9  C   UNL     1       2.815   5.027  19.532  0.00  0.00    +0.000 A 
ATOM     10  H   UNL     1       2.237   0.697  18.586  0.00  0.00    +0.000 HD
ENDROOT
BRANCH   7  11
ATOM     11  C   UNL     1       5.192   3.974  17.541  0.00  0.00    +0.000 A 
ATOM     12  C   UNL     1       5.418   3.996  16.225  0.00  0.00    +0.000 A 
ATOM     13  C   UNL     1       6.537   4.809  15.719  0.00  0.00    +0.000 A 
ATOM     14  C   UNL     1       6.771   4.822  14.230  0.00  0.00    +0.000 C 
ATOM     15  N   UNL     1       7.324   5.516  16.465  0.00  0.00    +0.000 NA
ATOM     16  N   UNL     1       7.097   5.497  17.819  0.00  0.00    +0.000 N 
ATOM     17  C   UNL     1       7.989   6.291  18.641  0.00  0.00    +0.000 C 
ATOM     18  C   UNL     1       6.089   4.766  18.448  0.00  0.00    +0.000 A 
ATOM     19  O   UNL     1       5.934   4.758  19.665  0.00  0.00    +0.000 OA
ENDBRANCH   7  11
BRANCH   1  21
ATOM     20  C   UNL     1       2.086   7.509  19.960  0.00  0.00    +0.000 C 
ATOM     21  O   UNL     1       1.459   6.496  20.737  0.00  0.00    +0.000 OA
ENDBRANCH   1  21
TORSDOF 2
ENDMDL
MODEL 2
REMARK VINA RESULT:      -7.8      2.930      6.670
REMARK  Name = 
REMARK  5 active torsions:
REMARK  status: ('A' for Active; 'I' for Inactive)
REMARK    1  A    between atoms: C_1  and  O_2
REMARK    2  A    between atoms: O_2  and  C_3
REMARK    3  A    between atoms: C_9  and  C_10
REMARK    4  A    between atoms: C_12  and  C_13
REMARK    5  A    between atoms: N_15  and  C_16
REMARK                            x       y       z     vdW  Elec       q    Type
REMARK                         _______ _______ _______ _____ _____    ______ ____
ROOT
ATOM      1  C   UNL     1       5.476   3.396  12.256  0.00  0.00    +0.000 A 
ATOM      2  C   UNL     1       6.703   3.865  11.787  0.00  0.00    +0.000 A 
ATOM      3  C   UNL     1       7.558   4.604  12.613  0.00  0.00    +0.000 A 
ATOM      4  C   UNL     1       7.134   4.868  13.919  0.00  0.00    +0.000 A 
ATOM      5  N   UNL     1       7.740   5.592  14.922  0.00  0.00    +0.000 N 
ATOM      6  C   UNL     1       6.941   5.622  16.037  0.00  0.00    +0.000 A 
ATOM      7  C   UNL     1       5.824   4.862  15.770  0.00  0.00    +0.000 A 
ATOM      8  C   UNL     1       5.922   4.397  14.425  0.00  0.00    +0.000 A 
ATOM      9  C   UNL     1       5.090   3.636  13.580  0.00  0.00    +0.000 A 
ATOM     10  H   UNL     1       8.635   6.053  14.833  0.00  0.00    +0.000 HD
ENDROOT
BRANCH   7  11
ATOM     11  C   UNL     1       4.742   4.638  16.678  0.00  0.00    +0.000 A 
ATOM     12  C   UNL     1       4.352   3.406  17.015  0.00  0.00    +0.000 A 
ATOM     13  C   UNL     1       3.267   3.258  17.999  0.00  0.00    +0.000 A 
ATOM     14  C   UNL     1       2.847   1.857  18.366  0.00  0.00    +0.000 C 
ATOM     15  N   UNL     1       2.658   4.246  18.571  0.00  0.00    +0.000 NA
ATOM     16  N   UNL     1       3.053   5.515  18.229  0.00  0.00    +0.000 N 
ATOM     17  C   UNL     1       2.360   6.611  18.877  0.00  0.00    +0.000 C 
ATOM     18  C   UNL     1       4.054   5.817  17.305  0.00  0.00    +0.000 A 
ATOM     19  O   UNL     1       4.361   6.967  17.010  0.00  0.00    +0.000 OA
ENDBRANCH   7  11
BRANCH   1  21
ATOM     20  C   UNL     1       3.679   3.548  10.725  0.00  0.00    +0.000 C 
ATOM     21  O   UNL     1       4.548   2.731  11.498  0.00  0.00    +0.000 OA
ENDBRANCH   1  21
TORSDOF 2
ENDMDL
MODEL 3
REMARK VINA RESULT:      -7.8      1.106      2.122
REMARK  Name = 
REMARK  5 active torsions:
REMARK  status: ('A' for Active; 'I' for Inactive)
REMARK    1  A    between atoms: C_1  and  O_2
REMARK    2  A    between atoms: O_2  and  C_3
REMARK    3  A    between atoms: C_9  and  C_10
REMARK    4  A    between atoms: C_12  and  C_13
REMARK    5  A    between atoms: N_15  and  C_16
REMARK                            x       y       z     vdW  Elec       q    Type
REMARK                         _______ _______ _______ _____ _____    ______ ____
ROOT
ATOM      1  C   UNL     1       1.637   5.213  20.421  0.00  0.00    +0.000 A 
ATOM      2  C   UNL     1       0.785   4.120  20.578  0.00  0.00    +0.000 A 
ATOM      3  C   UNL     1       1.059   2.895  19.959  0.00  0.00    +0.000 A 
ATOM      4  C   UNL     1       2.209   2.808  19.168  0.00  0.00    +0.000 A 
ATOM      5  N   UNL     1       2.698   1.760  18.420  0.00  0.00    +0.000 N 
ATOM      6  C   UNL     1       3.845   2.134  17.767  0.00  0.00    +0.000 A 
ATOM      7  C   UNL     1       4.131   3.429  18.137  0.00  0.00    +0.000 A 
ATOM      8  C   UNL     1       3.092   3.876  19.007  0.00  0.00    +0.000 A 
ATOM      9  C   UNL     1       2.805   5.092  19.659  0.00  0.00    +0.000 A 
ATOM     10  H   UNL     1       2.256   0.853  18.350  0.00  0.00    +0.000 HD
ENDROOT
BRANCH   7  11
ATOM     11  C   UNL     1       5.250   4.191  17.676  0.00  0.00    +0.000 A 
ATOM     12  C   UNL     1       6.056   4.837  18.523  0.00  0.00    +0.000 A 
ATOM     13  C   UNL     1       7.220   5.554  17.975  0.00  0.00    +0.000 A 
ATOM     14  C   UNL     1       8.117   6.272  18.950  0.00  0.00    +0.000 C 
ATOM     15  N   UNL     1       7.525   5.602  16.718  0.00  0.00    +0.000 NA
ATOM     16  N   UNL     1       6.700   4.940  15.842  0.00  0.00    +0.000 N 
ATOM     17  C   UNL     1       7.055   5.005  14.438  0.00  0.00    +0.000 C 
ATOM     18  C   UNL     1       5.556   4.230  16.206  0.00  0.00    +0.000 A 
ATOM     19  O   UNL     1       4.832   3.672  15.389  0.00  0.00    +0.000 OA
ENDBRANCH   7  11
BRANCH   1  21
ATOM     20  C   UNL     1       1.937   7.546  20.171  0.00  0.00    +0.000 C 
ATOM     21  O   UNL     1       1.409   6.466  20.928  0.00  0.00    +0.000 OA
ENDBRANCH   1  21
TORSDOF 2
ENDMDL
MODEL 4
REMARK VINA RESULT:      -7.5      2.955      5.715
REMARK  Name = 
REMARK  5 active torsions:
REMARK  status: ('A' for Active; 'I' for Inactive)
REMARK    1  A    between atoms: C_1  and  O_2
REMARK    2  A    between atoms: O_2  and  C_3
REMARK    3  A    between atoms: C_9  and  C_10
REMARK    4  A    between atoms: C_12  and  C_13
REMARK    5  A    between atoms: N_15  and  C_16
REMARK                            x       y       z     vdW  Elec       q    Type
REMARK                         _______ _______ _______ _____ _____    ______ ____
ROOT
ATOM      1  C   UNL     1       6.584   5.855  16.628  0.00  0.00    +0.000 A 
ATOM      2  C   UNL     1       6.573   4.537  16.172  0.00  0.00    +0.000 A 
ATOM      3  C   UNL     1       5.429   3.740  16.295  0.00  0.00    +0.000 A 
ATOM      4  C   UNL     1       4.303   4.305  16.902  0.00  0.00    +0.000 A 
ATOM      5  N   UNL     1       3.075   3.752  17.189  0.00  0.00    +0.000 N 
ATOM      6  C   UNL     1       2.278   4.667  17.830  0.00  0.00    +0.000 A 
ATOM      7  C   UNL     1       2.984   5.847  17.914  0.00  0.00    +0.000 A 
ATOM      8  C   UNL     1       4.276   5.626  17.351  0.00  0.00    +0.000 A 
ATOM      9  C   UNL     1       5.433   6.415  17.195  0.00  0.00    +0.000 A 
ATOM     10  H   UNL     1       2.813   2.800  16.975  0.00  0.00    +0.000 HD
ENDROOT
BRANCH   7  11
ATOM     11  C   UNL     1       2.505   7.054  18.515  0.00  0.00    +0.000 A 
ATOM     12  C   UNL     1       2.440   8.200  17.831  0.00  0.00    +0.000 A 
ATOM     13  C   UNL     1       1.883   9.386  18.502  0.00  0.00    +0.000 A 
ATOM     14  C   UNL     1       1.816  10.667  17.710  0.00  0.00    +0.000 C 
ATOM     15  N   UNL     1       1.444   9.400  19.720  0.00  0.00    +0.000 NA
ATOM     16  N   UNL     1       1.509   8.226  20.428  0.00  0.00    +0.000 N 
ATOM     17  C   UNL     1       1.015   8.258  21.790  0.00  0.00    +0.000 C 
ATOM     18  C   UNL     1       2.021   7.024  19.936  0.00  0.00    +0.000 A 
ATOM     19  O   UNL     1       2.082   6.002  20.610  0.00  0.00    +0.000 OA
ENDBRANCH   7  11
BRANCH   1  21
ATOM     20  C   UNL     1       7.674   7.731  17.573  0.00  0.00    +0.000 C 
ATOM     21  O   UNL     1       7.678   6.681  16.614  0.00  0.00    +0.000 OA
ENDBRANCH   1  21
TORSDOF 2
ENDMDL
MODEL 5
REMARK VINA RESULT:      -7.4      1.549      2.420
REMARK  Name = 
REMARK  5 active torsions:
REMARK  status: ('A' for Active; 'I' for Inactive)
REMARK    1  A    between atoms: C_1  and  O_2
REMARK    2  A    between atoms: O_2  and  C_3
REMARK    3  A    between atoms: C_9  and  C_10
REMARK    4  A    between atoms: C_12  and  C_13
REMARK    5  A    between atoms: N_15  and  C_16
REMARK                            x       y       z     vdW  Elec       q    Type
REMARK                         _______ _______ _______ _____ _____    ______ ____
ROOT
ATOM      1  C   UNL     1       1.890   6.461  20.272  0.00  0.00    +0.000 A 
ATOM      2  C   UNL     1       1.323   5.411  20.994  0.00  0.00    +0.000 A 
ATOM      3  C   UNL     1       1.880   4.128  20.961  0.00  0.00    +0.000 A 
ATOM      4  C   UNL     1       3.017   3.932  20.170  0.00  0.00    +0.000 A 
ATOM      5  N   UNL     1       3.740   2.787  19.920  0.00  0.00    +0.000 N 
ATOM      6  C   UNL     1       4.764   3.051  19.046  0.00  0.00    +0.000 A 
ATOM      7  C   UNL     1       4.734   4.399  18.765  0.00  0.00    +0.000 A 
ATOM      8  C   UNL     1       3.619   4.965  19.453  0.00  0.00    +0.000 A 
ATOM      9  C   UNL     1       3.051   6.253  19.520  0.00  0.00    +0.000 A 
ATOM     10  H   UNL     1       3.527   1.879  20.311  0.00  0.00    +0.000 HD
ENDROOT
BRANCH   7  11
ATOM     11  C   UNL     1       5.639   5.080  17.892  0.00  0.00    +0.000 A 
ATOM     12  C   UNL     1       6.352   6.133  18.302  0.00  0.00    +0.000 A 
ATOM     13  C   UNL     1       7.303   6.746  17.360  0.00  0.00    +0.000 A 
ATOM     14  C   UNL     1       8.099   7.930  17.847  0.00  0.00    +0.000 C 
ATOM     15  N   UNL     1       7.505   6.332  16.150  0.00  0.00    +0.000 NA
ATOM     16  N   UNL     1       6.776   5.251  15.722  0.00  0.00    +0.000 N 
ATOM     17  C   UNL     1       7.012   4.801  14.365  0.00  0.00    +0.000 C 
ATOM     18  C   UNL     1       5.828   4.573  16.491  0.00  0.00    +0.000 A 
ATOM     19  O   UNL     1       5.180   3.625  16.062  0.00  0.00    +0.000 OA
ENDBRANCH   7  11
BRANCH   1  21
ATOM     20  C   UNL     1       1.360   8.474  21.399  0.00  0.00    +0.000 C 
ATOM     21  O   UNL     1       1.370   7.727  20.189  0.00  0.00    +0.000 OA
ENDBRANCH   1  21
TORSDOF 2
ENDMDL
MODEL 6
REMARK VINA RESULT:      -7.3      2.268      3.576
REMARK  Name = 
REMARK  5 active torsions:
REMARK  status: ('A' for Active; 'I' for Inactive)
REMARK    1  A    between atoms: C_1  and  O_2
REMARK    2  A    between atoms: O_2  and  C_3
REMARK    3  A    between atoms: C_9  and  C_10
REMARK    4  A    between atoms: C_12  and  C_13
REMARK    5  A    between atoms: N_15  and  C_16
REMARK                            x       y       z     vdW  Elec       q    Type
REMARK                         _______ _______ _______ _____ _____    ______ ____
ROOT
ATOM      1  C   UNL     1       4.048   2.463  20.715  0.00  0.00    +0.000 A 
ATOM      2  C   UNL     1       2.709   2.492  21.104  0.00  0.00    +0.000 A 
ATOM      3  C   UNL     1       1.810   3.400  20.533  0.00  0.00    +0.000 A 
ATOM      4  C   UNL     1       2.302   4.284  19.567  0.00  0.00    +0.000 A 
ATOM      5  N   UNL     1       1.667   5.293  18.879  0.00  0.00    +0.000 N 
ATOM      6  C   UNL     1       2.552   5.936  18.051  0.00  0.00    +0.000 A 
ATOM      7  C   UNL     1       3.769   5.301  18.168  0.00  0.00    +0.000 A 
ATOM      8  C   UNL     1       3.631   4.266  19.142  0.00  0.00    +0.000 A 
ATOM      9  C   UNL     1       4.511   3.328  19.717  0.00  0.00    +0.000 A 
ATOM     10  H   UNL     1       0.692   5.534  18.990  0.00  0.00    +0.000 HD
ENDROOT
BRANCH   7  11
ATOM     11  C   UNL     1       4.961   5.666  17.468  0.00  0.00    +0.000 A 
ATOM     12  C   UNL     1       5.755   6.650  17.900  0.00  0.00    +0.000 A 
ATOM     13  C   UNL     1       6.994   6.930  17.155  0.00  0.00    +0.000 A 
ATOM     14  C   UNL     1       7.875   8.042  17.663  0.00  0.00    +0.000 C 
ATOM     15  N   UNL     1       7.377   6.282  16.102  0.00  0.00    +0.000 NA
ATOM     16  N   UNL     1       6.566   5.270  15.652  0.00  0.00    +0.000 N 
ATOM     17  C   UNL     1       7.008   4.555  14.472  0.00  0.00    +0.000 C 
ATOM     18  C   UNL     1       5.357   4.895  16.241  0.00  0.00    +0.000 A 
ATOM     19  O   UNL     1       4.650   3.999  15.794  0.00  0.00    +0.000 OA
ENDBRANCH   7  11
BRANCH   1  21
ATOM     20  C   UNL     1       5.336   0.486  20.542  0.00  0.00    +0.000 C 
ATOM     21  O   UNL     1       5.011   1.661  21.272  0.00  0.00    +0.000 OA
ENDBRANCH   1  21
TORSDOF 2
ENDMDL
MODEL 7
REMARK VINA RESULT:      -7.1      2.935      6.633
REMARK  Name = 
REMARK  5 active torsions:
REMARK  status: ('A' for Active; 'I' for Inactive)
REMARK    1  A    between atoms: C_1  and  O_2
REMARK    2  A    between atoms: O_2  and  C_3
REMARK    3  A    between atoms: C_9  and  C_10
REMARK    4  A    between atoms: C_12  and  C_13
REMARK    5  A    between atoms: N_15  and  C_16
REMARK                            x       y       z     vdW  Elec       q    Type
REMARK                         _______ _______ _______ _____ _____    ______ ____
ROOT
ATOM      1  C   UNL     1       5.188   3.536  12.527  0.00  0.00    +0.000 A 
ATOM      2  C   UNL     1       6.500   3.690  12.080  0.00  0.00    +0.000 A 
ATOM      3  C   UNL     1       7.466   4.317  12.875  0.00  0.00    +0.000 A 
ATOM      4  C   UNL     1       7.068   4.795  14.127  0.00  0.00    +0.000 A 
ATOM      5  N   UNL     1       7.782   5.478  15.087  0.00  0.00    +0.000 N 
ATOM      6  C   UNL     1       6.974   5.786  16.152  0.00  0.00    +0.000 A 
ATOM      7  C   UNL     1       5.730   5.250  15.901  0.00  0.00    +0.000 A 
ATOM      8  C   UNL     1       5.769   4.639  14.612  0.00  0.00    +0.000 A 
ATOM      9  C   UNL     1       4.821   3.984  13.801  0.00  0.00    +0.000 A 
ATOM     10  H   UNL     1       8.756   5.732  15.001  0.00  0.00    +0.000 HD
ENDROOT
BRANCH   7  11
ATOM     11  C   UNL     1       4.599   5.349  16.770  0.00  0.00    +0.000 A 
ATOM     12  C   UNL     1       4.054   6.528  17.081  0.00  0.00    +0.000 A 
ATOM     13  C   UNL     1       2.856   6.543  17.937  0.00  0.00    +0.000 A 
ATOM     14  C   UNL     1       2.257   7.886  18.271  0.00  0.00    +0.000 C 
ATOM     15  N   UNL     1       2.283   5.485  18.414  0.00  0.00    +0.000 NA
ATOM     16  N   UNL     1       2.838   4.270  18.099  0.00  0.00    +0.000 N 
ATOM     17  C   UNL     1       2.186   3.095  18.641  0.00  0.00    +0.000 C 
ATOM     18  C   UNL     1       3.977   4.093  17.312  0.00  0.00    +0.000 A 
ATOM     19  O   UNL     1       4.456   2.990  17.073  0.00  0.00    +0.000 OA
ENDBRANCH   7  11
BRANCH   1  21
ATOM     20  C   UNL     1       3.735   3.775  10.675  0.00  0.00    +0.000 C 
ATOM     21  O   UNL     1       4.164   3.002  11.789  0.00  0.00    +0.000 OA
ENDBRANCH   1  21
TORSDOF 2
ENDMDL
MODEL 8
REMARK VINA RESULT:      -7.1      1.952      2.963
REMARK  Name = 
REMARK  5 active torsions:
REMARK  status: ('A' for Active; 'I' for Inactive)
REMARK    1  A    between atoms: C_1  and  O_2
REMARK    2  A    between atoms: O_2  and  C_3
REMARK    3  A    between atoms: C_9  and  C_10
REMARK    4  A    between atoms: C_12  and  C_13
REMARK    5  A    between atoms: N_15  and  C_16
REMARK                            x       y       z     vdW  Elec       q    Type
REMARK                         _______ _______ _______ _____ _____    ______ ____
ROOT
ATOM      1  C   UNL     1       4.175   2.106  20.940  0.00  0.00    +0.000 A 
ATOM      2  C   UNL     1       2.845   2.030  21.356  0.00  0.00    +0.000 A 
ATOM      3  C   UNL     1       1.826   2.668  20.640  0.00  0.00    +0.000 A 
ATOM      4  C   UNL     1       2.187   3.394  19.501  0.00  0.00    +0.000 A 
ATOM      5  N   UNL     1       1.415   4.144  18.642  0.00  0.00    +0.000 N 
ATOM      6  C   UNL     1       2.199   4.719  17.674  0.00  0.00    +0.000 A 
ATOM      7  C   UNL     1       3.494   4.295  17.880  0.00  0.00    +0.000 A 
ATOM      8  C   UNL     1       3.504   3.473  19.047  0.00  0.00    +0.000 A 
ATOM      9  C   UNL     1       4.508   2.804  19.774  0.00  0.00    +0.000 A 
ATOM     10  H   UNL     1       0.415   4.266  18.731  0.00  0.00    +0.000 HD
ENDROOT
BRANCH   7  11
ATOM     11  C   UNL     1       4.621   4.669  17.085  0.00  0.00    +0.000 A 
ATOM     12  C   UNL     1       4.842   4.129  15.883  0.00  0.00    +0.000 A 
ATOM     13  C   UNL     1       5.994   4.607  15.100  0.00  0.00    +0.000 A 
ATOM     14  C   UNL     1       6.220   3.986  13.745  0.00  0.00    +0.000 C 
ATOM     15  N   UNL     1       6.816   5.526  15.494  0.00  0.00    +0.000 NA
ATOM     16  N   UNL     1       6.596   6.085  16.728  0.00  0.00    +0.000 N 
ATOM     17  C   UNL     1       7.526   7.110  17.156  0.00  0.00    +0.000 C 
ATOM     18  C   UNL     1       5.558   5.729  17.591  0.00  0.00    +0.000 A 
ATOM     19  O   UNL     1       5.409   6.237  18.697  0.00  0.00    +0.000 OA
ENDBRANCH   7  11
BRANCH   1  21
ATOM     20  C   UNL     1       5.630   0.264  21.234  0.00  0.00    +0.000 C 
ATOM     21  O   UNL     1       5.241   1.576  21.619  0.00  0.00    +0.000 OA
ENDBRANCH   1  21
TORSDOF 2
ENDMDL
MODEL 9
REMARK VINA RESULT:      -7.0      2.078      6.147
REMARK  Name = 
REMARK  5 active torsions:
REMARK  status: ('A' for Active; 'I' for Inactive)
REMARK    1  A    between atoms: C_1  and  O_2
REMARK    2  A    between atoms: O_2  and  C_3
REMARK    3  A    between atoms: C_9  and  C_10
REMARK    4  A    between atoms: C_12  and  C_13
REMARK    5  A    between atoms: N_15  and  C_16
REMARK                            x       y       z     vdW  Elec       q    Type
REMARK                         _______ _______ _______ _____ _____    ______ ____
ROOT
ATOM      1  C   UNL     1       5.625   4.312  14.925  0.00  0.00    +0.000 A 
ATOM      2  C   UNL     1       7.007   4.489  14.854  0.00  0.00    +0.000 A 
ATOM      3  C   UNL     1       7.757   4.783  15.998  0.00  0.00    +0.000 A 
ATOM      4  C   UNL     1       7.073   4.907  17.212  0.00  0.00    +0.000 A 
ATOM      5  N   UNL     1       7.539   5.226  18.467  0.00  0.00    +0.000 N 
ATOM      6  C   UNL     1       6.502   5.274  19.364  0.00  0.00    +0.000 A 
ATOM      7  C   UNL     1       5.351   4.930  18.688  0.00  0.00    +0.000 A 
ATOM      8  C   UNL     1       5.695   4.717  17.320  0.00  0.00    +0.000 A 
ATOM      9  C   UNL     1       4.966   4.399  16.157  0.00  0.00    +0.000 A 
ATOM     10  H   UNL     1       8.507   5.420  18.686  0.00  0.00    +0.000 HD
ENDROOT
BRANCH   7  11
ATOM     11  C   UNL     1       4.045   4.859  19.265  0.00  0.00    +0.000 A 
ATOM     12  C   UNL     1       3.410   5.951  19.700  0.00  0.00    +0.000 A 
ATOM     13  C   UNL     1       2.045   5.803  20.232  0.00  0.00    +0.000 A 
ATOM     14  C   UNL     1       1.347   7.049  20.713  0.00  0.00    +0.000 C 
ATOM     15  N   UNL     1       1.405   4.680  20.306  0.00  0.00    +0.000 NA
ATOM     16  N   UNL     1       2.053   3.553  19.861  0.00  0.00    +0.000 N 
ATOM     17  C   UNL     1       1.324   2.304  19.953  0.00  0.00    +0.000 C 
ATOM     18  C   UNL     1       3.349   3.530  19.345  0.00  0.00    +0.000 A 
ATOM     19  O   UNL     1       3.900   2.498  18.980  0.00  0.00    +0.000 OA
ENDBRANCH   7  11
BRANCH   1  21
ATOM     20  C   UNL     1       5.442   3.615  12.671  0.00  0.00    +0.000 C 
ATOM     21  O   UNL     1       4.805   4.094  13.848  0.00  0.00    +0.000 OA
ENDBRANCH   1  21
TORSDOF 2
ENDMDL
