MODEL 1
REMARK VINA RESULT:      -7.1      0.000      0.000
REMARK  Name = 
REMARK  6 active torsions:
REMARK  status: ('A' for Active; 'I' for Inactive)
REMARK    1  A    between atoms: C_1  and  C_2
REMARK    2  A    between atoms: C_2  and  N_3
REMARK    3  A    between atoms: C_2  and  C_14
REMARK    4  A    between atoms: N_3  and  C_4
REMARK    5  A    between atoms: N_16  and  C_17
REMARK    6  A    between atoms: N_16  and  C_18
REMARK                            x       y       z     vdW  Elec       q    Type
REMARK                         _______ _______ _______ _____ _____    ______ ____
ROOT
ATOM      1  C   UNL     1       4.137   3.259  17.312  0.00  0.00    +0.000 A 
ATOM      2  C   UNL     1       2.883   3.728  16.908  0.00  0.00    +0.000 A 
ATOM      3  C   UNL     1       1.821   3.850  17.813  0.00  0.00    +0.000 A 
ATOM      4  C   UNL     1       2.001   3.505  19.143  0.00  0.00    +0.000 A 
ATOM      5  C   UNL     1       3.233   3.008  19.571  0.00  0.00    +0.000 A 
ATOM      6  C   UNL     1       4.303   2.927  18.669  0.00  0.00    +0.000 A 
ATOM      7  O   UNL     1       3.463   2.600  20.862  0.00  0.00    +0.000 OA
ATOM      8  C   UNL     1       2.231   2.439  21.587  0.00  0.00    +0.000 C 
ATOM      9  C   UNL     1       1.315   3.626  21.345  0.00  0.00    +0.000 C 
ATOM     10  O   UNL     1       0.920   3.675  19.973  0.00  0.00    +0.000 OA
ENDROOT
BRANCH   1  11
ATOM     11  N   UNL     1       5.241   3.188  16.458  0.00  0.00    +0.000 N 
ATOM     12  H   UNL     1       5.979   2.615  16.867  0.00  0.00    +0.000 HD
BRANCH  11  14
ATOM     13  C   UNL     1       6.351   3.967  14.406  0.00  0.00    +0.000 C 
ATOM     14  C   UNL     1       5.772   4.381  15.760  0.00  0.00    +0.000 C 
BRANCH  14  15
ATOM     15  C   UNL     1       6.888   5.053  16.606  0.00  0.00    +0.000 C 
ATOM     16  O   UNL     1       7.994   4.509  16.730  0.00  0.00    +0.000 OA
ATOM     17  N   UNL     1       6.610   6.263  17.242  0.00  0.00    +0.000 N 
ATOM     18  C   UNL     1       5.340   6.973  17.225  0.00  0.00    +0.000 C 
ATOM     19  C   UNL     1       7.671   6.904  18.002  0.00  0.00    +0.000 C 
ENDBRANCH  14  15
ENDBRANCH  11  14
ENDBRANCH   1  11
TORSDOF 3
ENDMDL
MODEL 2
REMARK VINA RESULT:      -6.6      2.272      6.273
REMARK  Name = 
REMARK  6 active torsions:
REMARK  status: ('A' for Active; 'I' for Inactive)
REMARK    1  A    between atoms: C_1  and  C_2
REMARK    2  A    between atoms: C_2  and  N_3
REMARK    3  A    between atoms: C_2  and  C_14
REMARK    4  A    between atoms: N_3  and  C_4
REMARK    5  A    between atoms: N_16  and  C_17
REMARK    6  A    between atoms: N_16  and  C_18
REMARK                            x       y       z     vdW  Elec       q    Type
REMARK                         _______ _______ _______ _____ _____    ______ ____
ROOT
ATOM      1  C   UNL     1       5.085   5.476  18.714  0.00  0.00    +0.000 A 
ATOM      2  C   UNL     1       6.462   5.383  18.934  0.00  0.00    +0.000 A 
ATOM      3  C   UNL     1       7.352   5.095  17.893  0.00  0.00    +0.000 A 
ATOM      4  C   UNL     1       6.874   4.896  16.607  0.00  0.00    +0.000 A 
ATOM      5  C   UNL     1       5.501   4.955  16.360  0.00  0.00    +0.000 A 
ATOM      6  C   UNL     1       4.620   5.285  17.399  0.00  0.00    +0.000 A 
ATOM      7  O   UNL     1       4.957   4.718  15.121  0.00  0.00    +0.000 OA
ATOM      8  C   UNL     1       5.910   4.096  14.242  0.00  0.00    +0.000 C 
ATOM      9  C   UNL     1       7.252   4.801  14.331  0.00  0.00    +0.000 C 
ATOM     10  O   UNL     1       7.810   4.641  15.636  0.00  0.00    +0.000 OA
ENDROOT
BRANCH   1  11
ATOM     11  N   UNL     1       4.170   5.830  19.710  0.00  0.00    +0.000 N 
ATOM     12  H   UNL     1       4.375   5.340  20.581  0.00  0.00    +0.000 HD
BRANCH  11  14
ATOM     13  C   UNL     1       2.147   7.158  20.150  0.00  0.00    +0.000 C 
ATOM     14  C   UNL     1       2.717   5.926  19.442  0.00  0.00    +0.000 C 
BRANCH  14  15
ATOM     15  C   UNL     1       1.985   4.659  19.959  0.00  0.00    +0.000 C 
ATOM     16  O   UNL     1       1.955   4.402  21.171  0.00  0.00    +0.000 OA
ATOM     17  N   UNL     1       1.387   3.805  19.031  0.00  0.00    +0.000 N 
ATOM     18  C   UNL     1       1.400   3.961  17.584  0.00  0.00    +0.000 C 
ATOM     19  C   UNL     1       0.672   2.639  19.525  0.00  0.00    +0.000 C 
ENDBRANCH  14  15
ENDBRANCH  11  14
ENDBRANCH   1  11
TORSDOF 3
ENDMDL
MODEL 3
REMARK VINA RESULT:      -6.6      1.872      3.014
REMARK  Name = 
REMARK  6 active torsions:
REMARK  status: ('A' for Active; 'I' for Inactive)
REMARK    1  A    between atoms: C_1  and  C_2
REMARK    2  A    between atoms: C_2  and  N_3
REMARK    3  A    between atoms: C_2  and  C_14
REMARK    4  A    between atoms: N_3  and  C_4
REMARK    5  A    between atoms: N_16  and  C_17
REMARK    6  A    between atoms: N_16  and  C_18
REMARK                            x       y       z     vdW  Elec       q    Type
REMARK                         _______ _______ _______ _____ _____    ______ ____
ROOT
ATOM      1  C   UNL     1       4.212   5.317  17.033  0.00  0.00    +0.000 A 
ATOM      2  C   UNL     1       3.757   6.287  17.932  0.00  0.00    +0.000 A 
ATOM      3  C   UNL     1       2.776   5.996  18.887  0.00  0.00    +0.000 A 
ATOM      4  C   UNL     1       2.234   4.722  18.959  0.00  0.00    +0.000 A 
ATOM      5  C   UNL     1       2.647   3.740  18.058  0.00  0.00    +0.000 A 
ATOM      6  C   UNL     1       3.659   4.026  17.131  0.00  0.00    +0.000 A 
ATOM      7  O   UNL     1       2.115   2.474  18.041  0.00  0.00    +0.000 OA
ATOM      8  C   UNL     1       0.899   2.408  18.806  0.00  0.00    +0.000 C 
ATOM      9  C   UNL     1       1.074   3.112  20.140  0.00  0.00    +0.000 C 
ATOM     10  O   UNL     1       1.295   4.509  19.938  0.00  0.00    +0.000 OA
ENDROOT
BRANCH   1  11
ATOM     11  N   UNL     1       5.237   5.546  16.111  0.00  0.00    +0.000 N 
ATOM     12  H   UNL     1       4.870   5.969  15.259  0.00  0.00    +0.000 HD
BRANCH  11  14
ATOM     13  C   UNL     1       7.302   4.530  16.980  0.00  0.00    +0.000 C 
ATOM     14  C   UNL     1       6.285   4.536  15.836  0.00  0.00    +0.000 C 
BRANCH  14  15
ATOM     15  C   UNL     1       7.018   4.862  14.507  0.00  0.00    +0.000 C 
ATOM     16  O   UNL     1       7.976   5.647  14.495  0.00  0.00    +0.000 OA
ATOM     17  N   UNL     1       6.559   4.274  13.328  0.00  0.00    +0.000 N 
ATOM     18  C   UNL     1       5.414   3.386  13.197  0.00  0.00    +0.000 C 
ATOM     19  C   UNL     1       7.272   4.556  12.092  0.00  0.00    +0.000 C 
ENDBRANCH  14  15
ENDBRANCH  11  14
ENDBRANCH   1  11
TORSDOF 3
ENDMDL
MODEL 4
REMARK VINA RESULT:      -6.5      1.101      1.460
REMARK  Name = 
REMARK  6 active torsions:
REMARK  status: ('A' for Active; 'I' for Inactive)
REMARK    1  A    between atoms: C_1  and  C_2
REMARK    2  A    between atoms: C_2  and  N_3
REMARK    3  A    between atoms: C_2  and  C_14
REMARK    4  A    between atoms: N_3  and  C_4
REMARK    5  A    between atoms: N_16  and  C_17
REMARK    6  A    between atoms: N_16  and  C_18
REMARK                            x       y       z     vdW  Elec       q    Type
REMARK                         _______ _______ _______ _____ _____    ______ ____
ROOT
ATOM      1  C   UNL     1       4.416   3.093  17.421  0.00  0.00    +0.000 A 
ATOM      2  C   UNL     1       3.807   1.899  17.819  0.00  0.00    +0.000 A 
ATOM      3  C   UNL     1       2.777   1.883  18.767  0.00  0.00    +0.000 A 
ATOM      4  C   UNL     1       2.338   3.070  19.333  0.00  0.00    +0.000 A 
ATOM      5  C   UNL     1       2.945   4.275  18.977  0.00  0.00    +0.000 A 
ATOM      6  C   UNL     1       3.947   4.288  17.997  0.00  0.00    +0.000 A 
ATOM      7  O   UNL     1       2.593   5.480  19.536  0.00  0.00    +0.000 OA
ATOM      8  C   UNL     1       1.801   5.294  20.722  0.00  0.00    +0.000 C 
ATOM      9  C   UNL     1       0.720   4.254  20.479  0.00  0.00    +0.000 C 
ATOM     10  O   UNL     1       1.309   2.976  20.237  0.00  0.00    +0.000 OA
ENDROOT
BRANCH   1  11
ATOM     11  N   UNL     1       5.398   3.160  16.428  0.00  0.00    +0.000 N 
ATOM     12  H   UNL     1       6.158   2.510  16.626  0.00  0.00    +0.000 HD
BRANCH  11  14
ATOM     13  C   UNL     1       6.448   4.240  14.483  0.00  0.00    +0.000 C 
ATOM     14  C   UNL     1       5.882   4.452  15.889  0.00  0.00    +0.000 C 
BRANCH  14  15
ATOM     15  C   UNL     1       6.993   5.038  16.801  0.00  0.00    +0.000 C 
ATOM     16  O   UNL     1       8.002   4.371  17.068  0.00  0.00    +0.000 OA
ATOM     17  N   UNL     1       6.818   6.317  17.332  0.00  0.00    +0.000 N 
ATOM     18  C   UNL     1       5.659   7.176  17.146  0.00  0.00    +0.000 C 
ATOM     19  C   UNL     1       7.879   6.874  18.157  0.00  0.00    +0.000 C 
ENDBRANCH  14  15
ENDBRANCH  11  14
ENDBRANCH   1  11
TORSDOF 3
ENDMDL
MODEL 5
REMARK VINA RESULT:      -6.5      1.049      1.248
REMARK  Name = 
REMARK  6 active torsions:
REMARK  status: ('A' for Active; 'I' for Inactive)
REMARK    1  A    between atoms: C_1  and  C_2
REMARK    2  A    between atoms: C_2  and  N_3
REMARK    3  A    between atoms: C_2  and  C_14
REMARK    4  A    between atoms: N_3  and  C_4
REMARK    5  A    between atoms: N_16  and  C_17
REMARK    6  A    between atoms: N_16  and  C_18
REMARK                            x       y       z     vdW  Elec       q    Type
REMARK                         _______ _______ _______ _____ _____    ______ ____
ROOT
ATOM      1  C   UNL     1       4.115   3.364  17.365  0.00  0.00    +0.000 A 
ATOM      2  C   UNL     1       2.822   3.718  16.968  0.00  0.00    +0.000 A 
ATOM      3  C   UNL     1       1.753   3.717  17.871  0.00  0.00    +0.000 A 
ATOM      4  C   UNL     1       1.964   3.362  19.195  0.00  0.00    +0.000 A 
ATOM      5  C   UNL     1       3.237   2.977  19.616  0.00  0.00    +0.000 A 
ATOM      6  C   UNL     1       4.311   3.020  18.716  0.00  0.00    +0.000 A 
ATOM      7  O   UNL     1       3.504   2.565  20.899  0.00  0.00    +0.000 OA
ATOM      8  C   UNL     1       2.293   2.269  21.615  0.00  0.00    +0.000 C 
ATOM      9  C   UNL     1       1.267   3.367  21.396  0.00  0.00    +0.000 C 
ATOM     10  O   UNL     1       0.871   3.408  20.024  0.00  0.00    +0.000 OA
ENDROOT
BRANCH   1  11
ATOM     11  N   UNL     1       5.222   3.419  16.514  0.00  0.00    +0.000 N 
ATOM     12  H   UNL     1       6.090   3.318  17.041  0.00  0.00    +0.000 HD
BRANCH  11  14
ATOM     13  C   UNL     1       6.314   3.926  14.369  0.00  0.00    +0.000 C 
ATOM     14  C   UNL     1       5.331   4.423  15.431  0.00  0.00    +0.000 C 
BRANCH  14  15
ATOM     15  C   UNL     1       5.836   5.778  15.996  0.00  0.00    +0.000 C 
ATOM     16  O   UNL     1       5.331   6.844  15.617  0.00  0.00    +0.000 OA
ATOM     17  N   UNL     1       6.884   5.771  16.918  0.00  0.00    +0.000 N 
ATOM     18  C   UNL     1       7.600   4.599  17.399  0.00  0.00    +0.000 C 
ATOM     19  C   UNL     1       7.327   7.041  17.471  0.00  0.00    +0.000 C 
ENDBRANCH  14  15
ENDBRANCH  11  14
ENDBRANCH   1  11
TORSDOF 3
ENDMDL
MODEL 6
REMARK VINA RESULT:      -6.4      1.141      1.171
REMARK  Name = 
REMARK  6 active torsions:
REMARK  status: ('A' for Active; 'I' for Inactive)
REMARK    1  A    between atoms: C_1  and  C_2
REMARK    2  A    between atoms: C_2  and  N_3
REMARK    3  A    between atoms: C_2  and  C_14
REMARK    4  A    between atoms: N_3  and  C_4
REMARK    5  A    between atoms: N_16  and  C_17
REMARK    6  A    between atoms: N_16  and  C_18
REMARK                            x       y       z     vdW  Elec       q    Type
REMARK                         _______ _______ _______ _____ _____    ______ ____
ROOT
ATOM      1  C   UNL     1       4.305   3.964  17.016  0.00  0.00    +0.000 A 
ATOM      2  C   UNL     1       3.739   5.215  17.281  0.00  0.00    +0.000 A 
ATOM      3  C   UNL     1       2.721   5.372  18.229  0.00  0.00    +0.000 A 
ATOM      4  C   UNL     1       2.252   4.273  18.931  0.00  0.00    +0.000 A 
ATOM      5  C   UNL     1       2.777   3.007  18.670  0.00  0.00    +0.000 A 
ATOM      6  C   UNL     1       3.824   2.863  17.750  0.00  0.00    +0.000 A 
ATOM      7  O   UNL     1       2.323   1.870  19.293  0.00  0.00    +0.000 OA
ATOM      8  C   UNL     1       1.069   2.103  19.957  0.00  0.00    +0.000 C 
ATOM      9  C   UNL     1       1.120   3.400  20.745  0.00  0.00    +0.000 C 
ATOM     10  O   UNL     1       1.270   4.512  19.860  0.00  0.00    +0.000 OA
ENDROOT
BRANCH   1  11
ATOM     11  N   UNL     1       5.369   3.774  16.130  0.00  0.00    +0.000 N 
ATOM     12  H   UNL     1       5.844   2.891  16.319  0.00  0.00    +0.000 HD
BRANCH  11  14
ATOM     13  C   UNL     1       7.113   4.479  14.545  0.00  0.00    +0.000 C 
ATOM     14  C   UNL     1       6.312   4.864  15.791  0.00  0.00    +0.000 C 
BRANCH  14  15
ATOM     15  C   UNL     1       7.292   5.119  16.967  0.00  0.00    +0.000 C 
ATOM     16  O   UNL     1       8.087   4.238  17.324  0.00  0.00    +0.000 OA
ATOM     17  N   UNL     1       7.242   6.347  17.628  0.00  0.00    +0.000 N 
ATOM     18  C   UNL     1       6.321   7.439  17.347  0.00  0.00    +0.000 C 
ATOM     19  C   UNL     1       8.187   6.593  18.705  0.00  0.00    +0.000 C 
ENDBRANCH  14  15
ENDBRANCH  11  14
ENDBRANCH   1  11
TORSDOF 3
ENDMDL
MODEL 7
REMARK VINA RESULT:      -6.3      2.217      6.401
REMARK  Name = 
REMARK  6 active torsions:
REMARK  status: ('A' for Active; 'I' for Inactive)
REMARK    1  A    between atoms: C_1  and  C_2
REMARK    2  A    between atoms: C_2  and  N_3
REMARK    3  A    between atoms: C_2  and  C_14
REMARK    4  A    between atoms: N_3  and  C_4
REMARK    5  A    between atoms: N_16  and  C_17
REMARK    6  A    between atoms: N_16  and  C_18
REMARK                            x       y       z     vdW  Elec       q    Type
REMARK                         _______ _______ _______ _____ _____    ______ ____
ROOT
ATOM      1  C   UNL     1       5.320   5.458  18.090  0.00  0.00    +0.000 A 
ATOM      2  C   UNL     1       6.592   6.038  18.101  0.00  0.00    +0.000 A 
ATOM      3  C   UNL     1       7.424   6.000  16.975  0.00  0.00    +0.000 A 
ATOM      4  C   UNL     1       6.990   5.378  15.814  0.00  0.00    +0.000 A 
ATOM      5  C   UNL     1       5.737   4.765  15.781  0.00  0.00    +0.000 A 
ATOM      6  C   UNL     1       4.893   4.843  16.898  0.00  0.00    +0.000 A 
ATOM      7  O   UNL     1       5.268   4.088  14.682  0.00  0.00    +0.000 OA
ATOM      8  C   UNL     1       6.326   3.815  13.746  0.00  0.00    +0.000 C 
ATOM      9  C   UNL     1       7.179   5.053  13.536  0.00  0.00    +0.000 C 
ATOM     10  O   UNL     1       7.853   5.402  14.746  0.00  0.00    +0.000 OA
ENDROOT
BRANCH   1  11
ATOM     11  N   UNL     1       4.432   5.535  19.167  0.00  0.00    +0.000 N 
ATOM     12  H   UNL     1       4.690   4.871  19.897  0.00  0.00    +0.000 HD
BRANCH  11  14
ATOM     13  C   UNL     1       2.551   7.089  18.850  0.00  0.00    +0.000 C 
ATOM     14  C   UNL     1       2.967   5.620  18.971  0.00  0.00    +0.000 C 
BRANCH  14  15
ATOM     15  C   UNL     1       2.220   4.979  20.172  0.00  0.00    +0.000 C 
ATOM     16  O   UNL     1       1.780   5.687  21.088  0.00  0.00    +0.000 OA
ATOM     17  N   UNL     1       2.080   3.591  20.208  0.00  0.00    +0.000 N 
ATOM     18  C   UNL     1       2.599   2.646  19.231  0.00  0.00    +0.000 C 
ATOM     19  C   UNL     1       1.348   2.999  21.317  0.00  0.00    +0.000 C 
ENDBRANCH  14  15
ENDBRANCH  11  14
ENDBRANCH   1  11
TORSDOF 3
ENDMDL
MODEL 8
REMARK VINA RESULT:      -6.3      0.892      1.643
REMARK  Name = 
REMARK  6 active torsions:
REMARK  status: ('A' for Active; 'I' for Inactive)
REMARK    1  A    between atoms: C_1  and  C_2
REMARK    2  A    between atoms: C_2  and  N_3
REMARK    3  A    between atoms: C_2  and  C_14
REMARK    4  A    between atoms: N_3  and  C_4
REMARK    5  A    between atoms: N_16  and  C_17
REMARK    6  A    between atoms: N_16  and  C_18
REMARK                            x       y       z     vdW  Elec       q    Type
REMARK                         _______ _______ _______ _____ _____    ______ ____
ROOT
ATOM      1  C   UNL     1       4.487   3.364  17.519  0.00  0.00    +0.000 A 
ATOM      2  C   UNL     1       5.145   3.704  18.704  0.00  0.00    +0.000 A 
ATOM      3  C   UNL     1       4.474   3.733  19.932  0.00  0.00    +0.000 A 
ATOM      4  C   UNL     1       3.125   3.418  19.992  0.00  0.00    +0.000 A 
ATOM      5  C   UNL     1       2.433   3.102  18.822  0.00  0.00    +0.000 A 
ATOM      6  C   UNL     1       3.121   3.035  17.602  0.00  0.00    +0.000 A 
ATOM      7  O   UNL     1       1.087   2.830  18.803  0.00  0.00    +0.000 OA
ATOM      8  C   UNL     1       0.455   3.234  20.031  0.00  0.00    +0.000 C 
ATOM      9  C   UNL     1       1.279   2.780  21.223  0.00  0.00    +0.000 C 
ATOM     10  O   UNL     1       2.542   3.445  21.235  0.00  0.00    +0.000 OA
ENDROOT
BRANCH   1  11
ATOM     11  N   UNL     1       5.135   3.256  16.285  0.00  0.00    +0.000 N 
ATOM     12  H   UNL     1       5.870   2.550  16.322  0.00  0.00    +0.000 HD
BRANCH  11  14
ATOM     13  C   UNL     1       5.988   4.012  14.105  0.00  0.00    +0.000 C 
ATOM     14  C   UNL     1       5.533   4.447  15.500  0.00  0.00    +0.000 C 
BRANCH  14  15
ATOM     15  C   UNL     1       6.695   5.197  16.204  0.00  0.00    +0.000 C 
ATOM     16  O   UNL     1       7.837   4.716  16.215  0.00  0.00    +0.000 OA
ATOM     17  N   UNL     1       6.422   6.407  16.843  0.00  0.00    +0.000 N 
ATOM     18  C   UNL     1       5.121   7.048  16.954  0.00  0.00    +0.000 C 
ATOM     19  C   UNL     1       7.523   7.122  17.469  0.00  0.00    +0.000 C 
ENDBRANCH  14  15
ENDBRANCH  11  14
ENDBRANCH   1  11
TORSDOF 3
ENDMDL
MODEL 9
REMARK VINA RESULT:      -6.3      4.040      5.140
REMARK  Name = 
REMARK  6 active torsions:
REMARK  status: ('A' for Active; 'I' for Inactive)
REMARK    1  A    between atoms: C_1  and  C_2
REMARK    2  A    between atoms: C_2  and  N_3
REMARK    3  A    between atoms: C_2  and  C_14
REMARK    4  A    between atoms: N_3  and  C_4
REMARK    5  A    between atoms: N_16  and  C_17
REMARK    6  A    between atoms: N_16  and  C_18
REMARK                            x       y       z     vdW  Elec       q    Type
REMARK                         _______ _______ _______ _____ _____    ______ ____
ROOT
ATOM      1  C   UNL     1       2.831   6.572  19.488  0.00  0.00    +0.000 A 
ATOM      2  C   UNL     1       3.028   7.027  18.181  0.00  0.00    +0.000 A 
ATOM      3  C   UNL     1       2.441   8.212  17.722  0.00  0.00    +0.000 A 
ATOM      4  C   UNL     1       1.644   8.965  18.570  0.00  0.00    +0.000 A 
ATOM      5  C   UNL     1       1.405   8.523  19.872  0.00  0.00    +0.000 A 
ATOM      6  C   UNL     1       2.029   7.358  20.338  0.00  0.00    +0.000 A 
ATOM      7  O   UNL     1       0.585   9.194  20.746  0.00  0.00    +0.000 OA
ATOM      8  C   UNL     1      -0.221  10.169  20.064  0.00  0.00    +0.000 C 
ATOM      9  C   UNL     1       0.627  10.971  19.092  0.00  0.00    +0.000 C 
ATOM     10  O   UNL     1       1.124  10.126  18.054  0.00  0.00    +0.000 OA
ENDROOT
BRANCH   1  11
ATOM     11  N   UNL     1       3.453   5.434  20.008  0.00  0.00    +0.000 N 
ATOM     12  H   UNL     1       4.099   5.684  20.757  0.00  0.00    +0.000 HD
BRANCH  11  14
ATOM     13  C   UNL     1       3.837   3.010  19.835  0.00  0.00    +0.000 C 
ATOM     14  C   UNL     1       3.985   4.363  19.135  0.00  0.00    +0.000 C 
BRANCH  14  15
ATOM     15  C   UNL     1       5.485   4.612  18.823  0.00  0.00    +0.000 C 
ATOM     16  O   UNL     1       6.263   4.962  19.721  0.00  0.00    +0.000 OA
ATOM     17  N   UNL     1       5.931   4.459  17.509  0.00  0.00    +0.000 N 
ATOM     18  C   UNL     1       5.113   4.110  16.357  0.00  0.00    +0.000 C 
ATOM     19  C   UNL     1       7.344   4.659  17.231  0.00  0.00    +0.000 C 
ENDBRANCH  14  15
ENDBRANCH  11  14
ENDBRANCH   1  11
TORSDOF 3
ENDMDL
