MODEL 1
REMARK VINA RESULT:      -8.3      0.000      0.000
REMARK  Name = 
REMARK  7 active torsions:
REMARK  status: ('A' for Active; 'I' for Inactive)
REMARK    1  A    between atoms: C_2  and  C_5
REMARK    2  A    between atoms: C_9  and  C_10
REMARK    3  A    between atoms: C_10  and  N_11
REMARK    4  A    between atoms: C_15  and  O_16
REMARK    5  A    between atoms: O_16  and  C_17
REMARK    6  A    between atoms: N_20  and  C_21
REMARK    7  A    between atoms: C_21  and  C_22
REMARK                            x       y       z     vdW  Elec       q    Type
REMARK                         _______ _______ _______ _____ _____    ______ ____
ROOT
ATOM      1  N   UNL     1       1.113  10.381  18.726  0.00  0.00    +0.000 N 
ATOM      2  C   UNL     1       1.943   9.950  17.714  0.00  0.00    +0.000 A 
ATOM      3  C   UNL     1       2.375   8.677  18.032  0.00  0.00    +0.000 A 
ATOM      4  C   UNL     1       1.811   8.329  19.290  0.00  0.00    +0.000 A 
ATOM      5  C   UNL     1       1.919   7.263  20.191  0.00  0.00    +0.000 A 
ATOM      6  N   UNL     1       1.198   7.297  21.341  0.00  0.00    +0.000 NA
ATOM      7  C   UNL     1       0.423   8.373  21.564  0.00  0.00    +0.000 A 
ATOM      8  N   UNL     1       0.267   9.467  20.797  0.00  0.00    +0.000 NA
ATOM      9  C   UNL     1       0.997   9.389  19.670  0.00  0.00    +0.000 A 
ENDROOT
BRANCH   1  10
ATOM     10  C   UNL     1       0.622  11.744  18.897  0.00  0.00    +0.000 C 
BRANCH  10  15
ATOM     11  C   UNL     1      -3.055  11.391  17.866  0.00  0.00    +0.000 A 
ATOM     12  C   UNL     1      -3.685  12.039  18.938  0.00  0.00    +0.000 A 
ATOM     13  C   UNL     1      -2.932  12.579  19.979  0.00  0.00    +0.000 A 
ATOM     14  C   UNL     1      -1.541  12.487  19.957  0.00  0.00    +0.000 A 
ATOM     15  C   UNL     1      -0.883  11.837  18.903  0.00  0.00    +0.000 A 
ATOM     16  C   UNL     1      -1.652  11.281  17.867  0.00  0.00    +0.000 A 
BRANCH  11  18
ATOM     17  F   UNL     1      -3.715  11.559  15.558  0.00  0.00    +0.000 F 
ATOM     18  C   UNL     1      -3.866  10.848  16.712  0.00  0.00    +0.000 C 
ATOM     19  F   UNL     1      -5.204  10.836  16.966  0.00  0.00    +0.000 F 
ATOM     20  F   UNL     1      -3.532   9.565  16.400  0.00  0.00    +0.000 F 
ENDBRANCH  11  18
ENDBRANCH  10  15
ENDBRANCH   1  10
BRANCH   5  21
ATOM     21  O   UNL     1       2.791   6.217  19.929  0.00  0.00    +0.000 OA
BRANCH  21  22
ATOM     22  C   UNL     1       2.173   4.972  19.551  0.00  0.00    +0.000 C 
ATOM     23  C   UNL     1       2.997   3.762  19.988  0.00  0.00    +0.000 C 
ATOM     24  C   UNL     1       4.338   3.670  19.262  0.00  0.00    +0.000 C 
ATOM     25  N   UNL     1       4.268   3.774  17.805  0.00  0.00    +0.000 NA
ATOM     26  C   UNL     1       3.376   4.823  17.296  0.00  0.00    +0.000 C 
ATOM     27  C   UNL     1       2.034   4.919  18.024  0.00  0.00    +0.000 C 
BRANCH  25  28
ATOM     28  C   UNL     1       5.613   3.846  17.176  0.00  0.00    +0.000 C 
BRANCH  28  29
ATOM     29  C   UNL     1       6.431   5.046  17.586  0.00  0.00    +0.000 A 
ATOM     30  C   UNL     1       6.497   6.272  16.935  0.00  0.00    +0.000 A 
ATOM     31  S   UNL     1       7.620   7.306  17.699  0.00  0.00    +0.000 S 
ATOM     32  C   UNL     1       7.890   6.095  18.881  0.00  0.00    +0.000 A 
ATOM     33  N   UNL     1       7.217   4.978  18.733  0.00  0.00    +0.000 NA
ENDBRANCH  28  29
ENDBRANCH  25  28
ENDBRANCH  21  22
ENDBRANCH   5  21
TORSDOF 7
ENDMDL
MODEL 2
REMARK VINA RESULT:      -8.0      1.407      1.731
REMARK  Name = 
REMARK  7 active torsions:
REMARK  status: ('A' for Active; 'I' for Inactive)
REMARK    1  A    between atoms: C_2  and  C_5
REMARK    2  A    between atoms: C_9  and  C_10
REMARK    3  A    between atoms: C_10  and  N_11
REMARK    4  A    between atoms: C_15  and  O_16
REMARK    5  A    between atoms: O_16  and  C_17
REMARK    6  A    between atoms: N_20  and  C_21
REMARK    7  A    between atoms: C_21  and  C_22
REMARK                            x       y       z     vdW  Elec       q    Type
REMARK                         _______ _______ _______ _____ _____    ______ ____
ROOT
ATOM      1  N   UNL     1       0.806  10.895  19.012  0.00  0.00    +0.000 N 
ATOM      2  C   UNL     1       1.639  10.612  17.951  0.00  0.00    +0.000 A 
ATOM      3  C   UNL     1       2.174   9.355  18.154  0.00  0.00    +0.000 A 
ATOM      4  C   UNL     1       1.671   8.865  19.391  0.00  0.00    +0.000 A 
ATOM      5  C   UNL     1       1.883   7.741  20.198  0.00  0.00    +0.000 A 
ATOM      6  N   UNL     1       1.192   7.626  21.361  0.00  0.00    +0.000 NA
ATOM      7  C   UNL     1       0.345   8.618  21.689  0.00  0.00    +0.000 A 
ATOM      8  N   UNL     1       0.087   9.755  21.017  0.00  0.00    +0.000 NA
ATOM      9  C   UNL     1       0.790   9.824  19.874  0.00  0.00    +0.000 A 
ENDROOT
BRANCH   1  10
ATOM     10  C   UNL     1       0.219  12.198  19.304  0.00  0.00    +0.000 C 
BRANCH  10  15
ATOM     11  C   UNL     1      -3.410  11.581  18.228  0.00  0.00    +0.000 A 
ATOM     12  C   UNL     1      -4.099  12.196  19.284  0.00  0.00    +0.000 A 
ATOM     13  C   UNL     1      -3.399  12.799  20.327  0.00  0.00    +0.000 A 
ATOM     14  C   UNL     1      -2.005  12.803  20.326  0.00  0.00    +0.000 A 
ATOM     15  C   UNL     1      -1.289  12.187  19.289  0.00  0.00    +0.000 A 
ATOM     16  C   UNL     1      -2.003  11.567  18.250  0.00  0.00    +0.000 A 
BRANCH  11  18
ATOM     17  F   UNL     1      -3.618   9.806  16.617  0.00  0.00    +0.000 F 
ATOM     18  C   UNL     1      -4.165  10.969  17.071  0.00  0.00    +0.000 C 
ATOM     19  F   UNL     1      -4.230  11.794  15.988  0.00  0.00    +0.000 F 
ATOM     20  F   UNL     1      -5.454  10.669  17.390  0.00  0.00    +0.000 F 
ENDBRANCH  11  18
ENDBRANCH  10  15
ENDBRANCH   1  10
BRANCH   5  21
ATOM     21  O   UNL     1       2.823   6.789  19.833  0.00  0.00    +0.000 OA
BRANCH  21  22
ATOM     22  C   UNL     1       2.291   5.527  19.391  0.00  0.00    +0.000 C 
ATOM     23  C   UNL     1       3.057   4.340  19.977  0.00  0.00    +0.000 C 
ATOM     24  C   UNL     1       4.495   4.259  19.471  0.00  0.00    +0.000 C 
ATOM     25  N   UNL     1       4.650   4.334  18.018  0.00  0.00    +0.000 NA
ATOM     26  C   UNL     1       3.833   5.355  17.354  0.00  0.00    +0.000 C 
ATOM     27  C   UNL     1       2.392   5.441  17.863  0.00  0.00    +0.000 C 
BRANCH  25  28
ATOM     28  C   UNL     1       6.076   4.419  17.604  0.00  0.00    +0.000 C 
BRANCH  28  29
ATOM     29  C   UNL     1       6.293   4.427  16.111  0.00  0.00    +0.000 A 
ATOM     30  C   UNL     1       5.720   3.569  15.180  0.00  0.00    +0.000 A 
ATOM     31  S   UNL     1       6.322   3.882  13.614  0.00  0.00    +0.000 S 
ATOM     32  C   UNL     1       7.242   5.177  14.255  0.00  0.00    +0.000 A 
ATOM     33  N   UNL     1       7.143   5.376  15.548  0.00  0.00    +0.000 NA
ENDBRANCH  28  29
ENDBRANCH  25  28
ENDBRANCH  21  22
ENDBRANCH   5  21
TORSDOF 7
ENDMDL
MODEL 3
REMARK VINA RESULT:      -7.9      5.297     10.040
REMARK  Name = 
REMARK  7 active torsions:
REMARK  status: ('A' for Active; 'I' for Inactive)
REMARK    1  A    between atoms: C_2  and  C_5
REMARK    2  A    between atoms: C_9  and  C_10
REMARK    3  A    between atoms: C_10  and  N_11
REMARK    4  A    between atoms: C_15  and  O_16
REMARK    5  A    between atoms: O_16  and  C_17
REMARK    6  A    between atoms: N_20  and  C_21
REMARK    7  A    between atoms: C_21  and  C_22
REMARK                            x       y       z     vdW  Elec       q    Type
REMARK                         _______ _______ _______ _____ _____    ______ ____
ROOT
ATOM      1  N   UNL     1       2.153   8.402  18.822  0.00  0.00    +0.000 N 
ATOM      2  C   UNL     1       1.572   9.059  17.759  0.00  0.00    +0.000 A 
ATOM      3  C   UNL     1       0.548   9.844  18.253  0.00  0.00    +0.000 A 
ATOM      4  C   UNL     1       0.485   9.640  19.659  0.00  0.00    +0.000 A 
ATOM      5  C   UNL     1      -0.352  10.041  20.707  0.00  0.00    +0.000 A 
ATOM      6  N   UNL     1      -0.081   9.616  21.967  0.00  0.00    +0.000 NA
ATOM      7  C   UNL     1       0.980   8.807  22.142  0.00  0.00    +0.000 A 
ATOM      8  N   UNL     1       1.830   8.328  21.215  0.00  0.00    +0.000 NA
ATOM      9  C   UNL     1       1.524   8.776  19.985  0.00  0.00    +0.000 A 
ENDROOT
BRANCH   1  10
ATOM     10  C   UNL     1       3.117   7.312  18.719  0.00  0.00    +0.000 C 
BRANCH  10  15
ATOM     11  C   UNL     1       1.928   3.955  20.144  0.00  0.00    +0.000 A 
ATOM     12  C   UNL     1       1.311   3.401  19.013  0.00  0.00    +0.000 A 
ATOM     13  C   UNL     1       1.279   4.103  17.810  0.00  0.00    +0.000 A 
ATOM     14  C   UNL     1       1.870   5.363  17.719  0.00  0.00    +0.000 A 
ATOM     15  C   UNL     1       2.486   5.947  18.835  0.00  0.00    +0.000 A 
ATOM     16  C   UNL     1       2.498   5.239  20.048  0.00  0.00    +0.000 A 
BRANCH  11  18
ATOM     17  F   UNL     1       0.826   2.603  21.801  0.00  0.00    +0.000 F 
ATOM     18  C   UNL     1       2.007   3.176  21.436  0.00  0.00    +0.000 C 
ATOM     19  F   UNL     1       2.387   3.946  22.495  0.00  0.00    +0.000 F 
ATOM     20  F   UNL     1       2.908   2.156  21.375  0.00  0.00    +0.000 F 
ENDBRANCH  11  18
ENDBRANCH  10  15
ENDBRANCH   1  10
BRANCH   5  21
ATOM     21  O   UNL     1      -1.470  10.819  20.445  0.00  0.00    +0.000 OA
BRANCH  21  22
ATOM     22  C   UNL     1      -1.263  12.243  20.503  0.00  0.00    +0.000 C 
ATOM     23  C   UNL     1      -0.629  12.681  21.824  0.00  0.00    +0.000 C 
ATOM     24  C   UNL     1      -1.548  12.457  23.022  0.00  0.00    +0.000 C 
ATOM     25  N   UNL     1      -2.904  12.987  22.876  0.00  0.00    +0.000 NA
ATOM     26  C   UNL     1      -3.536  12.737  21.575  0.00  0.00    +0.000 C 
ATOM     27  C   UNL     1      -2.615  12.958  20.373  0.00  0.00    +0.000 C 
BRANCH  25  28
ATOM     28  C   UNL     1      -3.792  12.590  24.001  0.00  0.00    +0.000 C 
BRANCH  28  29
ATOM     29  C   UNL     1      -5.209  13.095  23.885  0.00  0.00    +0.000 A 
ATOM     30  C   UNL     1      -5.613  14.412  23.701  0.00  0.00    +0.000 A 
ATOM     31  S   UNL     1      -7.315  14.535  23.721  0.00  0.00    +0.000 S 
ATOM     32  C   UNL     1      -7.409  12.833  23.898  0.00  0.00    +0.000 A 
ATOM     33  N   UNL     1      -6.266  12.191  23.959  0.00  0.00    +0.000 NA
ENDBRANCH  28  29
ENDBRANCH  25  28
ENDBRANCH  21  22
ENDBRANCH   5  21
TORSDOF 7
ENDMDL
MODEL 4
REMARK VINA RESULT:      -7.9      1.685      2.181
REMARK  Name = 
REMARK  7 active torsions:
REMARK  status: ('A' for Active; 'I' for Inactive)
REMARK    1  A    between atoms: C_2  and  C_5
REMARK    2  A    between atoms: C_9  and  C_10
REMARK    3  A    between atoms: C_10  and  N_11
REMARK    4  A    between atoms: C_15  and  O_16
REMARK    5  A    between atoms: O_16  and  C_17
REMARK    6  A    between atoms: N_20  and  C_21
REMARK    7  A    between atoms: C_21  and  C_22
REMARK                            x       y       z     vdW  Elec       q    Type
REMARK                         _______ _______ _______ _____ _____    ______ ____
ROOT
ATOM      1  N   UNL     1       0.939  10.474  18.714  0.00  0.00    +0.000 N 
ATOM      2  C   UNL     1       1.763  10.069  17.687  0.00  0.00    +0.000 A 
ATOM      3  C   UNL     1       2.240   8.809  17.996  0.00  0.00    +0.000 A 
ATOM      4  C   UNL     1       1.709   8.444  19.264  0.00  0.00    +0.000 A 
ATOM      5  C   UNL     1       1.865   7.382  20.162  0.00  0.00    +0.000 A 
ATOM      6  N   UNL     1       1.164   7.393  21.324  0.00  0.00    +0.000 NA
ATOM      7  C   UNL     1       0.360   8.445  21.562  0.00  0.00    +0.000 A 
ATOM      8  N   UNL     1       0.157   9.534  20.798  0.00  0.00    +0.000 NA
ATOM      9  C   UNL     1       0.869   9.478  19.659  0.00  0.00    +0.000 A 
ENDROOT
BRANCH   1  10
ATOM     10  C   UNL     1       0.409  11.821  18.894  0.00  0.00    +0.000 C 
BRANCH  10  15
ATOM     11  C   UNL     1      -3.228  12.515  19.895  0.00  0.00    +0.000 A 
ATOM     12  C   UNL     1      -3.906  11.946  18.807  0.00  0.00    +0.000 A 
ATOM     13  C   UNL     1      -3.197  11.349  17.766  0.00  0.00    +0.000 A 
ATOM     14  C   UNL     1      -1.804  11.306  17.803  0.00  0.00    +0.000 A 
ATOM     15  C   UNL     1      -1.098  11.875  18.872  0.00  0.00    +0.000 A 
ATOM     16  C   UNL     1      -1.821  12.489  19.908  0.00  0.00    +0.000 A 
BRANCH  11  18
ATOM     17  F   UNL     1      -5.267  13.487  20.724  0.00  0.00    +0.000 F 
ATOM     18  C   UNL     1      -3.995  13.119  21.048  0.00  0.00    +0.000 C 
ATOM     19  F   UNL     1      -3.402  14.239  21.548  0.00  0.00    +0.000 F 
ATOM     20  F   UNL     1      -4.116  12.260  22.098  0.00  0.00    +0.000 F 
ENDBRANCH  11  18
ENDBRANCH  10  15
ENDBRANCH   1  10
BRANCH   5  21
ATOM     21  O   UNL     1       2.764   6.363  19.884  0.00  0.00    +0.000 OA
BRANCH  21  22
ATOM     22  C   UNL     1       2.179   5.083  19.580  0.00  0.00    +0.000 C 
ATOM     23  C   UNL     1       3.040   3.921  20.076  0.00  0.00    +0.000 C 
ATOM     24  C   UNL     1       4.377   3.826  19.345  0.00  0.00    +0.000 C 
ATOM     25  N   UNL     1       4.294   3.848  17.885  0.00  0.00    +0.000 NA
ATOM     26  C   UNL     1       3.370   4.842  17.326  0.00  0.00    +0.000 C 
ATOM     27  C   UNL     1       2.031   4.941  18.059  0.00  0.00    +0.000 C 
BRANCH  25  28
ATOM     28  C   UNL     1       5.633   3.922  17.241  0.00  0.00    +0.000 C 
BRANCH  28  29
ATOM     29  C   UNL     1       6.443   5.136  17.624  0.00  0.00    +0.000 A 
ATOM     30  C   UNL     1       6.464   6.364  16.975  0.00  0.00    +0.000 A 
ATOM     31  S   UNL     1       7.596   7.415  17.700  0.00  0.00    +0.000 S 
ATOM     32  C   UNL     1       7.929   6.207  18.869  0.00  0.00    +0.000 A 
ATOM     33  N   UNL     1       7.272   5.079  18.742  0.00  0.00    +0.000 NA
ENDBRANCH  28  29
ENDBRANCH  25  28
ENDBRANCH  21  22
ENDBRANCH   5  21
TORSDOF 7
ENDMDL
MODEL 5
REMARK VINA RESULT:      -7.9      5.012      9.007
REMARK  Name = 
REMARK  7 active torsions:
REMARK  status: ('A' for Active; 'I' for Inactive)
REMARK    1  A    between atoms: C_2  and  C_5
REMARK    2  A    between atoms: C_9  and  C_10
REMARK    3  A    between atoms: C_10  and  N_11
REMARK    4  A    between atoms: C_15  and  O_16
REMARK    5  A    between atoms: O_16  and  C_17
REMARK    6  A    between atoms: N_20  and  C_21
REMARK    7  A    between atoms: C_21  and  C_22
REMARK                            x       y       z     vdW  Elec       q    Type
REMARK                         _______ _______ _______ _____ _____    ______ ____
ROOT
ATOM      1  N   UNL     1       2.280   7.383  19.344  0.00  0.00    +0.000 N 
ATOM      2  C   UNL     1       2.552   8.047  18.167  0.00  0.00    +0.000 A 
ATOM      3  C   UNL     1       1.957   9.291  18.233  0.00  0.00    +0.000 A 
ATOM      4  C   UNL     1       1.277   9.381  19.479  0.00  0.00    +0.000 A 
ATOM      5  C   UNL     1       0.428  10.299  20.109  0.00  0.00    +0.000 A 
ATOM      6  N   UNL     1      -0.046  10.015  21.349  0.00  0.00    +0.000 NA
ATOM      7  C   UNL     1       0.316   8.846  21.906  0.00  0.00    +0.000 A 
ATOM      8  N   UNL     1       1.090   7.875  21.389  0.00  0.00    +0.000 NA
ATOM      9  C   UNL     1       1.537   8.199  20.163  0.00  0.00    +0.000 A 
ENDROOT
BRANCH   1  10
ATOM     10  C   UNL     1       2.530   5.968  19.596  0.00  0.00    +0.000 C 
BRANCH  10  15
ATOM     11  C   UNL     1       5.958   5.064  18.133  0.00  0.00    +0.000 A 
ATOM     12  C   UNL     1       5.569   4.299  17.024  0.00  0.00    +0.000 A 
ATOM     13  C   UNL     1       4.220   4.078  16.755  0.00  0.00    +0.000 A 
ATOM     14  C   UNL     1       3.243   4.625  17.585  0.00  0.00    +0.000 A 
ATOM     15  C   UNL     1       3.600   5.386  18.707  0.00  0.00    +0.000 A 
ATOM     16  C   UNL     1       4.964   5.589  18.979  0.00  0.00    +0.000 A 
BRANCH  11  18
ATOM     17  F   UNL     1       7.876   6.473  17.782  0.00  0.00    +0.000 F 
ATOM     18  C   UNL     1       7.418   5.347  18.398  0.00  0.00    +0.000 C 
ATOM     19  F   UNL     1       8.236   4.340  17.982  0.00  0.00    +0.000 F 
ATOM     20  F   UNL     1       7.682   5.519  19.723  0.00  0.00    +0.000 F 
ENDBRANCH  11  18
ENDBRANCH  10  15
ENDBRANCH   1  10
BRANCH   5  21
ATOM     21  O   UNL     1       0.040  11.454  19.447  0.00  0.00    +0.000 OA
BRANCH  21  22
ATOM     22  C   UNL     1      -0.039  12.640  20.261  0.00  0.00    +0.000 C 
ATOM     23  C   UNL     1      -0.437  13.872  19.448  0.00  0.00    +0.000 C 
ATOM     24  C   UNL     1       0.626  14.273  18.428  0.00  0.00    +0.000 C 
ATOM     25  N   UNL     1       1.984  14.394  18.956  0.00  0.00    +0.000 NA
ATOM     26  C   UNL     1       2.397  13.322  19.869  0.00  0.00    +0.000 C 
ATOM     27  C   UNL     1       1.332  12.916  20.890  0.00  0.00    +0.000 C 
BRANCH  25  28
ATOM     28  C   UNL     1       2.992  14.620  17.886  0.00  0.00    +0.000 C 
BRANCH  28  29
ATOM     29  C   UNL     1       4.225  15.365  18.336  0.00  0.00    +0.000 A 
ATOM     30  C   UNL     1       4.267  16.510  19.122  0.00  0.00    +0.000 A 
ATOM     31  S   UNL     1       5.871  17.062  19.305  0.00  0.00    +0.000 S 
ATOM     32  C   UNL     1       6.411  15.713  18.398  0.00  0.00    +0.000 A 
ATOM     33  N   UNL     1       5.481  14.898  17.959  0.00  0.00    +0.000 NA
ENDBRANCH  28  29
ENDBRANCH  25  28
ENDBRANCH  21  22
ENDBRANCH   5  21
TORSDOF 7
ENDMDL
MODEL 6
REMARK VINA RESULT:      -7.8      1.179      2.078
REMARK  Name = 
REMARK  7 active torsions:
REMARK  status: ('A' for Active; 'I' for Inactive)
REMARK    1  A    between atoms: C_2  and  C_5
REMARK    2  A    between atoms: C_9  and  C_10
REMARK    3  A    between atoms: C_10  and  N_11
REMARK    4  A    between atoms: C_15  and  O_16
REMARK    5  A    between atoms: O_16  and  C_17
REMARK    6  A    between atoms: N_20  and  C_21
REMARK    7  A    between atoms: C_21  and  C_22
REMARK                            x       y       z     vdW  Elec       q    Type
REMARK                         _______ _______ _______ _____ _____    ______ ____
ROOT
ATOM      1  N   UNL     1       0.131  10.990  20.280  0.00  0.00    +0.000 N 
ATOM      2  C   UNL     1      -0.199  10.390  21.475  0.00  0.00    +0.000 A 
ATOM      3  C   UNL     1       0.433   9.163  21.523  0.00  0.00    +0.000 A 
ATOM      4  C   UNL     1       1.152   8.998  20.307  0.00  0.00    +0.000 A 
ATOM      5  C   UNL     1       1.898   7.981  19.698  0.00  0.00    +0.000 A 
ATOM      6  N   UNL     1       2.445   8.207  18.477  0.00  0.00    +0.000 NA
ATOM      7  C   UNL     1       2.226   9.403  17.902  0.00  0.00    +0.000 A 
ATOM      8  N   UNL     1       1.502  10.437  18.369  0.00  0.00    +0.000 NA
ATOM      9  C   UNL     1       0.981  10.169  19.579  0.00  0.00    +0.000 A 
ENDROOT
BRANCH   1  10
ATOM     10  C   UNL     1      -0.495  12.190  19.733  0.00  0.00    +0.000 C 
BRANCH  10  15
ATOM     11  C   UNL     1      -3.244  11.079  17.300  0.00  0.00    +0.000 A 
ATOM     12  C   UNL     1      -4.388  11.466  18.013  0.00  0.00    +0.000 A 
ATOM     13  C   UNL     1      -4.272  12.075  19.261  0.00  0.00    +0.000 A 
ATOM     14  C   UNL     1      -3.012  12.312  19.809  0.00  0.00    +0.000 A 
ATOM     15  C   UNL     1      -1.850  11.928  19.124  0.00  0.00    +0.000 A 
ATOM     16  C   UNL     1      -1.978  11.299  17.874  0.00  0.00    +0.000 A 
BRANCH  11  18
ATOM     17  F   UNL     1      -3.118   9.124  15.903  0.00  0.00    +0.000 F 
ATOM     18  C   UNL     1      -3.366  10.465  15.925  0.00  0.00    +0.000 C 
ATOM     19  F   UNL     1      -2.506  11.014  15.023  0.00  0.00    +0.000 F 
ATOM     20  F   UNL     1      -4.611  10.617  15.395  0.00  0.00    +0.000 F 
ENDBRANCH  11  18
ENDBRANCH  10  15
ENDBRANCH   1  10
BRANCH   5  21
ATOM     21  O   UNL     1       2.026   6.747  20.318  0.00  0.00    +0.000 OA
BRANCH  21  22
ATOM     22  C   UNL     1       1.207   5.692  19.779  0.00  0.00    +0.000 C 
ATOM     23  C   UNL     1       1.318   4.402  20.591  0.00  0.00    +0.000 C 
ATOM     24  C   UNL     1       2.709   3.777  20.515  0.00  0.00    +0.000 C 
ATOM     25  N   UNL     1       3.245   3.609  19.165  0.00  0.00    +0.000 NA
ATOM     26  C   UNL     1       3.048   4.753  18.267  0.00  0.00    +0.000 C 
ATOM     27  C   UNL     1       1.656   5.384  18.345  0.00  0.00    +0.000 C 
BRANCH  25  28
ATOM     28  C   UNL     1       4.661   3.154  19.169  0.00  0.00    +0.000 C 
BRANCH  28  29
ATOM     29  C   UNL     1       5.651   4.191  18.699  0.00  0.00    +0.000 A 
ATOM     30  C   UNL     1       6.004   4.473  17.385  0.00  0.00    +0.000 A 
ATOM     31  S   UNL     1       7.231   5.658  17.326  0.00  0.00    +0.000 S 
ATOM     32  C   UNL     1       7.163   5.775  19.034  0.00  0.00    +0.000 A 
ATOM     33  N   UNL     1       6.307   4.984  19.637  0.00  0.00    +0.000 NA
ENDBRANCH  28  29
ENDBRANCH  25  28
ENDBRANCH  21  22
ENDBRANCH   5  21
TORSDOF 7
ENDMDL
MODEL 7
REMARK VINA RESULT:      -7.8      4.999      9.512
REMARK  Name = 
REMARK  7 active torsions:
REMARK  status: ('A' for Active; 'I' for Inactive)
REMARK    1  A    between atoms: C_2  and  C_5
REMARK    2  A    between atoms: C_9  and  C_10
REMARK    3  A    between atoms: C_10  and  N_11
REMARK    4  A    between atoms: C_15  and  O_16
REMARK    5  A    between atoms: O_16  and  C_17
REMARK    6  A    between atoms: N_20  and  C_21
REMARK    7  A    between atoms: C_21  and  C_22
REMARK                            x       y       z     vdW  Elec       q    Type
REMARK                         _______ _______ _______ _____ _____    ______ ____
ROOT
ATOM      1  N   UNL     1       2.052   8.148  19.276  0.00  0.00    +0.000 N 
ATOM      2  C   UNL     1       2.140   8.184  17.901  0.00  0.00    +0.000 A 
ATOM      3  C   UNL     1       1.195   9.078  17.438  0.00  0.00    +0.000 A 
ATOM      4  C   UNL     1       0.489   9.585  18.564  0.00  0.00    +0.000 A 
ATOM      5  C   UNL     1      -0.612  10.422  18.780  0.00  0.00    +0.000 A 
ATOM      6  N   UNL     1      -1.008  10.675  20.053  0.00  0.00    +0.000 NA
ATOM      7  C   UNL     1      -0.324  10.089  21.052  0.00  0.00    +0.000 A 
ATOM      8  N   UNL     1       0.720   9.244  20.968  0.00  0.00    +0.000 NA
ATOM      9  C   UNL     1       1.078   9.024  19.691  0.00  0.00    +0.000 A 
ENDROOT
BRANCH   1  10
ATOM     10  C   UNL     1       2.712   7.177  20.142  0.00  0.00    +0.000 C 
BRANCH  10  15
ATOM     11  C   UNL     1       2.478   3.638  18.682  0.00  0.00    +0.000 A 
ATOM     12  C   UNL     1       1.412   3.121  19.432  0.00  0.00    +0.000 A 
ATOM     13  C   UNL     1       0.781   3.905  20.396  0.00  0.00    +0.000 A 
ATOM     14  C   UNL     1       1.200   5.216  20.617  0.00  0.00    +0.000 A 
ATOM     15  C   UNL     1       2.270   5.758  19.888  0.00  0.00    +0.000 A 
ATOM     16  C   UNL     1       2.911   4.954  18.931  0.00  0.00    +0.000 A 
BRANCH  11  18
ATOM     17  F   UNL     1       3.526   3.536  16.519  0.00  0.00    +0.000 F 
ATOM     18  C   UNL     1       3.132   2.808  17.602  0.00  0.00    +0.000 C 
ATOM     19  F   UNL     1       2.312   1.835  17.114  0.00  0.00    +0.000 F 
ATOM     20  F   UNL     1       4.250   2.168  18.042  0.00  0.00    +0.000 F 
ENDBRANCH  11  18
ENDBRANCH  10  15
ENDBRANCH   1  10
BRANCH   5  21
ATOM     21  O   UNL     1      -1.315  10.938  17.701  0.00  0.00    +0.000 OA
BRANCH  21  22
ATOM     22  C   UNL     1      -2.047   9.976  16.918  0.00  0.00    +0.000 C 
ATOM     23  C   UNL     1      -2.642  10.595  15.653  0.00  0.00    +0.000 C 
ATOM     24  C   UNL     1      -3.724  11.628  15.956  0.00  0.00    +0.000 C 
ATOM     25  N   UNL     1      -4.769  11.186  16.879  0.00  0.00    +0.000 NA
ATOM     26  C   UNL     1      -4.291  10.449  18.055  0.00  0.00    +0.000 C 
ATOM     27  C   UNL     1      -3.204   9.416  17.755  0.00  0.00    +0.000 C 
BRANCH  25  28
ATOM     28  C   UNL     1      -5.692  12.288  17.261  0.00  0.00    +0.000 C 
BRANCH  28  29
ATOM     29  C   UNL     1      -6.118  12.272  18.709  0.00  0.00    +0.000 A 
ATOM     30  C   UNL     1      -7.215  11.611  19.248  0.00  0.00    +0.000 A 
ATOM     31  S   UNL     1      -7.367  11.946  20.915  0.00  0.00    +0.000 S 
ATOM     32  C   UNL     1      -5.933  12.880  20.831  0.00  0.00    +0.000 A 
ATOM     33  N   UNL     1      -5.367  12.970  19.651  0.00  0.00    +0.000 NA
ENDBRANCH  28  29
ENDBRANCH  25  28
ENDBRANCH  21  22
ENDBRANCH   5  21
TORSDOF 7
ENDMDL
MODEL 8
REMARK VINA RESULT:      -7.7      5.162      9.910
REMARK  Name = 
REMARK  7 active torsions:
REMARK  status: ('A' for Active; 'I' for Inactive)
REMARK    1  A    between atoms: C_2  and  C_5
REMARK    2  A    between atoms: C_9  and  C_10
REMARK    3  A    between atoms: C_10  and  N_11
REMARK    4  A    between atoms: C_15  and  O_16
REMARK    5  A    between atoms: O_16  and  C_17
REMARK    6  A    between atoms: N_20  and  C_21
REMARK    7  A    between atoms: C_21  and  C_22
REMARK                            x       y       z     vdW  Elec       q    Type
REMARK                         _______ _______ _______ _____ _____    ______ ____
ROOT
ATOM      1  N   UNL     1       2.278   7.359  19.282  0.00  0.00    +0.000 N 
ATOM      2  C   UNL     1       2.426   7.954  18.048  0.00  0.00    +0.000 A 
ATOM      3  C   UNL     1       1.840   9.204  18.105  0.00  0.00    +0.000 A 
ATOM      4  C   UNL     1       1.294   9.367  19.408  0.00  0.00    +0.000 A 
ATOM      5  C   UNL     1       0.516  10.324  20.070  0.00  0.00    +0.000 A 
ATOM      6  N   UNL     1       0.175  10.114  21.367  0.00  0.00    +0.000 NA
ATOM      7  C   UNL     1       0.593   8.975  21.949  0.00  0.00    +0.000 A 
ATOM      8  N   UNL     1       1.309   7.972  21.409  0.00  0.00    +0.000 NA
ATOM      9  C   UNL     1       1.625   8.225  20.127  0.00  0.00    +0.000 A 
ENDROOT
BRANCH   1  10
ATOM     10  C   UNL     1       2.553   5.959  19.586  0.00  0.00    +0.000 C 
BRANCH  10  15
ATOM     11  C   UNL     1       5.948   5.010  18.075  0.00  0.00    +0.000 A 
ATOM     12  C   UNL     1       5.535   4.217  16.995  0.00  0.00    +0.000 A 
ATOM     13  C   UNL     1       4.180   3.991  16.761  0.00  0.00    +0.000 A 
ATOM     14  C   UNL     1       3.221   4.562  17.597  0.00  0.00    +0.000 A 
ATOM     15  C   UNL     1       3.604   5.352  18.691  0.00  0.00    +0.000 A 
ATOM     16  C   UNL     1       4.973   5.560  18.928  0.00  0.00    +0.000 A 
BRANCH  11  18
ATOM     17  F   UNL     1       8.237   4.291  17.891  0.00  0.00    +0.000 F 
ATOM     18  C   UNL     1       7.414   5.297  18.302  0.00  0.00    +0.000 C 
ATOM     19  F   UNL     1       7.715   5.506  19.615  0.00  0.00    +0.000 F 
ATOM     20  F   UNL     1       7.835   6.411  17.641  0.00  0.00    +0.000 F 
ENDBRANCH  11  18
ENDBRANCH  10  15
ENDBRANCH   1  10
BRANCH   5  21
ATOM     21  O   UNL     1       0.061  11.443  19.388  0.00  0.00    +0.000 OA
BRANCH  21  22
ATOM     22  C   UNL     1       1.047  12.461  19.136  0.00  0.00    +0.000 C 
ATOM     23  C   UNL     1       1.711  12.953  20.423  0.00  0.00    +0.000 C 
ATOM     24  C   UNL     1       0.739  13.690  21.342  0.00  0.00    +0.000 C 
ATOM     25  N   UNL     1      -0.044  14.748  20.704  0.00  0.00    +0.000 NA
ATOM     26  C   UNL     1      -0.598  14.408  19.388  0.00  0.00    +0.000 C 
ATOM     27  C   UNL     1       0.373  13.666  18.466  0.00  0.00    +0.000 C 
BRANCH  25  28
ATOM     28  C   UNL     1      -1.084  15.308  21.607  0.00  0.00    +0.000 C 
BRANCH  28  29
ATOM     29  C   UNL     1      -2.409  14.587  21.557  0.00  0.00    +0.000 A 
ATOM     30  C   UNL     1      -2.695  13.332  22.080  0.00  0.00    +0.000 A 
ATOM     31  S   UNL     1      -4.297  12.872  21.710  0.00  0.00    +0.000 S 
ATOM     32  C   UNL     1      -4.529  14.390  20.950  0.00  0.00    +0.000 A 
ATOM     33  N   UNL     1      -3.497  15.198  20.939  0.00  0.00    +0.000 NA
ENDBRANCH  28  29
ENDBRANCH  25  28
ENDBRANCH  21  22
ENDBRANCH   5  21
TORSDOF 7
ENDMDL
MODEL 9
REMARK VINA RESULT:      -7.7      1.032      1.385
REMARK  Name = 
REMARK  7 active torsions:
REMARK  status: ('A' for Active; 'I' for Inactive)
REMARK    1  A    between atoms: C_2  and  C_5
REMARK    2  A    between atoms: C_9  and  C_10
REMARK    3  A    between atoms: C_10  and  N_11
REMARK    4  A    between atoms: C_15  and  O_16
REMARK    5  A    between atoms: O_16  and  C_17
REMARK    6  A    between atoms: N_20  and  C_21
REMARK    7  A    between atoms: C_21  and  C_22
REMARK                            x       y       z     vdW  Elec       q    Type
REMARK                         _______ _______ _______ _____ _____    ______ ____
ROOT
ATOM      1  N   UNL     1       1.359   9.878  18.678  0.00  0.00    +0.000 N 
ATOM      2  C   UNL     1       2.179   9.326  17.718  0.00  0.00    +0.000 A 
ATOM      3  C   UNL     1       2.508   8.048  18.124  0.00  0.00    +0.000 A 
ATOM      4  C   UNL     1       1.891   7.821  19.385  0.00  0.00    +0.000 A 
ATOM      5  C   UNL     1       1.898   6.808  20.352  0.00  0.00    +0.000 A 
ATOM      6  N   UNL     1       1.154   6.965  21.476  0.00  0.00    +0.000 NA
ATOM      7  C   UNL     1       0.455   8.106  21.612  0.00  0.00    +0.000 A 
ATOM      8  N   UNL     1       0.399   9.159  20.776  0.00  0.00    +0.000 NA
ATOM      9  C   UNL     1       1.148   8.958  19.677  0.00  0.00    +0.000 A 
ENDROOT
BRANCH   1  10
ATOM     10  C   UNL     1       0.966  11.281  18.752  0.00  0.00    +0.000 C 
BRANCH  10  15
ATOM     11  C   UNL     1      -2.676  11.206  17.551  0.00  0.00    +0.000 A 
ATOM     12  C   UNL     1      -3.306  11.889  18.601  0.00  0.00    +0.000 A 
ATOM     13  C   UNL     1      -2.564  12.365  19.680  0.00  0.00    +0.000 A 
ATOM     14  C   UNL     1      -1.184  12.171  19.721  0.00  0.00    +0.000 A 
ATOM     15  C   UNL     1      -0.527  11.484  18.691  0.00  0.00    +0.000 A 
ATOM     16  C   UNL     1      -1.286  10.993  17.615  0.00  0.00    +0.000 A 
BRANCH  11  18
ATOM     17  F   UNL     1      -3.280   9.415  16.063  0.00  0.00    +0.000 F 
ATOM     18  C   UNL     1      -3.469  10.733  16.355  0.00  0.00    +0.000 C 
ATOM     19  F   UNL     1      -3.162  11.412  15.215  0.00  0.00    +0.000 F 
ATOM     20  F   UNL     1      -4.812  10.883  16.529  0.00  0.00    +0.000 F 
ENDBRANCH  11  18
ENDBRANCH  10  15
ENDBRANCH   1  10
BRANCH   5  21
ATOM     21  O   UNL     1       2.696   5.687  20.179  0.00  0.00    +0.000 OA
BRANCH  21  22
ATOM     22  C   UNL     1       1.997   4.429  20.118  0.00  0.00    +0.000 C 
ATOM     23  C   UNL     1       2.901   3.249  20.476  0.00  0.00    +0.000 C 
ATOM     24  C   UNL     1       4.014   3.029  19.455  0.00  0.00    +0.000 C 
ATOM     25  N   UNL     1       3.579   2.968  18.060  0.00  0.00    +0.000 NA
ATOM     26  C   UNL     1       2.592   3.981  17.668  0.00  0.00    +0.000 C 
ATOM     27  C   UNL     1       1.478   4.206  18.692  0.00  0.00    +0.000 C 
BRANCH  25  28
ATOM     28  C   UNL     1       4.723   2.921  17.110  0.00  0.00    +0.000 C 
BRANCH  28  29
ATOM     29  C   UNL     1       5.386   4.255  16.866  0.00  0.00    +0.000 A 
ATOM     30  C   UNL     1       6.214   4.947  17.740  0.00  0.00    +0.000 A 
ATOM     31  S   UNL     1       6.663   6.458  17.084  0.00  0.00    +0.000 S 
ATOM     32  C   UNL     1       5.796   6.067  15.659  0.00  0.00    +0.000 A 
ATOM     33  N   UNL     1       5.187   4.904  15.650  0.00  0.00    +0.000 NA
ENDBRANCH  28  29
ENDBRANCH  25  28
ENDBRANCH  21  22
ENDBRANCH   5  21
TORSDOF 7
ENDMDL
