MODEL 1
REMARK VINA RESULT:      -5.8      0.000      0.000
REMARK  Name = 
REMARK  1 active torsions:
REMARK  status: ('A' for Active; 'I' for Inactive)
REMARK    1  A    between atoms: C_2  and  C_4
REMARK                            x       y       z     vdW  Elec       q    Type
REMARK                         _______ _______ _______ _____ _____    ______ ____
ROOT
ATOM      1  C   UNL     1       6.629   5.137  18.084  0.00  0.00    +0.000 A 
ATOM      2  C   UNL     1       7.078   4.623  16.880  0.00  0.00    +0.000 A 
ATOM      3  S   UNL     1       5.855   3.880  15.961  0.00  0.00    +0.000 S 
ATOM      4  C   UNL     1       4.660   4.218  17.146  0.00  0.00    +0.000 A 
ATOM      5  C   UNL     1       3.293   3.883  17.071  0.00  0.00    +0.000 A 
ATOM      6  C   UNL     1       2.448   4.230  18.126  0.00  0.00    +0.000 A 
ATOM      7  C   UNL     1       2.949   4.894  19.233  0.00  0.00    +0.000 A 
ATOM      8  C   UNL     1       4.307   5.225  19.302  0.00  0.00    +0.000 A 
ATOM      9  C   UNL     1       5.200   4.894  18.246  0.00  0.00    +0.000 A 
ENDROOT
BRANCH   1  11
ATOM     10  O   UNL     1       7.686   5.369  20.174  0.00  0.00    +0.000 OA
ATOM     11  C   UNL     1       7.499   5.837  19.055  0.00  0.00    +0.000 C 
ATOM     12 CL   UNL     1       8.244   7.353  18.551  0.00  0.00    +0.000 Cl
ENDBRANCH   1  11
TORSDOF 1
ENDMDL
MODEL 2
REMARK VINA RESULT:      -5.8      2.673      3.043
REMARK  Name = 
REMARK  1 active torsions:
REMARK  status: ('A' for Active; 'I' for Inactive)
REMARK    1  A    between atoms: C_2  and  C_4
REMARK                            x       y       z     vdW  Elec       q    Type
REMARK                         _______ _______ _______ _____ _____    ______ ____
ROOT
ATOM      1  C   UNL     1       5.410   5.220  16.708  0.00  0.00    +0.000 A 
ATOM      2  C   UNL     1       5.323   6.581  16.943  0.00  0.00    +0.000 A 
ATOM      3  S   UNL     1       3.855   7.052  17.660  0.00  0.00    +0.000 S 
ATOM      4  C   UNL     1       3.267   5.440  17.687  0.00  0.00    +0.000 A 
ATOM      5  C   UNL     1       2.019   5.015  18.185  0.00  0.00    +0.000 A 
ATOM      6  C   UNL     1       1.690   3.660  18.132  0.00  0.00    +0.000 A 
ATOM      7  C   UNL     1       2.579   2.746  17.593  0.00  0.00    +0.000 A 
ATOM      8  C   UNL     1       3.817   3.173  17.100  0.00  0.00    +0.000 A 
ATOM      9  C   UNL     1       4.193   4.544  17.141  0.00  0.00    +0.000 A 
ENDROOT
BRANCH   1  11
ATOM     10  O   UNL     1       7.660   4.526  16.701  0.00  0.00    +0.000 OA
ATOM     11  C   UNL     1       6.590   4.564  16.100  0.00  0.00    +0.000 C 
ATOM     12 CL   UNL     1       6.404   3.853  14.499  0.00  0.00    +0.000 Cl
ENDBRANCH   1  11
TORSDOF 1
ENDMDL
MODEL 3
REMARK VINA RESULT:      -5.7      2.776      3.292
REMARK  Name = 
REMARK  1 active torsions:
REMARK  status: ('A' for Active; 'I' for Inactive)
REMARK    1  A    between atoms: C_2  and  C_4
REMARK                            x       y       z     vdW  Elec       q    Type
REMARK                         _______ _______ _______ _____ _____    ______ ____
ROOT
ATOM      1  C   UNL     1       4.592   5.642  17.034  0.00  0.00    +0.000 A 
ATOM      2  C   UNL     1       4.141   6.869  17.486  0.00  0.00    +0.000 A 
ATOM      3  S   UNL     1       2.685   6.776  18.360  0.00  0.00    +0.000 S 
ATOM      4  C   UNL     1       2.596   5.072  18.170  0.00  0.00    +0.000 A 
ATOM      5  C   UNL     1       1.586   4.228  18.674  0.00  0.00    +0.000 A 
ATOM      6  C   UNL     1       1.660   2.857  18.429  0.00  0.00    +0.000 A 
ATOM      7  C   UNL     1       2.712   2.334  17.698  0.00  0.00    +0.000 A 
ATOM      8  C   UNL     1       3.713   3.176  17.200  0.00  0.00    +0.000 A 
ATOM      9  C   UNL     1       3.678   4.578  17.432  0.00  0.00    +0.000 A 
ENDROOT
BRANCH   1  11
ATOM     10  O   UNL     1       5.947   5.937  15.131  0.00  0.00    +0.000 OA
ATOM     11  C   UNL     1       5.838   5.459  16.257  0.00  0.00    +0.000 C 
ATOM     12 CL   UNL     1       7.145   4.537  16.998  0.00  0.00    +0.000 Cl
ENDBRANCH   1  11
TORSDOF 1
ENDMDL
MODEL 4
REMARK VINA RESULT:      -5.6      3.130      3.708
REMARK  Name = 
REMARK  1 active torsions:
REMARK  status: ('A' for Active; 'I' for Inactive)
REMARK    1  A    between atoms: C_2  and  C_4
REMARK                            x       y       z     vdW  Elec       q    Type
REMARK                         _______ _______ _______ _____ _____    ______ ____
ROOT
ATOM      1  C   UNL     1       3.000   5.918  18.231  0.00  0.00    +0.000 A 
ATOM      2  C   UNL     1       4.083   5.798  17.378  0.00  0.00    +0.000 A 
ATOM      3  S   UNL     1       4.408   4.195  16.915  0.00  0.00    +0.000 S 
ATOM      4  C   UNL     1       3.098   3.585  17.843  0.00  0.00    +0.000 A 
ATOM      5  C   UNL     1       2.710   2.235  17.952  0.00  0.00    +0.000 A 
ATOM      6  C   UNL     1       1.618   1.903  18.753  0.00  0.00    +0.000 A 
ATOM      7  C   UNL     1       0.926   2.890  19.435  0.00  0.00    +0.000 A 
ATOM      8  C   UNL     1       1.315   4.229  19.323  0.00  0.00    +0.000 A 
ATOM      9  C   UNL     1       2.419   4.610  18.512  0.00  0.00    +0.000 A 
ENDROOT
BRANCH   1  11
ATOM     10  O   UNL     1       2.296   7.342  19.969  0.00  0.00    +0.000 OA
ATOM     11  C   UNL     1       2.515   7.208  18.768  0.00  0.00    +0.000 C 
ATOM     12 CL   UNL     1       2.261   8.531  17.632  0.00  0.00    +0.000 Cl
ENDBRANCH   1  11
TORSDOF 1
ENDMDL
MODEL 5
REMARK VINA RESULT:      -5.6      1.547      2.960
REMARK  Name = 
REMARK  1 active torsions:
REMARK  status: ('A' for Active; 'I' for Inactive)
REMARK    1  A    between atoms: C_2  and  C_4
REMARK                            x       y       z     vdW  Elec       q    Type
REMARK                         _______ _______ _______ _____ _____    ______ ____
ROOT
ATOM      1  C   UNL     1       6.352   5.180  18.585  0.00  0.00    +0.000 A 
ATOM      2  C   UNL     1       5.166   4.798  19.188  0.00  0.00    +0.000 A 
ATOM      3  S   UNL     1       4.040   4.129  18.105  0.00  0.00    +0.000 S 
ATOM      4  C   UNL     1       5.100   4.323  16.769  0.00  0.00    +0.000 A 
ATOM      5  C   UNL     1       4.837   3.957  15.433  0.00  0.00    +0.000 A 
ATOM      6  C   UNL     1       5.810   4.185  14.460  0.00  0.00    +0.000 A 
ATOM      7  C   UNL     1       7.019   4.765  14.803  0.00  0.00    +0.000 A 
ATOM      8  C   UNL     1       7.276   5.126  16.131  0.00  0.00    +0.000 A 
ATOM      9  C   UNL     1       6.313   4.906  17.154  0.00  0.00    +0.000 A 
ENDROOT
BRANCH   1  11
ATOM     10  O   UNL     1       7.891   5.282  20.364  0.00  0.00    +0.000 OA
ATOM     11  C   UNL     1       7.490   5.781  19.316  0.00  0.00    +0.000 C 
ATOM     12 CL   UNL     1       8.236   7.225  18.637  0.00  0.00    +0.000 Cl
ENDBRANCH   1  11
TORSDOF 1
ENDMDL
MODEL 6
REMARK VINA RESULT:      -5.6      3.926      4.761
REMARK  Name = 
REMARK  1 active torsions:
REMARK  status: ('A' for Active; 'I' for Inactive)
REMARK    1  A    between atoms: C_2  and  C_4
REMARK                            x       y       z     vdW  Elec       q    Type
REMARK                         _______ _______ _______ _____ _____    ______ ____
ROOT
ATOM      1  C   UNL     1       2.358   3.456  18.345  0.00  0.00    +0.000 A 
ATOM      2  C   UNL     1       3.322   2.649  17.768  0.00  0.00    +0.000 A 
ATOM      3  S   UNL     1       4.574   3.520  17.016  0.00  0.00    +0.000 S 
ATOM      4  C   UNL     1       3.873   5.030  17.436  0.00  0.00    +0.000 A 
ATOM      5  C   UNL     1       4.394   6.304  17.134  0.00  0.00    +0.000 A 
ATOM      6  C   UNL     1       3.697   7.440  17.548  0.00  0.00    +0.000 A 
ATOM      7  C   UNL     1       2.509   7.314  18.247  0.00  0.00    +0.000 A 
ATOM      8  C   UNL     1       1.997   6.047  18.545  0.00  0.00    +0.000 A 
ATOM      9  C   UNL     1       2.678   4.864  18.146  0.00  0.00    +0.000 A 
ENDROOT
BRANCH   1  11
ATOM     10  O   UNL     1       0.322   2.279  18.471  0.00  0.00    +0.000 OA
ATOM     11  C   UNL     1       1.173   2.936  19.064  0.00  0.00    +0.000 C 
ATOM     12 CL   UNL     1       1.030   3.295  20.784  0.00  0.00    +0.000 Cl
ENDBRANCH   1  11
TORSDOF 1
ENDMDL
MODEL 7
REMARK VINA RESULT:      -5.6      3.267      4.698
REMARK  Name = 
REMARK  1 active torsions:
REMARK  status: ('A' for Active; 'I' for Inactive)
REMARK    1  A    between atoms: C_2  and  C_4
REMARK                            x       y       z     vdW  Elec       q    Type
REMARK                         _______ _______ _______ _____ _____    ______ ____
ROOT
ATOM      1  C   UNL     1       4.043   3.951  17.952  0.00  0.00    +0.000 A 
ATOM      2  C   UNL     1       4.480   4.428  19.176  0.00  0.00    +0.000 A 
ATOM      3  S   UNL     1       6.011   5.165  19.108  0.00  0.00    +0.000 S 
ATOM      4  C   UNL     1       6.155   4.877  17.421  0.00  0.00    +0.000 A 
ATOM      5  C   UNL     1       7.241   5.245  16.601  0.00  0.00    +0.000 A 
ATOM      6  C   UNL     1       7.203   4.935  15.242  0.00  0.00    +0.000 A 
ATOM      7  C   UNL     1       6.112   4.271  14.707  0.00  0.00    +0.000 A 
ATOM      8  C   UNL     1       5.037   3.908  15.525  0.00  0.00    +0.000 A 
ATOM      9  C   UNL     1       5.033   4.211  16.915  0.00  0.00    +0.000 A 
ENDROOT
BRANCH   1  11
ATOM     10  O   UNL     1       2.676   2.053  17.687  0.00  0.00    +0.000 OA
ATOM     11  C   UNL     1       2.741   3.277  17.751  0.00  0.00    +0.000 C 
ATOM     12 CL   UNL     1       1.304   4.287  17.602  0.00  0.00    +0.000 Cl
ENDBRANCH   1  11
TORSDOF 1
ENDMDL
MODEL 8
REMARK VINA RESULT:      -5.5      3.810      4.917
REMARK  Name = 
REMARK  1 active torsions:
REMARK  status: ('A' for Active; 'I' for Inactive)
REMARK    1  A    between atoms: C_2  and  C_4
REMARK                            x       y       z     vdW  Elec       q    Type
REMARK                         _______ _______ _______ _____ _____    ______ ____
ROOT
ATOM      1  C   UNL     1       2.639   3.986  18.346  0.00  0.00    +0.000 A 
ATOM      2  C   UNL     1       2.083   4.930  19.192  0.00  0.00    +0.000 A 
ATOM      3  S   UNL     1       2.712   6.494  18.970  0.00  0.00    +0.000 S 
ATOM      4  C   UNL     1       3.765   5.971  17.719  0.00  0.00    +0.000 A 
ATOM      5  C   UNL     1       4.663   6.778  16.992  0.00  0.00    +0.000 A 
ATOM      6  C   UNL     1       5.454   6.195  16.002  0.00  0.00    +0.000 A 
ATOM      7  C   UNL     1       5.359   4.839  15.740  0.00  0.00    +0.000 A 
ATOM      8  C   UNL     1       4.466   4.042  16.464  0.00  0.00    +0.000 A 
ATOM      9  C   UNL     1       3.638   4.598  17.478  0.00  0.00    +0.000 A 
ENDROOT
BRANCH   1  11
ATOM     10  O   UNL     1       1.070   2.232  18.264  0.00  0.00    +0.000 OA
ATOM     11  C   UNL     1       2.252   2.558  18.340  0.00  0.00    +0.000 C 
ATOM     12 CL   UNL     1       3.536   1.356  18.450  0.00  0.00    +0.000 Cl
ENDBRANCH   1  11
TORSDOF 1
ENDMDL
MODEL 9
REMARK VINA RESULT:      -5.5      2.097      2.625
REMARK  Name = 
REMARK  1 active torsions:
REMARK  status: ('A' for Active; 'I' for Inactive)
REMARK    1  A    between atoms: C_2  and  C_4
REMARK                            x       y       z     vdW  Elec       q    Type
REMARK                         _______ _______ _______ _____ _____    ______ ____
ROOT
ATOM      1  C   UNL     1       4.887   5.223  18.472  0.00  0.00    +0.000 A 
ATOM      2  C   UNL     1       4.285   6.449  18.250  0.00  0.00    +0.000 A 
ATOM      3  S   UNL     1       2.601   6.348  18.034  0.00  0.00    +0.000 S 
ATOM      4  C   UNL     1       2.605   4.643  18.231  0.00  0.00    +0.000 A 
ATOM      5  C   UNL     1       1.480   3.795  18.185  0.00  0.00    +0.000 A 
ATOM      6  C   UNL     1       1.654   2.422  18.364  0.00  0.00    +0.000 A 
ATOM      7  C   UNL     1       2.918   1.901  18.583  0.00  0.00    +0.000 A 
ATOM      8  C   UNL     1       4.032   2.747  18.628  0.00  0.00    +0.000 A 
ATOM      9  C   UNL     1       3.897   4.152  18.456  0.00  0.00    +0.000 A 
ENDROOT
BRANCH   1  11
ATOM     10  O   UNL     1       6.827   5.244  19.806  0.00  0.00    +0.000 OA
ATOM     11  C   UNL     1       6.339   5.048  18.696  0.00  0.00    +0.000 C 
ATOM     12 CL   UNL     1       7.332   4.560  17.324  0.00  0.00    +0.000 Cl
ENDBRANCH   1  11
TORSDOF 1
ENDMDL
