MODEL 1
REMARK VINA RESULT:      -8.3      0.000      0.000
REMARK  Name = 
REMARK  9 active torsions:
REMARK  status: ('A' for Active; 'I' for Inactive)
REMARK    1  A    between atoms: C_1  and  O_2
REMARK    2  A    between atoms: O_2  and  C_3
REMARK    3  A    between atoms: C_3  and  C_4
REMARK    4  A    between atoms: C_4  and  N_5
REMARK    5  A    between atoms: N_5  and  C_6
REMARK    6  A    between atoms: C_8  and  C_9
REMARK    7  A    between atoms: C_12  and  C_13
REMARK    8  A    between atoms: N_16  and  C_17
REMARK    9  A    between atoms: N_27  and  C_28
REMARK                            x       y       z     vdW  Elec       q    Type
REMARK                         _______ _______ _______ _____ _____    ______ ____
ROOT
ATOM      1  C   UNL     1       3.395   6.017  18.243  0.00  0.00    +0.000 A 
ATOM      2  N   UNL     1       2.848   7.152  18.741  0.00  0.00    +0.000 NA
ATOM      3  C   UNL     1       2.032   7.085  19.824  0.00  0.00    +0.000 A 
ATOM      4  C   UNL     1       1.726   5.883  20.441  0.00  0.00    +0.000 A 
ATOM      5  C   UNL     1       2.291   4.717  19.957  0.00  0.00    +0.000 A 
ATOM      6  N   UNL     1       1.982   3.512  20.615  0.00  0.00    +0.000 NA
ATOM      7  C   UNL     1       2.518   2.434  20.168  0.00  0.00    +0.000 A 
ATOM      8  N   UNL     1       3.369   2.370  19.095  0.00  0.00    +0.000 N 
ATOM      9  C   UNL     1       3.931   1.100  18.679  0.00  0.00    +0.000 C 
ATOM     10  C   UNL     1       3.711   3.509  18.371  0.00  0.00    +0.000 A 
ATOM     11  O   UNL     1       4.464   3.478  17.401  0.00  0.00    +0.000 OA
ATOM     12  C   UNL     1       3.126   4.778  18.841  0.00  0.00    +0.000 A 
ENDROOT
BRANCH   3  13
ATOM     13  C   UNL     1       1.470   8.350  20.306  0.00  0.00    +0.000 A 
ATOM     14  C   UNL     1       1.184   8.546  21.668  0.00  0.00    +0.000 A 
ATOM     15  C   UNL     1       0.574   9.710  22.125  0.00  0.00    +0.000 A 
ATOM     16  C   UNL     1       0.172  10.701  21.214  0.00  0.00    +0.000 A 
ATOM     17  C   UNL     1       0.512  10.532  19.873  0.00  0.00    +0.000 A 
ATOM     18  F   UNL     1       0.154  11.465  18.968  0.00  0.00    +0.000 F 
ATOM     19  C   UNL     1       1.168   9.398  19.419  0.00  0.00    +0.000 A 
BRANCH  16  20
ATOM     20  C   UNL     1      -0.717  11.846  21.646  0.00  0.00    +0.000 C 
ATOM     21  C   UNL     1       0.030  13.166  21.855  0.00  0.00    +0.000 C 
ATOM     22  C   UNL     1      -0.930  14.249  22.353  0.00  0.00    +0.000 C 
ATOM     23  N   UNL     1      -1.613  13.836  23.588  0.00  0.00    +0.000 NA
ATOM     24  C   UNL     1      -2.506  14.897  24.058  0.00  0.00    +0.000 C 
ATOM     25  C   UNL     1      -2.378  12.598  23.392  0.00  0.00    +0.000 C 
ATOM     26  C   UNL     1      -1.474  11.463  22.929  0.00  0.00    +0.000 C 
ENDBRANCH  16  20
ENDBRANCH   3  13
BRANCH   1  27
ATOM     27  N   UNL     1       4.139   6.113  17.048  0.00  0.00    +0.000 N 
ATOM     28  H   UNL     1       4.401   5.170  16.733  0.00  0.00    +0.000 HD
BRANCH  27  29
ATOM     29  C   UNL     1       5.317   6.994  17.103  0.00  0.00    +0.000 C 
BRANCH  29  30
ATOM     30  C   UNL     1       6.621   6.189  17.026  0.00  0.00    +0.000 C 
BRANCH  30  32
ATOM     31  C   UNL     1       7.855   8.099  17.629  0.00  0.00    +0.000 C 
ATOM     32  O   UNL     1       7.725   7.037  16.691  0.00  0.00    +0.000 OA
ENDBRANCH  30  32
ENDBRANCH  29  30
ENDBRANCH  27  29
ENDBRANCH   1  27
TORSDOF 6
ENDMDL
MODEL 2
REMARK VINA RESULT:      -8.2      1.865      3.936
REMARK  Name = 
REMARK  9 active torsions:
REMARK  status: ('A' for Active; 'I' for Inactive)
REMARK    1  A    between atoms: C_1  and  O_2
REMARK    2  A    between atoms: O_2  and  C_3
REMARK    3  A    between atoms: C_3  and  C_4
REMARK    4  A    between atoms: C_4  and  N_5
REMARK    5  A    between atoms: N_5  and  C_6
REMARK    6  A    between atoms: C_8  and  C_9
REMARK    7  A    between atoms: C_12  and  C_13
REMARK    8  A    between atoms: N_16  and  C_17
REMARK    9  A    between atoms: N_27  and  C_28
REMARK                            x       y       z     vdW  Elec       q    Type
REMARK                         _______ _______ _______ _____ _____    ______ ____
ROOT
ATOM      1  C   UNL     1       3.015   5.350  19.652  0.00  0.00    +0.000 A 
ATOM      2  N   UNL     1       2.266   6.333  20.207  0.00  0.00    +0.000 NA
ATOM      3  C   UNL     1       2.196   7.547  19.604  0.00  0.00    +0.000 A 
ATOM      4  C   UNL     1       2.878   7.825  18.431  0.00  0.00    +0.000 A 
ATOM      5  C   UNL     1       3.632   6.827  17.840  0.00  0.00    +0.000 A 
ATOM      6  N   UNL     1       4.298   7.129  16.637  0.00  0.00    +0.000 NA
ATOM      7  C   UNL     1       4.988   6.196  16.087  0.00  0.00    +0.000 A 
ATOM      8  N   UNL     1       5.125   4.926  16.587  0.00  0.00    +0.000 N 
ATOM      9  C   UNL     1       5.918   3.940  15.878  0.00  0.00    +0.000 C 
ATOM     10  C   UNL     1       4.521   4.547  17.783  0.00  0.00    +0.000 A 
ATOM     11  O   UNL     1       4.635   3.420  18.256  0.00  0.00    +0.000 OA
ATOM     12  C   UNL     1       3.713   5.579  18.458  0.00  0.00    +0.000 A 
ENDROOT
BRANCH   3  13
ATOM     13  C   UNL     1       1.373   8.565  20.263  0.00  0.00    +0.000 A 
ATOM     14  C   UNL     1       0.842   9.648  19.542  0.00  0.00    +0.000 A 
ATOM     15  C   UNL     1       0.129  10.664  20.172  0.00  0.00    +0.000 A 
ATOM     16  C   UNL     1      -0.023  10.658  21.568  0.00  0.00    +0.000 A 
ATOM     17  C   UNL     1       0.450   9.553  22.272  0.00  0.00    +0.000 A 
ATOM     18  F   UNL     1       0.314   9.504  23.612  0.00  0.00    +0.000 F 
ATOM     19  C   UNL     1       1.115   8.511  21.644  0.00  0.00    +0.000 A 
BRANCH  16  20
ATOM     20  C   UNL     1      -0.560  11.868  22.300  0.00  0.00    +0.000 C 
ATOM     21  C   UNL     1      -2.031  11.743  22.710  0.00  0.00    +0.000 C 
ATOM     22  C   UNL     1      -2.509  13.031  23.383  0.00  0.00    +0.000 C 
ATOM     23  N   UNL     1      -2.307  14.200  22.513  0.00  0.00    +0.000 NA
ATOM     24  C   UNL     1      -2.794  15.415  23.169  0.00  0.00    +0.000 C 
ATOM     25  C   UNL     1      -0.893  14.366  22.153  0.00  0.00    +0.000 C 
ATOM     26  C   UNL     1      -0.360  13.129  21.443  0.00  0.00    +0.000 C 
ENDBRANCH  16  20
ENDBRANCH   3  13
BRANCH   1  27
ATOM     27  N   UNL     1       3.159   4.144  20.370  0.00  0.00    +0.000 N 
ATOM     28  H   UNL     1       3.212   3.358  19.710  0.00  0.00    +0.000 HD
BRANCH  27  29
ATOM     29  C   UNL     1       2.138   3.895  21.402  0.00  0.00    +0.000 C 
BRANCH  29  30
ATOM     30  C   UNL     1       1.245   2.705  21.028  0.00  0.00    +0.000 C 
BRANCH  30  32
ATOM     31  C   UNL     1       0.827   2.304  18.748  0.00  0.00    +0.000 C 
ATOM     32  O   UNL     1       1.715   2.069  19.834  0.00  0.00    +0.000 OA
ENDBRANCH  30  32
ENDBRANCH  29  30
ENDBRANCH  27  29
ENDBRANCH   1  27
TORSDOF 6
ENDMDL
MODEL 3
REMARK VINA RESULT:      -8.0      1.673      3.648
REMARK  Name = 
REMARK  9 active torsions:
REMARK  status: ('A' for Active; 'I' for Inactive)
REMARK    1  A    between atoms: C_1  and  O_2
REMARK    2  A    between atoms: O_2  and  C_3
REMARK    3  A    between atoms: C_3  and  C_4
REMARK    4  A    between atoms: C_4  and  N_5
REMARK    5  A    between atoms: N_5  and  C_6
REMARK    6  A    between atoms: C_8  and  C_9
REMARK    7  A    between atoms: C_12  and  C_13
REMARK    8  A    between atoms: N_16  and  C_17
REMARK    9  A    between atoms: N_27  and  C_28
REMARK                            x       y       z     vdW  Elec       q    Type
REMARK                         _______ _______ _______ _____ _____    ______ ____
ROOT
ATOM      1  C   UNL     1       3.050   5.445  19.415  0.00  0.00    +0.000 A 
ATOM      2  N   UNL     1       2.327   6.483  19.903  0.00  0.00    +0.000 NA
ATOM      3  C   UNL     1       2.324   7.669  19.244  0.00  0.00    +0.000 A 
ATOM      4  C   UNL     1       3.048   7.864  18.079  0.00  0.00    +0.000 A 
ATOM      5  C   UNL     1       3.776   6.810  17.556  0.00  0.00    +0.000 A 
ATOM      6  N   UNL     1       4.485   7.028  16.361  0.00  0.00    +0.000 NA
ATOM      7  C   UNL     1       5.150   6.043  15.874  0.00  0.00    +0.000 A 
ATOM      8  N   UNL     1       5.222   4.793  16.434  0.00  0.00    +0.000 N 
ATOM      9  C   UNL     1       5.992   3.745  15.795  0.00  0.00    +0.000 C 
ATOM     10  C   UNL     1       4.570   4.496  17.628  0.00  0.00    +0.000 A 
ATOM     11  O   UNL     1       4.625   3.388  18.156  0.00  0.00    +0.000 OA
ATOM     12  C   UNL     1       3.789   5.590  18.233  0.00  0.00    +0.000 A 
ENDROOT
BRANCH   3  13
ATOM     13  C   UNL     1       1.527   8.748  19.831  0.00  0.00    +0.000 A 
ATOM     14  C   UNL     1       1.284   8.802  21.215  0.00  0.00    +0.000 A 
ATOM     15  C   UNL     1       0.460   9.775  21.773  0.00  0.00    +0.000 A 
ATOM     16  C   UNL     1      -0.203  10.698  20.947  0.00  0.00    +0.000 A 
ATOM     17  C   UNL     1       0.087  10.681  19.585  0.00  0.00    +0.000 A 
ATOM     18  F   UNL     1      -0.519  11.557  18.759  0.00  0.00    +0.000 F 
ATOM     19  C   UNL     1       0.949   9.748  19.029  0.00  0.00    +0.000 A 
BRANCH  16  20
ATOM     20  C   UNL     1      -1.296  11.591  21.493  0.00  0.00    +0.000 C 
ATOM     21  C   UNL     1      -0.971  13.085  21.415  0.00  0.00    +0.000 C 
ATOM     22  C   UNL     1      -2.097  13.909  22.046  0.00  0.00    +0.000 C 
ATOM     23  N   UNL     1      -2.348  13.500  23.437  0.00  0.00    +0.000 NA
ATOM     24  C   UNL     1      -3.410  14.318  24.025  0.00  0.00    +0.000 C 
ATOM     25  C   UNL     1      -2.712  12.080  23.524  0.00  0.00    +0.000 C 
ATOM     26  C   UNL     1      -1.614  11.197  22.945  0.00  0.00    +0.000 C 
ENDBRANCH  16  20
ENDBRANCH   3  13
BRANCH   1  27
ATOM     27  N   UNL     1       3.124   4.269  20.192  0.00  0.00    +0.000 N 
ATOM     28  H   UNL     1       3.146   3.451  19.570  0.00  0.00    +0.000 HD
BRANCH  27  29
ATOM     29  C   UNL     1       2.079   4.120  21.218  0.00  0.00    +0.000 C 
BRANCH  29  30
ATOM     30  C   UNL     1       1.264   2.839  21.004  0.00  0.00    +0.000 C 
BRANCH  30  32
ATOM     31  C   UNL     1       0.762   2.286  18.773  0.00  0.00    +0.000 C 
ATOM     32  O   UNL     1       1.703   2.145  19.832  0.00  0.00    +0.000 OA
ENDBRANCH  30  32
ENDBRANCH  29  30
ENDBRANCH  27  29
ENDBRANCH   1  27
TORSDOF 6
ENDMDL
MODEL 4
REMARK VINA RESULT:      -8.0      0.969      1.278
REMARK  Name = 
REMARK  9 active torsions:
REMARK  status: ('A' for Active; 'I' for Inactive)
REMARK    1  A    between atoms: C_1  and  O_2
REMARK    2  A    between atoms: O_2  and  C_3
REMARK    3  A    between atoms: C_3  and  C_4
REMARK    4  A    between atoms: C_4  and  N_5
REMARK    5  A    between atoms: N_5  and  C_6
REMARK    6  A    between atoms: C_8  and  C_9
REMARK    7  A    between atoms: C_12  and  C_13
REMARK    8  A    between atoms: N_16  and  C_17
REMARK    9  A    between atoms: N_27  and  C_28
REMARK                            x       y       z     vdW  Elec       q    Type
REMARK                         _______ _______ _______ _____ _____    ______ ____
ROOT
ATOM      1  C   UNL     1       3.482   6.008  18.168  0.00  0.00    +0.000 A 
ATOM      2  N   UNL     1       2.943   7.156  18.645  0.00  0.00    +0.000 NA
ATOM      3  C   UNL     1       2.092   7.110  19.701  0.00  0.00    +0.000 A 
ATOM      4  C   UNL     1       1.742   5.917  20.311  0.00  0.00    +0.000 A 
ATOM      5  C   UNL     1       2.297   4.738  19.849  0.00  0.00    +0.000 A 
ATOM      6  N   UNL     1       1.941   3.541  20.499  0.00  0.00    +0.000 NA
ATOM      7  C   UNL     1       2.468   2.451  20.073  0.00  0.00    +0.000 A 
ATOM      8  N   UNL     1       3.352   2.365  19.028  0.00  0.00    +0.000 N 
ATOM      9  C   UNL     1       3.901   1.082  18.634  0.00  0.00    +0.000 C 
ATOM     10  C   UNL     1       3.741   3.495  18.313  0.00  0.00    +0.000 A 
ATOM     11  O   UNL     1       4.524   3.444  17.368  0.00  0.00    +0.000 OA
ATOM     12  C   UNL     1       3.168   4.777  18.760  0.00  0.00    +0.000 A 
ENDROOT
BRANCH   3  13
ATOM     13  C   UNL     1       1.542   8.387  20.161  0.00  0.00    +0.000 A 
ATOM     14  C   UNL     1       1.058   8.540  21.472  0.00  0.00    +0.000 A 
ATOM     15  C   UNL     1       0.458   9.723  21.895  0.00  0.00    +0.000 A 
ATOM     16  C   UNL     1       0.267  10.780  20.990  0.00  0.00    +0.000 A 
ATOM     17  C   UNL     1       0.802  10.649  19.710  0.00  0.00    +0.000 A 
ATOM     18  F   UNL     1       0.650  11.646  18.815  0.00  0.00    +0.000 F 
ATOM     19  C   UNL     1       1.449   9.494  19.299  0.00  0.00    +0.000 A 
BRANCH  16  20
ATOM     20  C   UNL     1      -0.606  11.964  21.344  0.00  0.00    +0.000 C 
ATOM     21  C   UNL     1      -1.017  12.011  22.819  0.00  0.00    +0.000 C 
ATOM     22  C   UNL     1      -1.949  13.198  23.075  0.00  0.00    +0.000 C 
ATOM     23  N   UNL     1      -3.133  13.151  22.204  0.00  0.00    +0.000 NA
ATOM     24  C   UNL     1      -4.019  14.282  22.485  0.00  0.00    +0.000 C 
ATOM     25  C   UNL     1      -2.757  13.159  20.784  0.00  0.00    +0.000 C 
ATOM     26  C   UNL     1      -1.856  11.977  20.450  0.00  0.00    +0.000 C 
ENDBRANCH  16  20
ENDBRANCH   3  13
BRANCH   1  27
ATOM     27  N   UNL     1       4.267   6.084  16.997  0.00  0.00    +0.000 N 
ATOM     28  H   UNL     1       4.484   5.134  16.669  0.00  0.00    +0.000 HD
BRANCH  27  29
ATOM     29  C   UNL     1       5.491   6.895  17.106  0.00  0.00    +0.000 C 
BRANCH  29  30
ATOM     30  C   UNL     1       6.745   6.011  17.135  0.00  0.00    +0.000 C 
BRANCH  30  32
ATOM     31  C   UNL     1       7.013   4.783  15.146  0.00  0.00    +0.000 C 
ATOM     32  O   UNL     1       7.370   5.969  15.848  0.00  0.00    +0.000 OA
ENDBRANCH  30  32
ENDBRANCH  29  30
ENDBRANCH  27  29
ENDBRANCH   1  27
TORSDOF 6
ENDMDL
MODEL 5
REMARK VINA RESULT:      -7.9      1.796      3.808
REMARK  Name = 
REMARK  9 active torsions:
REMARK  status: ('A' for Active; 'I' for Inactive)
REMARK    1  A    between atoms: C_1  and  O_2
REMARK    2  A    between atoms: O_2  and  C_3
REMARK    3  A    between atoms: C_3  and  C_4
REMARK    4  A    between atoms: C_4  and  N_5
REMARK    5  A    between atoms: N_5  and  C_6
REMARK    6  A    between atoms: C_8  and  C_9
REMARK    7  A    between atoms: C_12  and  C_13
REMARK    8  A    between atoms: N_16  and  C_17
REMARK    9  A    between atoms: N_27  and  C_28
REMARK                            x       y       z     vdW  Elec       q    Type
REMARK                         _______ _______ _______ _____ _____    ______ ____
ROOT
ATOM      1  C   UNL     1       3.054   5.488  19.448  0.00  0.00    +0.000 A 
ATOM      2  N   UNL     1       2.269   6.490  19.912  0.00  0.00    +0.000 NA
ATOM      3  C   UNL     1       2.213   7.667  19.238  0.00  0.00    +0.000 A 
ATOM      4  C   UNL     1       2.946   7.888  18.084  0.00  0.00    +0.000 A 
ATOM      5  C   UNL     1       3.738   6.870  17.586  0.00  0.00    +0.000 A 
ATOM      6  N   UNL     1       4.455   7.112  16.400  0.00  0.00    +0.000 NA
ATOM      7  C   UNL     1       5.181   6.160  15.936  0.00  0.00    +0.000 A 
ATOM      8  N   UNL     1       5.310   4.922  16.512  0.00  0.00    +0.000 N 
ATOM      9  C   UNL     1       6.146   3.909  15.898  0.00  0.00    +0.000 C 
ATOM     10  C   UNL     1       4.654   4.603  17.699  0.00  0.00    +0.000 A 
ATOM     11  O   UNL     1       4.760   3.505  18.240  0.00  0.00    +0.000 OA
ATOM     12  C   UNL     1       3.805   5.660  18.277  0.00  0.00    +0.000 A 
ENDROOT
BRANCH   3  13
ATOM     13  C   UNL     1       1.349   8.708  19.799  0.00  0.00    +0.000 A 
ATOM     14  C   UNL     1       0.737   9.668  18.974  0.00  0.00    +0.000 A 
ATOM     15  C   UNL     1      -0.018  10.710  19.504  0.00  0.00    +0.000 A 
ATOM     16  C   UNL     1      -0.135  10.861  20.895  0.00  0.00    +0.000 A 
ATOM     17  C   UNL     1       0.420   9.875  21.708  0.00  0.00    +0.000 A 
ATOM     18  F   UNL     1       0.320   9.977  23.049  0.00  0.00    +0.000 F 
ATOM     19  C   UNL     1       1.128   8.804  21.185  0.00  0.00    +0.000 A 
BRANCH  16  20
ATOM     20  C   UNL     1      -0.724  12.118  21.498  0.00  0.00    +0.000 C 
ATOM     21  C   UNL     1       0.307  13.219  21.763  0.00  0.00    +0.000 C 
ATOM     22  C   UNL     1      -0.360  14.424  22.431  0.00  0.00    +0.000 C 
ATOM     23  N   UNL     1      -1.044  14.039  23.675  0.00  0.00    +0.000 NA
ATOM     24  C   UNL     1      -1.652  15.212  24.307  0.00  0.00    +0.000 C 
ATOM     25  C   UNL     1      -2.073  13.020  23.431  0.00  0.00    +0.000 C 
ATOM     26  C   UNL     1      -1.469  11.774  22.798  0.00  0.00    +0.000 C 
ENDBRANCH  16  20
ENDBRANCH   3  13
BRANCH   1  27
ATOM     27  N   UNL     1       3.178   4.326  20.240  0.00  0.00    +0.000 N 
ATOM     28  H   UNL     1       3.251   3.503  19.628  0.00  0.00    +0.000 HD
BRANCH  27  29
ATOM     29  C   UNL     1       2.128   4.135  21.254  0.00  0.00    +0.000 C 
BRANCH  29  30
ATOM     30  C   UNL     1       1.295   2.881  20.966  0.00  0.00    +0.000 C 
BRANCH  30  32
ATOM     31  C   UNL     1       0.818   2.303  18.736  0.00  0.00    +0.000 C 
ATOM     32  O   UNL     1       1.768   2.212  19.792  0.00  0.00    +0.000 OA
ENDBRANCH  30  32
ENDBRANCH  29  30
ENDBRANCH  27  29
ENDBRANCH   1  27
TORSDOF 6
ENDMDL
MODEL 6
REMARK VINA RESULT:      -7.9      1.928      4.082
REMARK  Name = 
REMARK  9 active torsions:
REMARK  status: ('A' for Active; 'I' for Inactive)
REMARK    1  A    between atoms: C_1  and  O_2
REMARK    2  A    between atoms: O_2  and  C_3
REMARK    3  A    between atoms: C_3  and  C_4
REMARK    4  A    between atoms: C_4  and  N_5
REMARK    5  A    between atoms: N_5  and  C_6
REMARK    6  A    between atoms: C_8  and  C_9
REMARK    7  A    between atoms: C_12  and  C_13
REMARK    8  A    between atoms: N_16  and  C_17
REMARK    9  A    between atoms: N_27  and  C_28
REMARK                            x       y       z     vdW  Elec       q    Type
REMARK                         _______ _______ _______ _____ _____    ______ ____
ROOT
ATOM      1  C   UNL     1       3.055   4.944  18.247  0.00  0.00    +0.000 A 
ATOM      2  N   UNL     1       2.383   5.925  18.897  0.00  0.00    +0.000 NA
ATOM      3  C   UNL     1       2.627   7.224  18.590  0.00  0.00    +0.000 A 
ATOM      4  C   UNL     1       3.558   7.591  17.632  0.00  0.00    +0.000 A 
ATOM      5  C   UNL     1       4.240   6.602  16.946  0.00  0.00    +0.000 A 
ATOM      6  N   UNL     1       5.164   7.000  15.962  0.00  0.00    +0.000 NA
ATOM      7  C   UNL     1       5.787   6.079  15.320  0.00  0.00    +0.000 A 
ATOM      8  N   UNL     1       5.618   4.733  15.524  0.00  0.00    +0.000 N 
ATOM      9  C   UNL     1       6.363   3.772  14.733  0.00  0.00    +0.000 C 
ATOM     10  C   UNL     1       4.742   4.250  16.492  0.00  0.00    +0.000 A 
ATOM     11  O   UNL     1       4.579   3.051  16.700  0.00  0.00    +0.000 OA
ATOM     12  C   UNL     1       3.998   5.265  17.260  0.00  0.00    +0.000 A 
ENDROOT
BRANCH   3  13
ATOM     13  C   UNL     1       1.869   8.232  19.336  0.00  0.00    +0.000 A 
ATOM     14  C   UNL     1       1.413   9.407  18.713  0.00  0.00    +0.000 A 
ATOM     15  C   UNL     1       0.765  10.408  19.430  0.00  0.00    +0.000 A 
ATOM     16  C   UNL     1       0.605  10.290  20.820  0.00  0.00    +0.000 A 
ATOM     17  C   UNL     1       1.002   9.099  21.425  0.00  0.00    +0.000 A 
ATOM     18  F   UNL     1       0.856   8.942  22.756  0.00  0.00    +0.000 F 
ATOM     19  C   UNL     1       1.600   8.075  20.707  0.00  0.00    +0.000 A 
BRANCH  16  20
ATOM     20  C   UNL     1       0.144  11.464  21.656  0.00  0.00    +0.000 C 
ATOM     21  C   UNL     1      -1.229  11.262  22.304  0.00  0.00    +0.000 C 
ATOM     22  C   UNL     1      -1.646  12.518  23.073  0.00  0.00    +0.000 C 
ATOM     23  N   UNL     1      -1.647  13.705  22.204  0.00  0.00    +0.000 NA
ATOM     24  C   UNL     1      -2.072  14.888  22.957  0.00  0.00    +0.000 C 
ATOM     25  C   UNL     1      -0.323  13.944  21.616  0.00  0.00    +0.000 C 
ATOM     26  C   UNL     1       0.139  12.743  20.802  0.00  0.00    +0.000 C 
ENDBRANCH  16  20
ENDBRANCH   3  13
BRANCH   1  27
ATOM     27  N   UNL     1       2.861   3.614  18.676  0.00  0.00    +0.000 N 
ATOM     28  H   UNL     1       3.536   3.001  18.202  0.00  0.00    +0.000 HD
BRANCH  27  29
ATOM     29  C   UNL     1       1.490   3.096  18.534  0.00  0.00    +0.000 C 
BRANCH  29  30
ATOM     30  C   UNL     1       0.796   2.972  19.896  0.00  0.00    +0.000 C 
BRANCH  30  32
ATOM     31  C   UNL     1       2.054   3.132  21.877  0.00  0.00    +0.000 C 
ATOM     32  O   UNL     1       1.624   2.270  20.829  0.00  0.00    +0.000 OA
ENDBRANCH  30  32
ENDBRANCH  29  30
ENDBRANCH  27  29
ENDBRANCH   1  27
TORSDOF 6
ENDMDL
MODEL 7
REMARK VINA RESULT:      -7.8      1.954      3.911
REMARK  Name = 
REMARK  9 active torsions:
REMARK  status: ('A' for Active; 'I' for Inactive)
REMARK    1  A    between atoms: C_1  and  O_2
REMARK    2  A    between atoms: O_2  and  C_3
REMARK    3  A    between atoms: C_3  and  C_4
REMARK    4  A    between atoms: C_4  and  N_5
REMARK    5  A    between atoms: N_5  and  C_6
REMARK    6  A    between atoms: C_8  and  C_9
REMARK    7  A    between atoms: C_12  and  C_13
REMARK    8  A    between atoms: N_16  and  C_17
REMARK    9  A    between atoms: N_27  and  C_28
REMARK                            x       y       z     vdW  Elec       q    Type
REMARK                         _______ _______ _______ _____ _____    ______ ____
ROOT
ATOM      1  C   UNL     1       3.021   5.796  19.498  0.00  0.00    +0.000 A 
ATOM      2  N   UNL     1       2.274   6.861  19.878  0.00  0.00    +0.000 NA
ATOM      3  C   UNL     1       2.243   7.973  19.100  0.00  0.00    +0.000 A 
ATOM      4  C   UNL     1       2.963   8.064  17.920  0.00  0.00    +0.000 A 
ATOM      5  C   UNL     1       3.715   6.979  17.507  0.00  0.00    +0.000 A 
ATOM      6  N   UNL     1       4.420   7.089  16.294  0.00  0.00    +0.000 NA
ATOM      7  C   UNL     1       5.108   6.076  15.910  0.00  0.00    +0.000 A 
ATOM      8  N   UNL     1       5.208   4.892  16.595  0.00  0.00    +0.000 N 
ATOM      9  C   UNL     1       6.003   3.801  16.065  0.00  0.00    +0.000 C 
ATOM     10  C   UNL     1       4.563   4.704  17.815  0.00  0.00    +0.000 A 
ATOM     11  O   UNL     1       4.644   3.658  18.453  0.00  0.00    +0.000 OA
ATOM     12  C   UNL     1       3.756   5.836  18.305  0.00  0.00    +0.000 A 
ENDROOT
BRANCH   3  13
ATOM     13  C   UNL     1       1.421   9.088  19.575  0.00  0.00    +0.000 A 
ATOM     14  C   UNL     1       0.792   9.044  20.832  0.00  0.00    +0.000 A 
ATOM     15  C   UNL     1      -0.058  10.060  21.258  0.00  0.00    +0.000 A 
ATOM     16  C   UNL     1      -0.356  11.136  20.405  0.00  0.00    +0.000 A 
ATOM     17  C   UNL     1       0.315  11.208  19.186  0.00  0.00    +0.000 A 
ATOM     18  F   UNL     1       0.066  12.230  18.344  0.00  0.00    +0.000 F 
ATOM     19  C   UNL     1       1.205  10.226  18.778  0.00  0.00    +0.000 A 
BRANCH  16  20
ATOM     20  C   UNL     1      -1.466  12.109  20.734  0.00  0.00    +0.000 C 
ATOM     21  C   UNL     1      -1.877  12.105  22.210  0.00  0.00    +0.000 C 
ATOM     22  C   UNL     1      -3.045  13.067  22.441  0.00  0.00    +0.000 C 
ATOM     23  N   UNL     1      -4.191  12.738  21.579  0.00  0.00    +0.000 NA
ATOM     24  C   UNL     1      -5.303  13.656  21.836  0.00  0.00    +0.000 C 
ATOM     25  C   UNL     1      -3.827  12.789  20.157  0.00  0.00    +0.000 C 
ATOM     26  C   UNL     1      -2.690  11.825  19.848  0.00  0.00    +0.000 C 
ENDBRANCH  16  20
ENDBRANCH   3  13
BRANCH   1  27
ATOM     27  N   UNL     1       3.121   4.708  20.391  0.00  0.00    +0.000 N 
ATOM     28  H   UNL     1       3.439   3.875  19.879  0.00  0.00    +0.000 HD
BRANCH  27  29
ATOM     29  C   UNL     1       1.908   4.414  21.171  0.00  0.00    +0.000 C 
BRANCH  29  30
ATOM     30  C   UNL     1       1.405   2.990  20.905  0.00  0.00    +0.000 C 
BRANCH  30  32
ATOM     31  C   UNL     1       1.163   2.337  18.658  0.00  0.00    +0.000 C 
ATOM     32  O   UNL     1       0.532   2.960  19.771  0.00  0.00    +0.000 OA
ENDBRANCH  30  32
ENDBRANCH  29  30
ENDBRANCH  27  29
ENDBRANCH   1  27
TORSDOF 6
ENDMDL
MODEL 8
REMARK VINA RESULT:      -7.8      4.049      9.800
REMARK  Name = 
REMARK  9 active torsions:
REMARK  status: ('A' for Active; 'I' for Inactive)
REMARK    1  A    between atoms: C_1  and  O_2
REMARK    2  A    between atoms: O_2  and  C_3
REMARK    3  A    between atoms: C_3  and  C_4
REMARK    4  A    between atoms: C_4  and  N_5
REMARK    5  A    between atoms: N_5  and  C_6
REMARK    6  A    between atoms: C_8  and  C_9
REMARK    7  A    between atoms: C_12  and  C_13
REMARK    8  A    between atoms: N_16  and  C_17
REMARK    9  A    between atoms: N_27  and  C_28
REMARK                            x       y       z     vdW  Elec       q    Type
REMARK                         _______ _______ _______ _____ _____    ______ ____
ROOT
ATOM      1  C   UNL     1      -1.404  11.998  19.494  0.00  0.00    +0.000 A 
ATOM      2  N   UNL     1      -0.682  10.884  19.220  0.00  0.00    +0.000 NA
ATOM      3  C   UNL     1       0.503  10.679  19.850  0.00  0.00    +0.000 A 
ATOM      4  C   UNL     1       1.013  11.583  20.767  0.00  0.00    +0.000 A 
ATOM      5  C   UNL     1       0.281  12.716  21.072  0.00  0.00    +0.000 A 
ATOM      6  N   UNL     1       0.812  13.608  22.023  0.00  0.00    +0.000 NA
ATOM      7  C   UNL     1       0.123  14.653  22.311  0.00  0.00    +0.000 A 
ATOM      8  N   UNL     1      -1.093  14.965  21.758  0.00  0.00    +0.000 N 
ATOM      9  C   UNL     1      -1.796  16.166  22.164  0.00  0.00    +0.000 C 
ATOM     10  C   UNL     1      -1.681  14.152  20.793  0.00  0.00    +0.000 A 
ATOM     11  O   UNL     1      -2.764  14.414  20.277  0.00  0.00    +0.000 OA
ATOM     12  C   UNL     1      -0.935  12.936  20.424  0.00  0.00    +0.000 A 
ENDROOT
BRANCH   3  13
ATOM     13  C   UNL     1       1.232   9.458  19.501  0.00  0.00    +0.000 A 
ATOM     14  C   UNL     1       1.787   9.282  18.222  0.00  0.00    +0.000 A 
ATOM     15  C   UNL     1       2.410   8.093  17.853  0.00  0.00    +0.000 A 
ATOM     16  C   UNL     1       2.443   7.008  18.745  0.00  0.00    +0.000 A 
ATOM     17  C   UNL     1       1.947   7.205  20.032  0.00  0.00    +0.000 A 
ATOM     18  F   UNL     1       1.971   6.192  20.921  0.00  0.00    +0.000 F 
ATOM     19  C   UNL     1       1.374   8.405  20.423  0.00  0.00    +0.000 A 
BRANCH  16  20
ATOM     20  C   UNL     1       2.875   5.633  18.286  0.00  0.00    +0.000 C 
ATOM     21  C   UNL     1       1.723   4.632  18.156  0.00  0.00    +0.000 C 
ATOM     22  C   UNL     1       2.255   3.255  17.752  0.00  0.00    +0.000 C 
ATOM     23  N   UNL     1       3.264   2.768  18.705  0.00  0.00    +0.000 NA
ATOM     24  C   UNL     1       3.740   1.441  18.311  0.00  0.00    +0.000 C 
ATOM     25  C   UNL     1       4.403   3.691  18.803  0.00  0.00    +0.000 C 
ATOM     26  C   UNL     1       3.947   5.078  19.238  0.00  0.00    +0.000 C 
ENDBRANCH  16  20
ENDBRANCH   3  13
BRANCH   1  27
ATOM     27  N   UNL     1      -2.569  12.233  18.733  0.00  0.00    +0.000 N 
ATOM     28  H   UNL     1      -3.286  12.663  19.332  0.00  0.00    +0.000 HD
BRANCH  27  29
ATOM     29  C   UNL     1      -3.110  11.062  18.024  0.00  0.00    +0.000 C 
BRANCH  29  30
ATOM     30  C   UNL     1      -2.997  11.229  16.504  0.00  0.00    +0.000 C 
BRANCH  30  32
ATOM     31  C   UNL     1      -3.215  10.136  14.431  0.00  0.00    +0.000 C 
ATOM     32  O   UNL     1      -3.498  10.072  15.825  0.00  0.00    +0.000 OA
ENDBRANCH  30  32
ENDBRANCH  29  30
ENDBRANCH  27  29
ENDBRANCH   1  27
TORSDOF 6
ENDMDL
MODEL 9
REMARK VINA RESULT:      -7.7      1.995      4.004
REMARK  Name = 
REMARK  9 active torsions:
REMARK  status: ('A' for Active; 'I' for Inactive)
REMARK    1  A    between atoms: C_1  and  O_2
REMARK    2  A    between atoms: O_2  and  C_3
REMARK    3  A    between atoms: C_3  and  C_4
REMARK    4  A    between atoms: C_4  and  N_5
REMARK    5  A    between atoms: N_5  and  C_6
REMARK    6  A    between atoms: C_8  and  C_9
REMARK    7  A    between atoms: C_12  and  C_13
REMARK    8  A    between atoms: N_16  and  C_17
REMARK    9  A    between atoms: N_27  and  C_28
REMARK                            x       y       z     vdW  Elec       q    Type
REMARK                         _______ _______ _______ _____ _____    ______ ____
ROOT
ATOM      1  C   UNL     1       2.950   5.179  18.271  0.00  0.00    +0.000 A 
ATOM      2  N   UNL     1       2.327   6.236  18.848  0.00  0.00    +0.000 NA
ATOM      3  C   UNL     1       2.654   7.497  18.468  0.00  0.00    +0.000 A 
ATOM      4  C   UNL     1       3.620   7.748  17.507  0.00  0.00    +0.000 A 
ATOM      5  C   UNL     1       4.252   6.682  16.896  0.00  0.00    +0.000 A 
ATOM      6  N   UNL     1       5.214   6.963  15.908  0.00  0.00    +0.000 NA
ATOM      7  C   UNL     1       5.790   5.969  15.335  0.00  0.00    +0.000 A 
ATOM      8  N   UNL     1       5.538   4.650  15.616  0.00  0.00    +0.000 N 
ATOM      9  C   UNL     1       6.236   3.601  14.900  0.00  0.00    +0.000 C 
ATOM     10  C   UNL     1       4.620   4.281  16.595  0.00  0.00    +0.000 A 
ATOM     11  O   UNL     1       4.382   3.108  16.872  0.00  0.00    +0.000 OA
ATOM     12  C   UNL     1       3.926   5.382  17.285  0.00  0.00    +0.000 A 
ENDROOT
BRANCH   3  13
ATOM     13  C   UNL     1       1.946   8.592  19.136  0.00  0.00    +0.000 A 
ATOM     14  C   UNL     1       1.371   8.416  20.407  0.00  0.00    +0.000 A 
ATOM     15  C   UNL     1       0.626   9.422  21.015  0.00  0.00    +0.000 A 
ATOM     16  C   UNL     1       0.377  10.626  20.336  0.00  0.00    +0.000 A 
ATOM     17  C   UNL     1       0.998  10.821  19.104  0.00  0.00    +0.000 A 
ATOM     18  F   UNL     1       0.795  11.967  18.425  0.00  0.00    +0.000 F 
ATOM     19  C   UNL     1       1.787   9.843  18.516  0.00  0.00    +0.000 A 
BRANCH  16  20
ATOM     20  C   UNL     1      -0.635  11.623  20.856  0.00  0.00    +0.000 C 
ATOM     21  C   UNL     1      -1.087  11.353  22.294  0.00  0.00    +0.000 C 
ATOM     22  C   UNL     1      -2.156  12.364  22.716  0.00  0.00    +0.000 C 
ATOM     23  N   UNL     1      -3.304  12.349  21.796  0.00  0.00    +0.000 NA
ATOM     24  C   UNL     1      -4.322  13.306  22.234  0.00  0.00    +0.000 C 
ATOM     25  C   UNL     1      -2.895  12.658  20.420  0.00  0.00    +0.000 C 
ATOM     26  C   UNL     1      -1.855  11.663  19.921  0.00  0.00    +0.000 C 
ENDBRANCH  16  20
ENDBRANCH   3  13
BRANCH   1  27
ATOM     27  N   UNL     1       2.670   3.892  18.777  0.00  0.00    +0.000 N 
ATOM     28  H   UNL     1       3.396   3.236  18.461  0.00  0.00    +0.000 HD
BRANCH  27  29
ATOM     29  C   UNL     1       1.325   3.372  18.476  0.00  0.00    +0.000 C 
BRANCH  29  30
ATOM     30  C   UNL     1       0.732   2.629  19.680  0.00  0.00    +0.000 C 
BRANCH  30  32
ATOM     31  C   UNL     1       1.734   2.636  21.809  0.00  0.00    +0.000 C 
ATOM     32  O   UNL     1       0.934   3.370  20.888  0.00  0.00    +0.000 OA
ENDBRANCH  30  32
ENDBRANCH  29  30
ENDBRANCH  27  29
ENDBRANCH   1  27
TORSDOF 6
ENDMDL
