MODEL 1
REMARK VINA RESULT:      -7.6      0.000      0.000
REMARK  Name = 
REMARK  13 active torsions:
REMARK  status: ('A' for Active; 'I' for Inactive)
REMARK    1  A    between atoms: C_1  and  C_2
REMARK    2  A    between atoms: C_2  and  N_3
REMARK    3  A    between atoms: C_2  and  C_18
REMARK    4  A    between atoms: C_4  and  C_6
REMARK    5  A    between atoms: C_6  and  O_7
REMARK    6  A    between atoms: O_7  and  C_8
REMARK    7  A    between atoms: C_11  and  C_12
REMARK    8  A    between atoms: C_12  and  C_13
REMARK    9  A    between atoms: C_12  and  C_14
REMARK   10  A    between atoms: C_12  and  C_15
REMARK   11  A    between atoms: C_21  and  N_22
REMARK   12  A    between atoms: N_22  and  S_23
REMARK   13  A    between atoms: S_23  and  C_24
REMARK                            x       y       z     vdW  Elec       q    Type
REMARK                         _______ _______ _______ _____ _____    ______ ____
ROOT
ATOM      1  N   UNL     1       1.882   7.072  21.046  0.00  0.00    +0.000 N 
ATOM      2  C   UNL     1       1.497   8.384  21.044  0.00  0.00    +0.000 C 
ATOM      3  O   UNL     1       1.559   9.010  22.104  0.00  0.00    +0.000 OA
ATOM      4  H   UNL     1       2.219   6.764  21.949  0.00  0.00    +0.000 HD
ENDROOT
BRANCH   1   6
ATOM      5  C   UNL     1       1.490   4.702  20.486  0.00  0.00    +0.000 C 
ATOM      6  C   UNL     1       1.877   6.090  19.960  0.00  0.00    +0.000 C 
BRANCH   6   7
ATOM      7  C   UNL     1       3.146   6.169  19.112  0.00  0.00    +0.000 A 
ATOM      8  C   UNL     1       3.207   6.937  17.940  0.00  0.00    +0.000 A 
ATOM      9  C   UNL     1       4.370   6.975  17.168  0.00  0.00    +0.000 A 
ATOM     10  C   UNL     1       5.488   6.242  17.552  0.00  0.00    +0.000 A 
ATOM     11  C   UNL     1       5.462   5.482  18.715  0.00  0.00    +0.000 A 
ATOM     12  C   UNL     1       4.305   5.462  19.498  0.00  0.00    +0.000 A 
BRANCH  10  13
ATOM     13  N   UNL     1       6.675   6.360  16.778  0.00  0.00    +0.000 N 
ATOM     14  H   UNL     1       6.735   7.178  16.171  0.00  0.00    +0.000 HD
BRANCH  13  15
ATOM     15  S   UNL     1       7.160   4.979  15.921  0.00  0.00    +0.000 S 
ATOM     16  C   UNL     1       5.615   4.124  15.734  0.00  0.00    +0.000 C 
ATOM     17  O   UNL     1       7.665   5.347  14.618  0.00  0.00    +0.000 OA
ATOM     18  O   UNL     1       7.973   4.219  16.852  0.00  0.00    +0.000 OA
ENDBRANCH  13  15
ENDBRANCH  10  13
ENDBRANCH   6   7
ENDBRANCH   1   6
BRANCH   2  19
ATOM     19  C   UNL     1       1.009   9.036  19.754  0.00  0.00    +0.000 C 
BRANCH  19  20
ATOM     20  O   UNL     1       0.491  10.304  20.113  0.00  0.00    +0.000 OA
BRANCH  20  21
ATOM     21  C   UNL     1       1.179  11.411  19.715  0.00  0.00    +0.000 A 
ATOM     22  C   UNL     1       1.292  12.380  20.701  0.00  0.00    +0.000 A 
ATOM     23  C   UNL     1       1.977  13.572  20.462  0.00  0.00    +0.000 A 
ATOM     24  C   UNL     1       2.587  13.826  19.223  0.00  0.00    +0.000 A 
ATOM     25  C   UNL     1       2.499  12.818  18.247  0.00  0.00    +0.000 A 
ATOM     26  C   UNL     1       1.804  11.620  18.487  0.00  0.00    +0.000 A 
BRANCH  24  27
ATOM     27  C   UNL     1       3.320  15.148  18.932  0.00  0.00    +0.000 C 
ATOM     28  C   UNL     1       3.478  15.433  17.421  0.00  0.00    +0.000 C 
ATOM     29  C   UNL     1       2.545  16.330  19.548  0.00  0.00    +0.000 C 
ATOM     30  C   UNL     1       4.740  15.107  19.536  0.00  0.00    +0.000 C 
ENDBRANCH  24  27
ENDBRANCH  20  21
ENDBRANCH  19  20
ENDBRANCH   2  19
TORSDOF 8
ENDMDL
MODEL 2
REMARK VINA RESULT:      -7.6      2.651      4.213
REMARK  Name = 
REMARK  13 active torsions:
REMARK  status: ('A' for Active; 'I' for Inactive)
REMARK    1  A    between atoms: C_1  and  C_2
REMARK    2  A    between atoms: C_2  and  N_3
REMARK    3  A    between atoms: C_2  and  C_18
REMARK    4  A    between atoms: C_4  and  C_6
REMARK    5  A    between atoms: C_6  and  O_7
REMARK    6  A    between atoms: O_7  and  C_8
REMARK    7  A    between atoms: C_11  and  C_12
REMARK    8  A    between atoms: C_12  and  C_13
REMARK    9  A    between atoms: C_12  and  C_14
REMARK   10  A    between atoms: C_12  and  C_15
REMARK   11  A    between atoms: C_21  and  N_22
REMARK   12  A    between atoms: N_22  and  S_23
REMARK   13  A    between atoms: S_23  and  C_24
REMARK                            x       y       z     vdW  Elec       q    Type
REMARK                         _______ _______ _______ _____ _____    ______ ____
ROOT
ATOM      1  N   UNL     1       2.666   2.367  20.363  0.00  0.00    +0.000 N 
ATOM      2  C   UNL     1       1.910   3.220  21.118  0.00  0.00    +0.000 C 
ATOM      3  O   UNL     1       1.744   2.951  22.310  0.00  0.00    +0.000 OA
ATOM      4  H   UNL     1       3.046   1.599  20.902  0.00  0.00    +0.000 HD
ENDROOT
BRANCH   1   6
ATOM      5  C   UNL     1       3.640   1.098  18.486  0.00  0.00    +0.000 C 
ATOM      6  C   UNL     1       2.992   2.413  18.937  0.00  0.00    +0.000 C 
BRANCH   6   7
ATOM      7  C   UNL     1       3.725   3.700  18.559  0.00  0.00    +0.000 A 
ATOM      8  C   UNL     1       3.376   4.446  17.423  0.00  0.00    +0.000 A 
ATOM      9  C   UNL     1       4.076   5.605  17.084  0.00  0.00    +0.000 A 
ATOM     10  C   UNL     1       5.138   6.036  17.873  0.00  0.00    +0.000 A 
ATOM     11  C   UNL     1       5.499   5.325  19.011  0.00  0.00    +0.000 A 
ATOM     12  C   UNL     1       4.784   4.177  19.360  0.00  0.00    +0.000 A 
BRANCH  10  13
ATOM     13  N   UNL     1       5.783   7.257  17.535  0.00  0.00    +0.000 N 
ATOM     14  H   UNL     1       5.329   7.818  16.813  0.00  0.00    +0.000 HD
BRANCH  13  15
ATOM     15  S   UNL     1       7.449   7.176  17.229  0.00  0.00    +0.000 S 
ATOM     16  C   UNL     1       8.046   6.456  18.740  0.00  0.00    +0.000 C 
ATOM     17  O   UNL     1       7.715   6.274  16.131  0.00  0.00    +0.000 OA
ATOM     18  O   UNL     1       7.898   8.555  17.192  0.00  0.00    +0.000 OA
ENDBRANCH  13  15
ENDBRANCH  10  13
ENDBRANCH   6   7
ENDBRANCH   1   6
BRANCH   2  19
ATOM     19  C   UNL     1       1.298   4.464  20.484  0.00  0.00    +0.000 C 
BRANCH  19  20
ATOM     20  O   UNL     1       2.062   5.567  20.939  0.00  0.00    +0.000 OA
BRANCH  20  21
ATOM     21  C   UNL     1       1.734   6.806  20.476  0.00  0.00    +0.000 A 
ATOM     22  C   UNL     1       0.890   7.510  21.322  0.00  0.00    +0.000 A 
ATOM     23  C   UNL     1       0.467   8.801  21.004  0.00  0.00    +0.000 A 
ATOM     24  C   UNL     1       0.892   9.437  19.826  0.00  0.00    +0.000 A 
ATOM     25  C   UNL     1       1.779   8.727  18.999  0.00  0.00    +0.000 A 
ATOM     26  C   UNL     1       2.201   7.424  19.318  0.00  0.00    +0.000 A 
BRANCH  24  27
ATOM     27  C   UNL     1       0.411  10.850  19.444  0.00  0.00    +0.000 C 
ATOM     28  C   UNL     1       1.505  11.694  18.751  0.00  0.00    +0.000 C 
ATOM     29  C   UNL     1      -0.786  10.757  18.477  0.00  0.00    +0.000 C 
ATOM     30  C   UNL     1      -0.022  11.619  20.710  0.00  0.00    +0.000 C 
ENDBRANCH  24  27
ENDBRANCH  20  21
ENDBRANCH  19  20
ENDBRANCH   2  19
TORSDOF 8
ENDMDL
MODEL 3
REMARK VINA RESULT:      -7.5      2.896      4.081
REMARK  Name = 
REMARK  13 active torsions:
REMARK  status: ('A' for Active; 'I' for Inactive)
REMARK    1  A    between atoms: C_1  and  C_2
REMARK    2  A    between atoms: C_2  and  N_3
REMARK    3  A    between atoms: C_2  and  C_18
REMARK    4  A    between atoms: C_4  and  C_6
REMARK    5  A    between atoms: C_6  and  O_7
REMARK    6  A    between atoms: O_7  and  C_8
REMARK    7  A    between atoms: C_11  and  C_12
REMARK    8  A    between atoms: C_12  and  C_13
REMARK    9  A    between atoms: C_12  and  C_14
REMARK   10  A    between atoms: C_12  and  C_15
REMARK   11  A    between atoms: C_21  and  N_22
REMARK   12  A    between atoms: N_22  and  S_23
REMARK   13  A    between atoms: S_23  and  C_24
REMARK                            x       y       z     vdW  Elec       q    Type
REMARK                         _______ _______ _______ _____ _____    ______ ____
ROOT
ATOM      1  N   UNL     1       2.017   7.312  21.200  0.00  0.00    +0.000 N 
ATOM      2  C   UNL     1       1.469   8.545  21.427  0.00  0.00    +0.000 C 
ATOM      3  O   UNL     1       1.718   9.103  22.498  0.00  0.00    +0.000 OA
ATOM      4  H   UNL     1       2.616   7.004  21.956  0.00  0.00    +0.000 HD
ENDROOT
BRANCH   1   6
ATOM      5  C   UNL     1       1.377   5.033  20.509  0.00  0.00    +0.000 C 
ATOM      6  C   UNL     1       1.864   6.414  20.054  0.00  0.00    +0.000 C 
BRANCH   6   7
ATOM      7  C   UNL     1       3.090   6.439  19.141  0.00  0.00    +0.000 A 
ATOM      8  C   UNL     1       3.142   7.243  17.992  0.00  0.00    +0.000 A 
ATOM      9  C   UNL     1       4.262   7.231  17.159  0.00  0.00    +0.000 A 
ATOM     10  C   UNL     1       5.347   6.413  17.459  0.00  0.00    +0.000 A 
ATOM     11  C   UNL     1       5.330   5.616  18.597  0.00  0.00    +0.000 A 
ATOM     12  C   UNL     1       4.216   5.645  19.440  0.00  0.00    +0.000 A 
BRANCH  10  13
ATOM     13  N   UNL     1       6.497   6.479  16.625  0.00  0.00    +0.000 N 
ATOM     14  H   UNL     1       6.502   7.223  15.928  0.00  0.00    +0.000 HD
BRANCH  13  15
ATOM     15  S   UNL     1       6.998   5.025  15.910  0.00  0.00    +0.000 S 
ATOM     16  C   UNL     1       5.459   4.147  15.788  0.00  0.00    +0.000 C 
ATOM     17  O   UNL     1       7.517   5.270  14.583  0.00  0.00    +0.000 OA
ATOM     18  O   UNL     1       7.804   4.362  16.919  0.00  0.00    +0.000 OA
ENDBRANCH  13  15
ENDBRANCH  10  13
ENDBRANCH   6   7
ENDBRANCH   1   6
BRANCH   2  19
ATOM     19  C   UNL     1       0.579   9.193  20.372  0.00  0.00    +0.000 C 
BRANCH  19  20
ATOM     20  O   UNL     1       0.633  10.589  20.600  0.00  0.00    +0.000 OA
BRANCH  20  21
ATOM     21  C   UNL     1      -0.508  11.216  21.003  0.00  0.00    +0.000 A 
ATOM     22  C   UNL     1      -0.640  11.298  22.382  0.00  0.00    +0.000 A 
ATOM     23  C   UNL     1      -1.746  11.920  22.962  0.00  0.00    +0.000 A 
ATOM     24  C   UNL     1      -2.754  12.497  22.173  0.00  0.00    +0.000 A 
ATOM     25  C   UNL     1      -2.587  12.442  20.779  0.00  0.00    +0.000 A 
ATOM     26  C   UNL     1      -1.475  11.810  20.195  0.00  0.00    +0.000 A 
BRANCH  24  27
ATOM     27  C   UNL     1      -3.996  13.161  22.796  0.00  0.00    +0.000 C 
ATOM     28  C   UNL     1      -3.869  14.698  22.909  0.00  0.00    +0.000 C 
ATOM     29  C   UNL     1      -5.242  12.862  21.938  0.00  0.00    +0.000 C 
ATOM     30  C   UNL     1      -4.224  12.619  24.223  0.00  0.00    +0.000 C 
ENDBRANCH  24  27
ENDBRANCH  20  21
ENDBRANCH  19  20
ENDBRANCH   2  19
TORSDOF 8
ENDMDL
MODEL 4
REMARK VINA RESULT:      -7.4      4.392      7.985
REMARK  Name = 
REMARK  13 active torsions:
REMARK  status: ('A' for Active; 'I' for Inactive)
REMARK    1  A    between atoms: C_1  and  C_2
REMARK    2  A    between atoms: C_2  and  N_3
REMARK    3  A    between atoms: C_2  and  C_18
REMARK    4  A    between atoms: C_4  and  C_6
REMARK    5  A    between atoms: C_6  and  O_7
REMARK    6  A    between atoms: O_7  and  C_8
REMARK    7  A    between atoms: C_11  and  C_12
REMARK    8  A    between atoms: C_12  and  C_13
REMARK    9  A    between atoms: C_12  and  C_14
REMARK   10  A    between atoms: C_12  and  C_15
REMARK   11  A    between atoms: C_21  and  N_22
REMARK   12  A    between atoms: N_22  and  S_23
REMARK   13  A    between atoms: S_23  and  C_24
REMARK                            x       y       z     vdW  Elec       q    Type
REMARK                         _______ _______ _______ _____ _____    ______ ____
ROOT
ATOM      1  N   UNL     1       1.070   4.010  19.303  0.00  0.00    +0.000 N 
ATOM      2  C   UNL     1       1.020   2.665  19.060  0.00  0.00    +0.000 C 
ATOM      3  O   UNL     1       0.024   2.214  18.490  0.00  0.00    +0.000 OA
ATOM      4  H   UNL     1       0.264   4.504  18.941  0.00  0.00    +0.000 HD
ENDROOT
BRANCH   1   6
ATOM      5  C   UNL     1       2.193   4.405  21.462  0.00  0.00    +0.000 C 
ATOM      6  C   UNL     1       2.094   4.804  19.985  0.00  0.00    +0.000 C 
BRANCH   6   7
ATOM      7  C   UNL     1       1.952   6.296  19.689  0.00  0.00    +0.000 A 
ATOM      8  C   UNL     1       1.502   7.205  20.658  0.00  0.00    +0.000 A 
ATOM      9  C   UNL     1       1.357   8.560  20.357  0.00  0.00    +0.000 A 
ATOM     10  C   UNL     1       1.655   9.029  19.081  0.00  0.00    +0.000 A 
ATOM     11  C   UNL     1       2.115   8.155  18.104  0.00  0.00    +0.000 A 
ATOM     12  C   UNL     1       2.280   6.802  18.413  0.00  0.00    +0.000 A 
BRANCH  10  13
ATOM     13  N   UNL     1       1.560  10.425  18.832  0.00  0.00    +0.000 N 
ATOM     14  H   UNL     1       2.262  11.010  19.287  0.00  0.00    +0.000 HD
BRANCH  13  15
ATOM     15  S   UNL     1       0.027  11.126  19.018  0.00  0.00    +0.000 S 
ATOM     16  C   UNL     1      -0.950  10.124  17.924  0.00  0.00    +0.000 C 
ATOM     17  O   UNL     1      -0.444  10.954  20.374  0.00  0.00    +0.000 OA
ATOM     18  O   UNL     1       0.136  12.445  18.425  0.00  0.00    +0.000 OA
ENDBRANCH  13  15
ENDBRANCH  10  13
ENDBRANCH   6   7
ENDBRANCH   1   6
BRANCH   2  19
ATOM     19  C   UNL     1       2.176   1.767  19.489  0.00  0.00    +0.000 C 
BRANCH  19  20
ATOM     20  O   UNL     1       3.067   1.704  18.390  0.00  0.00    +0.000 OA
BRANCH  20  21
ATOM     21  C   UNL     1       3.951   2.729  18.224  0.00  0.00    +0.000 A 
ATOM     22  C   UNL     1       3.869   3.337  16.980  0.00  0.00    +0.000 A 
ATOM     23  C   UNL     1       4.695   4.411  16.650  0.00  0.00    +0.000 A 
ATOM     24  C   UNL     1       5.626   4.924  17.568  0.00  0.00    +0.000 A 
ATOM     25  C   UNL     1       5.669   4.324  18.839  0.00  0.00    +0.000 A 
ATOM     26  C   UNL     1       4.840   3.237  19.168  0.00  0.00    +0.000 A 
BRANCH  24  27
ATOM     27  C   UNL     1       6.566   6.090  17.210  0.00  0.00    +0.000 C 
ATOM     28  C   UNL     1       7.632   6.363  18.297  0.00  0.00    +0.000 C 
ATOM     29  C   UNL     1       7.313   5.782  15.897  0.00  0.00    +0.000 C 
ATOM     30  C   UNL     1       5.752   7.389  17.036  0.00  0.00    +0.000 C 
ENDBRANCH  24  27
ENDBRANCH  20  21
ENDBRANCH  19  20
ENDBRANCH   2  19
TORSDOF 8
ENDMDL
MODEL 5
REMARK VINA RESULT:      -7.3      3.949      8.613
REMARK  Name = 
REMARK  13 active torsions:
REMARK  status: ('A' for Active; 'I' for Inactive)
REMARK    1  A    between atoms: C_1  and  C_2
REMARK    2  A    between atoms: C_2  and  N_3
REMARK    3  A    between atoms: C_2  and  C_18
REMARK    4  A    between atoms: C_4  and  C_6
REMARK    5  A    between atoms: C_6  and  O_7
REMARK    6  A    between atoms: O_7  and  C_8
REMARK    7  A    between atoms: C_11  and  C_12
REMARK    8  A    between atoms: C_12  and  C_13
REMARK    9  A    between atoms: C_12  and  C_14
REMARK   10  A    between atoms: C_12  and  C_15
REMARK   11  A    between atoms: C_21  and  N_22
REMARK   12  A    between atoms: N_22  and  S_23
REMARK   13  A    between atoms: S_23  and  C_24
REMARK                            x       y       z     vdW  Elec       q    Type
REMARK                         _______ _______ _______ _____ _____    ______ ____
ROOT
ATOM      1  N   UNL     1       2.272   5.899  20.954  0.00  0.00    +0.000 N 
ATOM      2  C   UNL     1       1.943   4.586  21.150  0.00  0.00    +0.000 C 
ATOM      3  O   UNL     1       2.343   4.033  22.177  0.00  0.00    +0.000 OA
ATOM      4  H   UNL     1       2.799   6.290  21.724  0.00  0.00    +0.000 HD
ENDROOT
BRANCH   1   6
ATOM      5  C   UNL     1       3.166   6.864  18.868  0.00  0.00    +0.000 C 
ATOM      6  C   UNL     1       1.972   6.785  19.827  0.00  0.00    +0.000 C 
BRANCH   6   7
ATOM      7  C   UNL     1       1.376   8.114  20.287  0.00  0.00    +0.000 A 
ATOM      8  C   UNL     1       0.971   9.101  19.375  0.00  0.00    +0.000 A 
ATOM      9  C   UNL     1       0.452  10.318  19.819  0.00  0.00    +0.000 A 
ATOM     10  C   UNL     1       0.333  10.571  21.182  0.00  0.00    +0.000 A 
ATOM     11  C   UNL     1       0.713   9.608  22.109  0.00  0.00    +0.000 A 
ATOM     12  C   UNL     1       1.213   8.383  21.662  0.00  0.00    +0.000 A 
BRANCH  10  13
ATOM     13  N   UNL     1      -0.264  11.794  21.595  0.00  0.00    +0.000 N 
ATOM     14  H   UNL     1      -1.214  11.963  21.264  0.00  0.00    +0.000 HD
BRANCH  13  15
ATOM     15  S   UNL     1       0.667  13.197  21.394  0.00  0.00    +0.000 S 
ATOM     16  C   UNL     1      -0.096  13.921  19.963  0.00  0.00    +0.000 C 
ATOM     17  O   UNL     1       0.497  14.080  22.526  0.00  0.00    +0.000 OA
ATOM     18  O   UNL     1       1.983  12.728  21.000  0.00  0.00    +0.000 OA
ENDBRANCH  13  15
ENDBRANCH  10  13
ENDBRANCH   6   7
ENDBRANCH   1   6
BRANCH   2  19
ATOM     19  C   UNL     1       1.103   3.846  20.114  0.00  0.00    +0.000 C 
BRANCH  19  20
ATOM     20  O   UNL     1       1.952   2.882  19.520  0.00  0.00    +0.000 OA
BRANCH  20  21
ATOM     21  C   UNL     1       2.912   3.320  18.656  0.00  0.00    +0.000 A 
ATOM     22  C   UNL     1       4.163   3.459  19.239  0.00  0.00    +0.000 A 
ATOM     23  C   UNL     1       5.260   3.887  18.492  0.00  0.00    +0.000 A 
ATOM     24  C   UNL     1       5.141   4.177  17.123  0.00  0.00    +0.000 A 
ATOM     25  C   UNL     1       3.876   3.993  16.537  0.00  0.00    +0.000 A 
ATOM     26  C   UNL     1       2.770   3.567  17.293  0.00  0.00    +0.000 A 
BRANCH  24  27
ATOM     27  C   UNL     1       6.334   4.680  16.290  0.00  0.00    +0.000 C 
ATOM     28  C   UNL     1       6.492   3.931  14.946  0.00  0.00    +0.000 C 
ATOM     29  C   UNL     1       6.160   6.178  15.968  0.00  0.00    +0.000 C 
ATOM     30  C   UNL     1       7.647   4.481  17.076  0.00  0.00    +0.000 C 
ENDBRANCH  24  27
ENDBRANCH  20  21
ENDBRANCH  19  20
ENDBRANCH   2  19
TORSDOF 8
ENDMDL
MODEL 6
REMARK VINA RESULT:      -7.3      3.540      5.963
REMARK  Name = 
REMARK  13 active torsions:
REMARK  status: ('A' for Active; 'I' for Inactive)
REMARK    1  A    between atoms: C_1  and  C_2
REMARK    2  A    between atoms: C_2  and  N_3
REMARK    3  A    between atoms: C_2  and  C_18
REMARK    4  A    between atoms: C_4  and  C_6
REMARK    5  A    between atoms: C_6  and  O_7
REMARK    6  A    between atoms: O_7  and  C_8
REMARK    7  A    between atoms: C_11  and  C_12
REMARK    8  A    between atoms: C_12  and  C_13
REMARK    9  A    between atoms: C_12  and  C_14
REMARK   10  A    between atoms: C_12  and  C_15
REMARK   11  A    between atoms: C_21  and  N_22
REMARK   12  A    between atoms: N_22  and  S_23
REMARK   13  A    between atoms: S_23  and  C_24
REMARK                            x       y       z     vdW  Elec       q    Type
REMARK                         _______ _______ _______ _____ _____    ______ ____
ROOT
ATOM      1  N   UNL     1       6.633   5.652  16.543  0.00  0.00    +0.000 N 
ATOM      2  C   UNL     1       6.002   6.853  16.718  0.00  0.00    +0.000 C 
ATOM      3  O   UNL     1       6.677   7.816  17.089  0.00  0.00    +0.000 OA
ATOM      4  H   UNL     1       7.629   5.705  16.714  0.00  0.00    +0.000 HD
ENDROOT
BRANCH   1   6
ATOM      5  C   UNL     1       5.505   4.410  14.736  0.00  0.00    +0.000 C 
ATOM      6  C   UNL     1       6.086   4.351  16.154  0.00  0.00    +0.000 C 
BRANCH   6   7
ATOM      7  C   UNL     1       5.183   3.763  17.238  0.00  0.00    +0.000 A 
ATOM      8  C   UNL     1       3.969   3.131  16.929  0.00  0.00    +0.000 A 
ATOM      9  C   UNL     1       3.149   2.623  17.938  0.00  0.00    +0.000 A 
ATOM     10  C   UNL     1       3.526   2.742  19.272  0.00  0.00    +0.000 A 
ATOM     11  C   UNL     1       4.729   3.351  19.608  0.00  0.00    +0.000 A 
ATOM     12  C   UNL     1       5.559   3.841  18.595  0.00  0.00    +0.000 A 
BRANCH  10  13
ATOM     13  N   UNL     1       2.699   2.152  20.266  0.00  0.00    +0.000 N 
ATOM     14  H   UNL     1       2.119   1.370  19.960  0.00  0.00    +0.000 HD
BRANCH  13  15
ATOM     15  S   UNL     1       1.771   3.215  21.208  0.00  0.00    +0.000 S 
ATOM     16  C   UNL     1       0.540   3.734  20.037  0.00  0.00    +0.000 C 
ATOM     17  O   UNL     1       1.132   2.501  22.290  0.00  0.00    +0.000 OA
ATOM     18  O   UNL     1       2.637   4.350  21.467  0.00  0.00    +0.000 OA
ENDBRANCH  13  15
ENDBRANCH  10  13
ENDBRANCH   6   7
ENDBRANCH   1   6
BRANCH   2  19
ATOM     19  C   UNL     1       4.505   6.975  16.455  0.00  0.00    +0.000 C 
BRANCH  19  20
ATOM     20  O   UNL     1       3.852   6.580  17.647  0.00  0.00    +0.000 OA
BRANCH  20  21
ATOM     21  C   UNL     1       2.970   7.453  18.213  0.00  0.00    +0.000 A 
ATOM     22  C   UNL     1       2.566   7.086  19.488  0.00  0.00    +0.000 A 
ATOM     23  C   UNL     1       1.674   7.876  20.214  0.00  0.00    +0.000 A 
ATOM     24  C   UNL     1       1.168   9.074  19.687  0.00  0.00    +0.000 A 
ATOM     25  C   UNL     1       1.617   9.453  18.411  0.00  0.00    +0.000 A 
ATOM     26  C   UNL     1       2.511   8.654  17.677  0.00  0.00    +0.000 A 
BRANCH  24  27
ATOM     27  C   UNL     1       0.160   9.943  20.463  0.00  0.00    +0.000 C 
ATOM     28  C   UNL     1       0.766  11.274  20.963  0.00  0.00    +0.000 C 
ATOM     29  C   UNL     1      -1.041  10.292  19.560  0.00  0.00    +0.000 C 
ATOM     30  C   UNL     1      -0.348   9.180  21.705  0.00  0.00    +0.000 C 
ENDBRANCH  24  27
ENDBRANCH  20  21
ENDBRANCH  19  20
ENDBRANCH   2  19
TORSDOF 8
ENDMDL
MODEL 7
REMARK VINA RESULT:      -7.3      3.934      8.676
REMARK  Name = 
REMARK  13 active torsions:
REMARK  status: ('A' for Active; 'I' for Inactive)
REMARK    1  A    between atoms: C_1  and  C_2
REMARK    2  A    between atoms: C_2  and  N_3
REMARK    3  A    between atoms: C_2  and  C_18
REMARK    4  A    between atoms: C_4  and  C_6
REMARK    5  A    between atoms: C_6  and  O_7
REMARK    6  A    between atoms: O_7  and  C_8
REMARK    7  A    between atoms: C_11  and  C_12
REMARK    8  A    between atoms: C_12  and  C_13
REMARK    9  A    between atoms: C_12  and  C_14
REMARK   10  A    between atoms: C_12  and  C_15
REMARK   11  A    between atoms: C_21  and  N_22
REMARK   12  A    between atoms: N_22  and  S_23
REMARK   13  A    between atoms: S_23  and  C_24
REMARK                            x       y       z     vdW  Elec       q    Type
REMARK                         _______ _______ _______ _____ _____    ______ ____
ROOT
ATOM      1  N   UNL     1       2.250   5.939  20.989  0.00  0.00    +0.000 N 
ATOM      2  C   UNL     1       1.927   4.625  21.187  0.00  0.00    +0.000 C 
ATOM      3  O   UNL     1       2.358   4.066  22.199  0.00  0.00    +0.000 OA
ATOM      4  H   UNL     1       2.801   6.325  21.746  0.00  0.00    +0.000 HD
ENDROOT
BRANCH   1   6
ATOM      5  C   UNL     1       3.075   6.903  18.875  0.00  0.00    +0.000 C 
ATOM      6  C   UNL     1       1.917   6.831  19.877  0.00  0.00    +0.000 C 
BRANCH   6   7
ATOM      7  C   UNL     1       1.351   8.165  20.364  0.00  0.00    +0.000 A 
ATOM      8  C   UNL     1       1.165   8.438  21.727  0.00  0.00    +0.000 A 
ATOM      9  C   UNL     1       0.623   9.654  22.147  0.00  0.00    +0.000 A 
ATOM     10  C   UNL     1       0.254  10.615  21.212  0.00  0.00    +0.000 A 
ATOM     11  C   UNL     1       0.438  10.378  19.855  0.00  0.00    +0.000 A 
ATOM     12  C   UNL     1       1.001   9.169  19.437  0.00  0.00    +0.000 A 
BRANCH  10  13
ATOM     13  N   UNL     1      -0.231  11.867  21.680  0.00  0.00    +0.000 N 
ATOM     14  H   UNL     1      -1.199  12.089  21.444  0.00  0.00    +0.000 HD
BRANCH  13  15
ATOM     15  S   UNL     1       0.751  13.217  21.385  0.00  0.00    +0.000 S 
ATOM     16  C   UNL     1       0.034  13.850  19.888  0.00  0.00    +0.000 C 
ATOM     17  O   UNL     1       0.595  14.193  22.440  0.00  0.00    +0.000 OA
ATOM     18  O   UNL     1       2.055  12.675  21.052  0.00  0.00    +0.000 OA
ENDBRANCH  13  15
ENDBRANCH  10  13
ENDBRANCH   6   7
ENDBRANCH   1   6
BRANCH   2  19
ATOM     19  C   UNL     1       1.055   3.891  20.174  0.00  0.00    +0.000 C 
BRANCH  19  20
ATOM     20  O   UNL     1       1.882   2.918  19.561  0.00  0.00    +0.000 OA
BRANCH  20  21
ATOM     21  C   UNL     1       2.821   3.346  18.671  0.00  0.00    +0.000 A 
ATOM     22  C   UNL     1       4.101   3.409  19.201  0.00  0.00    +0.000 A 
ATOM     23  C   UNL     1       5.184   3.816  18.421  0.00  0.00    +0.000 A 
ATOM     24  C   UNL     1       5.018   4.161  17.070  0.00  0.00    +0.000 A 
ATOM     25  C   UNL     1       3.722   4.054  16.536  0.00  0.00    +0.000 A 
ATOM     26  C   UNL     1       2.632   3.649  17.325  0.00  0.00    +0.000 A 
BRANCH  24  27
ATOM     27  C   UNL     1       6.196   4.642  16.201  0.00  0.00    +0.000 C 
ATOM     28  C   UNL     1       6.046   6.109  15.737  0.00  0.00    +0.000 C 
ATOM     29  C   UNL     1       7.514   4.539  16.995  0.00  0.00    +0.000 C 
ATOM     30  C   UNL     1       6.302   3.773  14.930  0.00  0.00    +0.000 C 
ENDBRANCH  24  27
ENDBRANCH  20  21
ENDBRANCH  19  20
ENDBRANCH   2  19
TORSDOF 8
ENDMDL
MODEL 8
REMARK VINA RESULT:      -7.3      4.254      7.939
REMARK  Name = 
REMARK  13 active torsions:
REMARK  status: ('A' for Active; 'I' for Inactive)
REMARK    1  A    between atoms: C_1  and  C_2
REMARK    2  A    between atoms: C_2  and  N_3
REMARK    3  A    between atoms: C_2  and  C_18
REMARK    4  A    between atoms: C_4  and  C_6
REMARK    5  A    between atoms: C_6  and  O_7
REMARK    6  A    between atoms: O_7  and  C_8
REMARK    7  A    between atoms: C_11  and  C_12
REMARK    8  A    between atoms: C_12  and  C_13
REMARK    9  A    between atoms: C_12  and  C_14
REMARK   10  A    between atoms: C_12  and  C_15
REMARK   11  A    between atoms: C_21  and  N_22
REMARK   12  A    between atoms: N_22  and  S_23
REMARK   13  A    between atoms: S_23  and  C_24
REMARK                            x       y       z     vdW  Elec       q    Type
REMARK                         _______ _______ _______ _____ _____    ______ ____
ROOT
ATOM      1  N   UNL     1       1.081   4.054  19.329  0.00  0.00    +0.000 N 
ATOM      2  C   UNL     1       1.024   2.711  19.076  0.00  0.00    +0.000 C 
ATOM      3  O   UNL     1       0.027   2.269  18.500  0.00  0.00    +0.000 OA
ATOM      4  H   UNL     1       0.278   4.555  18.968  0.00  0.00    +0.000 HD
ENDROOT
BRANCH   1   6
ATOM      5  C   UNL     1       2.241   4.385  21.480  0.00  0.00    +0.000 C 
ATOM      6  C   UNL     1       2.106   4.837  20.021  0.00  0.00    +0.000 C 
BRANCH   6   7
ATOM      7  C   UNL     1       1.937   6.337  19.783  0.00  0.00    +0.000 A 
ATOM      8  C   UNL     1       1.420   7.191  20.769  0.00  0.00    +0.000 A 
ATOM      9  C   UNL     1       1.251   8.554  20.521  0.00  0.00    +0.000 A 
ATOM     10  C   UNL     1       1.593   9.086  19.282  0.00  0.00    +0.000 A 
ATOM     11  C   UNL     1       2.120   8.268  18.290  0.00  0.00    +0.000 A 
ATOM     12  C   UNL     1       2.307   6.908  18.547  0.00  0.00    +0.000 A 
BRANCH  10  13
ATOM     13  N   UNL     1       1.471  10.489  19.089  0.00  0.00    +0.000 N 
ATOM     14  H   UNL     1       1.967  11.078  19.759  0.00  0.00    +0.000 HD
BRANCH  13  15
ATOM     15  S   UNL     1      -0.098  11.089  18.857  0.00  0.00    +0.000 S 
ATOM     16  C   UNL     1      -0.693  11.168  20.529  0.00  0.00    +0.000 C 
ATOM     17  O   UNL     1      -0.050  12.423  18.302  0.00  0.00    +0.000 OA
ATOM     18  O   UNL     1      -0.818  10.024  18.185  0.00  0.00    +0.000 OA
ENDBRANCH  13  15
ENDBRANCH  10  13
ENDBRANCH   6   7
ENDBRANCH   1   6
BRANCH   2  19
ATOM     19  C   UNL     1       2.173   1.804  19.503  0.00  0.00    +0.000 C 
BRANCH  19  20
ATOM     20  O   UNL     1       3.065   1.738  18.405  0.00  0.00    +0.000 OA
BRANCH  20  21
ATOM     21  C   UNL     1       3.953   2.760  18.240  0.00  0.00    +0.000 A 
ATOM     22  C   UNL     1       3.853   3.390  17.009  0.00  0.00    +0.000 A 
ATOM     23  C   UNL     1       4.681   4.465  16.682  0.00  0.00    +0.000 A 
ATOM     24  C   UNL     1       5.631   4.954  17.592  0.00  0.00    +0.000 A 
ATOM     25  C   UNL     1       5.694   4.331  18.851  0.00  0.00    +0.000 A 
ATOM     26  C   UNL     1       4.863   3.245  19.177  0.00  0.00    +0.000 A 
BRANCH  24  27
ATOM     27  C   UNL     1       6.574   6.119  17.237  0.00  0.00    +0.000 C 
ATOM     28  C   UNL     1       7.350   5.891  15.920  0.00  0.00    +0.000 C 
ATOM     29  C   UNL     1       5.766   7.423  17.079  0.00  0.00    +0.000 C 
ATOM     30  C   UNL     1       7.622   6.308  18.354  0.00  0.00    +0.000 C 
ENDBRANCH  24  27
ENDBRANCH  20  21
ENDBRANCH  19  20
ENDBRANCH   2  19
TORSDOF 8
ENDMDL
MODEL 9
REMARK VINA RESULT:      -7.3      5.385     10.530
REMARK  Name = 
REMARK  13 active torsions:
REMARK  status: ('A' for Active; 'I' for Inactive)
REMARK    1  A    between atoms: C_1  and  C_2
REMARK    2  A    between atoms: C_2  and  N_3
REMARK    3  A    between atoms: C_2  and  C_18
REMARK    4  A    between atoms: C_4  and  C_6
REMARK    5  A    between atoms: C_6  and  O_7
REMARK    6  A    between atoms: O_7  and  C_8
REMARK    7  A    between atoms: C_11  and  C_12
REMARK    8  A    between atoms: C_12  and  C_13
REMARK    9  A    between atoms: C_12  and  C_14
REMARK   10  A    between atoms: C_12  and  C_15
REMARK   11  A    between atoms: C_21  and  N_22
REMARK   12  A    between atoms: N_22  and  S_23
REMARK   13  A    between atoms: S_23  and  C_24
REMARK                            x       y       z     vdW  Elec       q    Type
REMARK                         _______ _______ _______ _____ _____    ______ ____
ROOT
ATOM      1  N   UNL     1      -0.319  10.809  17.883  0.00  0.00    +0.000 N 
ATOM      2  C   UNL     1       0.758  10.467  18.653  0.00  0.00    +0.000 C 
ATOM      3  O   UNL     1       1.849  10.976  18.387  0.00  0.00    +0.000 OA
ATOM      4  H   UNL     1      -0.092  11.496  17.175  0.00  0.00    +0.000 HD
ENDROOT
BRANCH   1   6
ATOM      5  C   UNL     1      -2.197   9.923  16.553  0.00  0.00    +0.000 C 
ATOM      6  C   UNL     1      -1.704  10.339  17.944  0.00  0.00    +0.000 C 
BRANCH   6   7
ATOM      7  C   UNL     1      -2.600  11.298  18.727  0.00  0.00    +0.000 A 
ATOM      8  C   UNL     1      -2.101  12.095  19.769  0.00  0.00    +0.000 A 
ATOM      9  C   UNL     1      -2.943  12.946  20.487  0.00  0.00    +0.000 A 
ATOM     10  C   UNL     1      -4.297  13.012  20.178  0.00  0.00    +0.000 A 
ATOM     11  C   UNL     1      -4.818  12.245  19.143  0.00  0.00    +0.000 A 
ATOM     12  C   UNL     1      -3.970  11.409  18.412  0.00  0.00    +0.000 A 
BRANCH  10  13
ATOM     13  N   UNL     1      -5.110  13.940  20.885  0.00  0.00    +0.000 N 
ATOM     14  H   UNL     1      -4.743  14.890  20.961  0.00  0.00    +0.000 HD
BRANCH  13  15
ATOM     15  S   UNL     1      -5.700  13.436  22.393  0.00  0.00    +0.000 S 
ATOM     16  C   UNL     1      -7.051  14.564  22.634  0.00  0.00    +0.000 C 
ATOM     17  O   UNL     1      -6.212  12.087  22.307  0.00  0.00    +0.000 OA
ATOM     18  O   UNL     1      -4.662  13.784  23.345  0.00  0.00    +0.000 OA
ENDBRANCH  13  15
ENDBRANCH  10  13
ENDBRANCH   6   7
ENDBRANCH   1   6
BRANCH   2  19
ATOM     19  C   UNL     1       0.593   9.481  19.805  0.00  0.00    +0.000 C 
BRANCH  19  20
ATOM     20  O   UNL     1       1.854   8.865  19.994  0.00  0.00    +0.000 OA
BRANCH  20  21
ATOM     21  C   UNL     1       1.994   7.565  19.609  0.00  0.00    +0.000 A 
ATOM     22  C   UNL     1       1.629   6.653  20.589  0.00  0.00    +0.000 A 
ATOM     23  C   UNL     1       1.700   5.280  20.355  0.00  0.00    +0.000 A 
ATOM     24  C   UNL     1       2.129   4.773  19.117  0.00  0.00    +0.000 A 
ATOM     25  C   UNL     1       2.457   5.709  18.121  0.00  0.00    +0.000 A 
ATOM     26  C   UNL     1       2.390   7.093  18.360  0.00  0.00    +0.000 A 
BRANCH  24  27
ATOM     27  C   UNL     1       2.243   3.261  18.851  0.00  0.00    +0.000 C 
ATOM     28  C   UNL     1       0.884   2.528  18.932  0.00  0.00    +0.000 C 
ATOM     29  C   UNL     1       2.819   3.014  17.443  0.00  0.00    +0.000 C 
ATOM     30  C   UNL     1       3.172   2.610  19.898  0.00  0.00    +0.000 C 
ENDBRANCH  24  27
ENDBRANCH  20  21
ENDBRANCH  19  20
ENDBRANCH   2  19
TORSDOF 8
ENDMDL
