MODEL 1
REMARK VINA RESULT:      -8.0      0.000      0.000
REMARK  Name = 
REMARK  3 active torsions:
REMARK  status: ('A' for Active; 'I' for Inactive)
REMARK    1  A    between atoms: C_1  and  C_2
REMARK    2  A    between atoms: C_7  and  C_8
REMARK    3  A    between atoms: C_13  and  C_14
REMARK                            x       y       z     vdW  Elec       q    Type
REMARK                         _______ _______ _______ _____ _____    ______ ____
ROOT
ATOM      1  C   UNL     1       3.941   5.370  18.654  0.00  0.00    +0.000 A 
ATOM      2  C   UNL     1       3.513   4.572  19.741  0.00  0.00    +0.000 A 
ATOM      3  C   UNL     1       2.454   4.925  20.579  0.00  0.00    +0.000 A 
ATOM      4  C   UNL     1       1.806   6.145  20.424  0.00  0.00    +0.000 A 
ATOM      5  C   UNL     1       2.268   7.031  19.436  0.00  0.00    +0.000 A 
ATOM      6  C   UNL     1       1.947   8.357  19.006  0.00  0.00    +0.000 A 
ATOM      7  N   UNL     1       2.697   8.695  17.945  0.00  0.00    +0.000 NA
ATOM      8  O   UNL     1       3.505   7.609  17.677  0.00  0.00    +0.000 OA
ATOM      9  C   UNL     1       3.280   6.614  18.583  0.00  0.00    +0.000 A 
ENDROOT
BRANCH   1  16
ATOM     10  C   UNL     1       6.995   5.615  19.189  0.00  0.00    +0.000 C 
ATOM     11  C   UNL     1       6.387   5.059  17.928  0.00  0.00    +0.000 A 
ATOM     12  C   UNL     1       7.290   4.634  16.936  0.00  0.00    +0.000 A 
ATOM     13  C   UNL     1       6.805   4.091  15.760  0.00  0.00    +0.000 A 
ATOM     14  N   UNL     1       5.497   3.965  15.494  0.00  0.00    +0.000 NA
ATOM     15  C   UNL     1       4.638   4.397  16.450  0.00  0.00    +0.000 A 
ATOM     16  C   UNL     1       4.993   4.953  17.692  0.00  0.00    +0.000 A 
ENDBRANCH   1  16
BRANCH   6  17
ATOM     17  C   UNL     1       0.940   9.268  19.557  0.00  0.00    +0.000 A 
ATOM     18  C   UNL     1       0.095  10.008  18.712  0.00  0.00    +0.000 A 
ATOM     19  C   UNL     1      -0.780  10.961  19.235  0.00  0.00    +0.000 A 
ATOM     20  C   UNL     1      -0.844  11.149  20.611  0.00  0.00    +0.000 A 
ATOM     21  F   UNL     1      -1.668  12.077  21.109  0.00  0.00    +0.000 F 
ATOM     22  C   UNL     1      -0.059  10.388  21.469  0.00  0.00    +0.000 A 
ATOM     23  C   UNL     1       0.831   9.448  20.944  0.00  0.00    +0.000 A 
ENDBRANCH   6  17
TORSDOF 2
ENDMDL
MODEL 2
REMARK VINA RESULT:      -8.0      1.146      1.856
REMARK  Name = 
REMARK  3 active torsions:
REMARK  status: ('A' for Active; 'I' for Inactive)
REMARK    1  A    between atoms: C_1  and  C_2
REMARK    2  A    between atoms: C_7  and  C_8
REMARK    3  A    between atoms: C_13  and  C_14
REMARK                            x       y       z     vdW  Elec       q    Type
REMARK                         _______ _______ _______ _____ _____    ______ ____
ROOT
ATOM      1  C   UNL     1       3.913   6.057  18.348  0.00  0.00    +0.000 A 
ATOM      2  C   UNL     1       3.640   5.404  19.573  0.00  0.00    +0.000 A 
ATOM      3  C   UNL     1       2.625   5.803  20.444  0.00  0.00    +0.000 A 
ATOM      4  C   UNL     1       1.869   6.939  20.175  0.00  0.00    +0.000 A 
ATOM      5  C   UNL     1       2.176   7.696  19.032  0.00  0.00    +0.000 A 
ATOM      6  C   UNL     1       1.714   8.916  18.447  0.00  0.00    +0.000 A 
ATOM      7  N   UNL     1       2.346   9.142  17.284  0.00  0.00    +0.000 NA
ATOM      8  O   UNL     1       3.217   8.087  17.103  0.00  0.00    +0.000 OA
ATOM      9  C   UNL     1       3.147   7.227  18.159  0.00  0.00    +0.000 A 
ENDROOT
BRANCH   1  16
ATOM     10  C   UNL     1       3.634   3.422  16.721  0.00  0.00    +0.000 C 
ATOM     11  C   UNL     1       4.795   4.374  16.617  0.00  0.00    +0.000 A 
ATOM     12  C   UNL     1       5.816   4.018  15.716  0.00  0.00    +0.000 A 
ATOM     13  C   UNL     1       6.903   4.856  15.550  0.00  0.00    +0.000 A 
ATOM     14  N   UNL     1       7.058   6.001  16.229  0.00  0.00    +0.000 NA
ATOM     15  C   UNL     1       6.077   6.322  17.109  0.00  0.00    +0.000 A 
ATOM     16  C   UNL     1       4.916   5.573  17.364  0.00  0.00    +0.000 A 
ENDBRANCH   1  16
BRANCH   6  17
ATOM     17  C   UNL     1       0.682   9.827  18.950  0.00  0.00    +0.000 A 
ATOM     18  C   UNL     1       0.786  10.401  20.229  0.00  0.00    +0.000 A 
ATOM     19  C   UNL     1      -0.254  11.171  20.751  0.00  0.00    +0.000 A 
ATOM     20  C   UNL     1      -1.387  11.406  19.980  0.00  0.00    +0.000 A 
ATOM     21  F   UNL     1      -2.391  12.126  20.489  0.00  0.00    +0.000 F 
ATOM     22  C   UNL     1      -1.486  10.895  18.691  0.00  0.00    +0.000 A 
ATOM     23  C   UNL     1      -0.454  10.108  18.176  0.00  0.00    +0.000 A 
ENDBRANCH   6  17
TORSDOF 2
ENDMDL
MODEL 3
REMARK VINA RESULT:      -8.0      0.429      1.084
REMARK  Name = 
REMARK  3 active torsions:
REMARK  status: ('A' for Active; 'I' for Inactive)
REMARK    1  A    between atoms: C_1  and  C_2
REMARK    2  A    between atoms: C_7  and  C_8
REMARK    3  A    between atoms: C_13  and  C_14
REMARK                            x       y       z     vdW  Elec       q    Type
REMARK                         _______ _______ _______ _____ _____    ______ ____
ROOT
ATOM      1  C   UNL     1       3.974   5.551  18.539  0.00  0.00    +0.000 A 
ATOM      2  C   UNL     1       3.546   4.847  19.689  0.00  0.00    +0.000 A 
ATOM      3  C   UNL     1       2.478   5.261  20.487  0.00  0.00    +0.000 A 
ATOM      4  C   UNL     1       1.819   6.456  20.222  0.00  0.00    +0.000 A 
ATOM      5  C   UNL     1       2.279   7.257  19.163  0.00  0.00    +0.000 A 
ATOM      6  C   UNL     1       1.949   8.537  18.617  0.00  0.00    +0.000 A 
ATOM      7  N   UNL     1       2.701   8.788  17.534  0.00  0.00    +0.000 NA
ATOM      8  O   UNL     1       3.522   7.691  17.367  0.00  0.00    +0.000 OA
ATOM      9  C   UNL     1       3.301   6.777  18.355  0.00  0.00    +0.000 A 
ENDROOT
BRANCH   1  16
ATOM     10  C   UNL     1       7.014   5.631  19.188  0.00  0.00    +0.000 C 
ATOM     11  C   UNL     1       6.424   5.093  17.912  0.00  0.00    +0.000 A 
ATOM     12  C   UNL     1       7.338   4.604  16.960  0.00  0.00    +0.000 A 
ATOM     13  C   UNL     1       6.868   4.073  15.773  0.00  0.00    +0.000 A 
ATOM     14  N   UNL     1       5.566   4.017  15.458  0.00  0.00    +0.000 NA
ATOM     15  C   UNL     1       4.698   4.510  16.375  0.00  0.00    +0.000 A 
ATOM     16  C   UNL     1       5.036   5.062  17.623  0.00  0.00    +0.000 A 
ENDBRANCH   1  16
BRANCH   6  17
ATOM     17  C   UNL     1       0.928   9.481  19.080  0.00  0.00    +0.000 A 
ATOM     18  C   UNL     1       0.877   9.889  20.423  0.00  0.00    +0.000 A 
ATOM     19  C   UNL     1      -0.165  10.694  20.886  0.00  0.00    +0.000 A 
ATOM     20  C   UNL     1      -1.140  11.129  19.996  0.00  0.00    +0.000 A 
ATOM     21  F   UNL     1      -2.149  11.883  20.444  0.00  0.00    +0.000 F 
ATOM     22  C   UNL     1      -1.078  10.785  18.650  0.00  0.00    +0.000 A 
ATOM     23  C   UNL     1      -0.045   9.964  18.192  0.00  0.00    +0.000 A 
ENDBRANCH   6  17
TORSDOF 2
ENDMDL
MODEL 4
REMARK VINA RESULT:      -7.9      1.051      1.513
REMARK  Name = 
REMARK  3 active torsions:
REMARK  status: ('A' for Active; 'I' for Inactive)
REMARK    1  A    between atoms: C_1  and  C_2
REMARK    2  A    between atoms: C_7  and  C_8
REMARK    3  A    between atoms: C_13  and  C_14
REMARK                            x       y       z     vdW  Elec       q    Type
REMARK                         _______ _______ _______ _____ _____    ______ ____
ROOT
ATOM      1  C   UNL     1       3.957   5.941  18.408  0.00  0.00    +0.000 A 
ATOM      2  C   UNL     1       3.688   5.247  19.611  0.00  0.00    +0.000 A 
ATOM      3  C   UNL     1       2.671   5.612  20.494  0.00  0.00    +0.000 A 
ATOM      4  C   UNL     1       1.907   6.751  20.262  0.00  0.00    +0.000 A 
ATOM      5  C   UNL     1       2.210   7.547  19.144  0.00  0.00    +0.000 A 
ATOM      6  C   UNL     1       1.741   8.783  18.598  0.00  0.00    +0.000 A 
ATOM      7  N   UNL     1       2.371   9.049  17.443  0.00  0.00    +0.000 NA
ATOM      8  O   UNL     1       3.249   8.006  17.229  0.00  0.00    +0.000 OA
ATOM      9  C   UNL     1       3.185   7.112  18.257  0.00  0.00    +0.000 A 
ENDROOT
BRANCH   1  16
ATOM     10  C   UNL     1       3.710   3.342  16.719  0.00  0.00    +0.000 C 
ATOM     11  C   UNL     1       4.857   4.313  16.634  0.00  0.00    +0.000 A 
ATOM     12  C   UNL     1       5.879   3.993  15.721  0.00  0.00    +0.000 A 
ATOM     13  C   UNL     1       6.954   4.851  15.571  0.00  0.00    +0.000 A 
ATOM     14  N   UNL     1       7.095   5.981  16.277  0.00  0.00    +0.000 NA
ATOM     15  C   UNL     1       6.113   6.268  17.168  0.00  0.00    +0.000 A 
ATOM     16  C   UNL     1       4.963   5.496  17.409  0.00  0.00    +0.000 A 
ENDBRANCH   1  16
BRANCH   6  17
ATOM     17  C   UNL     1       0.703   9.670  19.130  0.00  0.00    +0.000 A 
ATOM     18  C   UNL     1      -0.370  10.090  18.327  0.00  0.00    +0.000 A 
ATOM     19  C   UNL     1      -1.290  11.028  18.799  0.00  0.00    +0.000 A 
ATOM     20  C   UNL     1      -1.164  11.519  20.093  0.00  0.00    +0.000 A 
ATOM     21  F   UNL     1      -2.033  12.433  20.536  0.00  0.00    +0.000 F 
ATOM     22  C   UNL     1      -0.143  11.075  20.925  0.00  0.00    +0.000 A 
ATOM     23  C   UNL     1       0.789  10.151  20.446  0.00  0.00    +0.000 A 
ENDBRANCH   6  17
TORSDOF 2
ENDMDL
MODEL 5
REMARK VINA RESULT:      -7.8      2.250      3.470
REMARK  Name = 
REMARK  3 active torsions:
REMARK  status: ('A' for Active; 'I' for Inactive)
REMARK    1  A    between atoms: C_1  and  C_2
REMARK    2  A    between atoms: C_7  and  C_8
REMARK    3  A    between atoms: C_13  and  C_14
REMARK                            x       y       z     vdW  Elec       q    Type
REMARK                         _______ _______ _______ _____ _____    ______ ____
ROOT
ATOM      1  C   UNL     1       2.756   7.009  18.667  0.00  0.00    +0.000 A 
ATOM      2  C   UNL     1       2.873   7.867  17.548  0.00  0.00    +0.000 A 
ATOM      3  C   UNL     1       2.360   9.165  17.521  0.00  0.00    +0.000 A 
ATOM      4  C   UNL     1       1.626   9.658  18.594  0.00  0.00    +0.000 A 
ATOM      5  C   UNL     1       1.376   8.807  19.684  0.00  0.00    +0.000 A 
ATOM      6  C   UNL     1       0.638   8.886  20.907  0.00  0.00    +0.000 A 
ATOM      7  N   UNL     1       0.799   7.759  21.619  0.00  0.00    +0.000 NA
ATOM      8  O   UNL     1       1.629   6.944  20.877  0.00  0.00    +0.000 OA
ATOM      9  C   UNL     1       1.959   7.548  19.699  0.00  0.00    +0.000 A 
ENDROOT
BRANCH   1  16
ATOM     10  C   UNL     1       1.417   4.380  17.685  0.00  0.00    +0.000 C 
ATOM     11  C   UNL     1       2.789   4.466  18.299  0.00  0.00    +0.000 A 
ATOM     12  C   UNL     1       3.490   3.253  18.433  0.00  0.00    +0.000 A 
ATOM     13  C   UNL     1       4.766   3.257  18.967  0.00  0.00    +0.000 A 
ATOM     14  N   UNL     1       5.378   4.369  19.397  0.00  0.00    +0.000 NA
ATOM     15  C   UNL     1       4.683   5.528  19.282  0.00  0.00    +0.000 A 
ATOM     16  C   UNL     1       3.392   5.669  18.746  0.00  0.00    +0.000 A 
ENDBRANCH   1  16
BRANCH   6  17
ATOM     17  C   UNL     1      -0.166  10.003  21.408  0.00  0.00    +0.000 A 
ATOM     18  C   UNL     1      -0.528  10.084  22.763  0.00  0.00    +0.000 A 
ATOM     19  C   UNL     1      -1.392  11.083  23.213  0.00  0.00    +0.000 A 
ATOM     20  C   UNL     1      -1.867  12.032  22.316  0.00  0.00    +0.000 A 
ATOM     21  F   UNL     1      -2.711  12.977  22.743  0.00  0.00    +0.000 F 
ATOM     22  C   UNL     1      -1.477  12.006  20.981  0.00  0.00    +0.000 A 
ATOM     23  C   UNL     1      -0.628  10.994  20.528  0.00  0.00    +0.000 A 
ENDBRANCH   6  17
TORSDOF 2
ENDMDL
MODEL 6
REMARK VINA RESULT:      -7.8      3.266      7.720
REMARK  Name = 
REMARK  3 active torsions:
REMARK  status: ('A' for Active; 'I' for Inactive)
REMARK    1  A    between atoms: C_1  and  C_2
REMARK    2  A    between atoms: C_7  and  C_8
REMARK    3  A    between atoms: C_13  and  C_14
REMARK                            x       y       z     vdW  Elec       q    Type
REMARK                         _______ _______ _______ _____ _____    ______ ____
ROOT
ATOM      1  C   UNL     1       0.903  10.455  19.940  0.00  0.00    +0.000 A 
ATOM      2  C   UNL     1       0.485   9.920  21.181  0.00  0.00    +0.000 A 
ATOM      3  C   UNL     1       0.779   8.619  21.593  0.00  0.00    +0.000 A 
ATOM      4  C   UNL     1       1.449   7.744  20.745  0.00  0.00    +0.000 A 
ATOM      5  C   UNL     1       1.784   8.183  19.453  0.00  0.00    +0.000 A 
ATOM      6  C   UNL     1       2.386   7.609  18.290  0.00  0.00    +0.000 A 
ATOM      7  N   UNL     1       2.514   8.536  17.327  0.00  0.00    +0.000 NA
ATOM      8  O   UNL     1       2.001   9.708  17.845  0.00  0.00    +0.000 OA
ATOM      9  C   UNL     1       1.531   9.504  19.109  0.00  0.00    +0.000 A 
ENDROOT
BRANCH   1  16
ATOM     10  C   UNL     1      -1.488  11.442  18.215  0.00  0.00    +0.000 C 
ATOM     11  C   UNL     1      -0.398  12.329  18.756  0.00  0.00    +0.000 A 
ATOM     12  C   UNL     1      -0.490  13.696  18.436  0.00  0.00    +0.000 A 
ATOM     13  C   UNL     1       0.463  14.575  18.919  0.00  0.00    +0.000 A 
ATOM     14  N   UNL     1       1.505  14.190  19.668  0.00  0.00    +0.000 NA
ATOM     15  C   UNL     1       1.593  12.866  19.951  0.00  0.00    +0.000 A 
ATOM     16  C   UNL     1       0.690  11.870  19.541  0.00  0.00    +0.000 A 
ENDBRANCH   1  16
BRANCH   6  17
ATOM     17  C   UNL     1       2.859   6.235  18.102  0.00  0.00    +0.000 A 
ATOM     18  C   UNL     1       4.224   5.960  17.910  0.00  0.00    +0.000 A 
ATOM     19  C   UNL     1       4.657   4.667  17.613  0.00  0.00    +0.000 A 
ATOM     20  C   UNL     1       3.730   3.633  17.548  0.00  0.00    +0.000 A 
ATOM     21  F   UNL     1       4.143   2.399  17.243  0.00  0.00    +0.000 F 
ATOM     22  C   UNL     1       2.382   3.872  17.791  0.00  0.00    +0.000 A 
ATOM     23  C   UNL     1       1.947   5.169  18.069  0.00  0.00    +0.000 A 
ENDBRANCH   6  17
TORSDOF 2
ENDMDL
MODEL 7
REMARK VINA RESULT:      -7.7      0.891      1.407
REMARK  Name = 
REMARK  3 active torsions:
REMARK  status: ('A' for Active; 'I' for Inactive)
REMARK    1  A    between atoms: C_1  and  C_2
REMARK    2  A    between atoms: C_7  and  C_8
REMARK    3  A    between atoms: C_13  and  C_14
REMARK                            x       y       z     vdW  Elec       q    Type
REMARK                         _______ _______ _______ _____ _____    ______ ____
ROOT
ATOM      1  C   UNL     1       4.191   5.067  18.011  0.00  0.00    +0.000 A 
ATOM      2  C   UNL     1       3.910   4.094  18.998  0.00  0.00    +0.000 A 
ATOM      3  C   UNL     1       2.980   4.286  20.020  0.00  0.00    +0.000 A 
ATOM      4  C   UNL     1       2.326   5.505  20.161  0.00  0.00    +0.000 A 
ATOM      5  C   UNL     1       2.654   6.550  19.280  0.00  0.00    +0.000 A 
ATOM      6  C   UNL     1       2.288   7.923  19.125  0.00  0.00    +0.000 A 
ATOM      7  N   UNL     1       2.887   8.444  18.042  0.00  0.00    +0.000 NA
ATOM      8  O   UNL     1       3.641   7.430  17.489  0.00  0.00    +0.000 OA
ATOM      9  C   UNL     1       3.536   6.295  18.239  0.00  0.00    +0.000 A 
ENDROOT
BRANCH   1  16
ATOM     10  C   UNL     1       7.271   5.491  18.092  0.00  0.00    +0.000 C 
ATOM     11  C   UNL     1       6.502   5.020  16.886  0.00  0.00    +0.000 A 
ATOM     12  C   UNL     1       7.256   4.768  15.725  0.00  0.00    +0.000 A 
ATOM     13  C   UNL     1       6.621   4.311  14.585  0.00  0.00    +0.000 A 
ATOM     14  N   UNL     1       5.298   4.112  14.511  0.00  0.00    +0.000 NA
ATOM     15  C   UNL     1       4.580   4.378  15.631  0.00  0.00    +0.000 A 
ATOM     16  C   UNL     1       5.097   4.831  16.857  0.00  0.00    +0.000 A 
ENDBRANCH   1  16
BRANCH   6  17
ATOM     17  C   UNL     1       1.373   8.714  19.953  0.00  0.00    +0.000 A 
ATOM     18  C   UNL     1       1.237   8.457  21.327  0.00  0.00    +0.000 A 
ATOM     19  C   UNL     1       0.279   9.131  22.088  0.00  0.00    +0.000 A 
ATOM     20  C   UNL     1      -0.518  10.096  21.484  0.00  0.00    +0.000 A 
ATOM     21  F   UNL     1      -1.449  10.726  22.208  0.00  0.00    +0.000 F 
ATOM     22  C   UNL     1      -0.361  10.407  20.138  0.00  0.00    +0.000 A 
ATOM     23  C   UNL     1       0.583   9.719  19.374  0.00  0.00    +0.000 A 
ENDBRANCH   6  17
TORSDOF 2
ENDMDL
MODEL 8
REMARK VINA RESULT:      -7.7      2.253      3.319
REMARK  Name = 
REMARK  3 active torsions:
REMARK  status: ('A' for Active; 'I' for Inactive)
REMARK    1  A    between atoms: C_1  and  C_2
REMARK    2  A    between atoms: C_7  and  C_8
REMARK    3  A    between atoms: C_13  and  C_14
REMARK                            x       y       z     vdW  Elec       q    Type
REMARK                         _______ _______ _______ _____ _____    ______ ____
ROOT
ATOM      1  C   UNL     1       2.757   6.989  18.674  0.00  0.00    +0.000 A 
ATOM      2  C   UNL     1       2.889   7.852  17.561  0.00  0.00    +0.000 A 
ATOM      3  C   UNL     1       2.362   9.144  17.527  0.00  0.00    +0.000 A 
ATOM      4  C   UNL     1       1.599   9.624  18.586  0.00  0.00    +0.000 A 
ATOM      5  C   UNL     1       1.335   8.767  19.668  0.00  0.00    +0.000 A 
ATOM      6  C   UNL     1       0.571   8.833  20.875  0.00  0.00    +0.000 A 
ATOM      7  N   UNL     1       0.730   7.706  21.587  0.00  0.00    +0.000 NA
ATOM      8  O   UNL     1       1.584   6.903  20.859  0.00  0.00    +0.000 OA
ATOM      9  C   UNL     1       1.932   7.515  19.691  0.00  0.00    +0.000 A 
ENDROOT
BRANCH   1  16
ATOM     10  C   UNL     1       1.443   4.339  17.715  0.00  0.00    +0.000 C 
ATOM     11  C   UNL     1       2.815   4.443  18.326  0.00  0.00    +0.000 A 
ATOM     12  C   UNL     1       3.528   3.238  18.467  0.00  0.00    +0.000 A 
ATOM     13  C   UNL     1       4.805   3.258  18.999  0.00  0.00    +0.000 A 
ATOM     14  N   UNL     1       5.407   4.379  19.420  0.00  0.00    +0.000 NA
ATOM     15  C   UNL     1       4.700   5.531  19.297  0.00  0.00    +0.000 A 
ATOM     16  C   UNL     1       3.407   5.655  18.763  0.00  0.00    +0.000 A 
ENDBRANCH   1  16
BRANCH   6  17
ATOM     17  C   UNL     1      -0.257   9.939  21.362  0.00  0.00    +0.000 A 
ATOM     18  C   UNL     1      -0.709  10.943  20.489  0.00  0.00    +0.000 A 
ATOM     19  C   UNL     1      -1.395  12.056  20.975  0.00  0.00    +0.000 A 
ATOM     20  C   UNL     1      -1.669  12.151  22.335  0.00  0.00    +0.000 A 
ATOM     21  F   UNL     1      -2.309  13.228  22.803  0.00  0.00    +0.000 F 
ATOM     22  C   UNL     1      -1.281  11.142  23.209  0.00  0.00    +0.000 A 
ATOM     23  C   UNL     1      -0.578  10.038  22.725  0.00  0.00    +0.000 A 
ENDBRANCH   6  17
TORSDOF 2
ENDMDL
MODEL 9
REMARK VINA RESULT:      -7.7      3.250      7.629
REMARK  Name = 
REMARK  3 active torsions:
REMARK  status: ('A' for Active; 'I' for Inactive)
REMARK    1  A    between atoms: C_1  and  C_2
REMARK    2  A    between atoms: C_7  and  C_8
REMARK    3  A    between atoms: C_13  and  C_14
REMARK                            x       y       z     vdW  Elec       q    Type
REMARK                         _______ _______ _______ _____ _____    ______ ____
ROOT
ATOM      1  C   UNL     1       0.940  10.291  19.948  0.00  0.00    +0.000 A 
ATOM      2  C   UNL     1       0.561   9.798  21.219  0.00  0.00    +0.000 A 
ATOM      3  C   UNL     1       0.858   8.508  21.659  0.00  0.00    +0.000 A 
ATOM      4  C   UNL     1       1.491   7.601  20.816  0.00  0.00    +0.000 A 
ATOM      5  C   UNL     1       1.783   7.998  19.501  0.00  0.00    +0.000 A 
ATOM      6  C   UNL     1       2.340   7.382  18.336  0.00  0.00    +0.000 A 
ATOM      7  N   UNL     1       2.443   8.278  17.341  0.00  0.00    +0.000 NA
ATOM      8  O   UNL     1       1.958   9.470  17.839  0.00  0.00    +0.000 OA
ATOM      9  C   UNL     1       1.531   9.309  19.125  0.00  0.00    +0.000 A 
ENDROOT
BRANCH   1  16
ATOM     10  C   UNL     1      -1.555  11.269  18.370  0.00  0.00    +0.000 C 
ATOM     11  C   UNL     1      -0.410  12.150  18.794  0.00  0.00    +0.000 A 
ATOM     12  C   UNL     1      -0.498  13.507  18.431  0.00  0.00    +0.000 A 
ATOM     13  C   UNL     1       0.505  14.381  18.807  0.00  0.00    +0.000 A 
ATOM     14  N   UNL     1       1.593  13.999  19.491  0.00  0.00    +0.000 NA
ATOM     15  C   UNL     1       1.676  12.685  19.816  0.00  0.00    +0.000 A 
ATOM     16  C   UNL     1       0.725  11.696  19.512  0.00  0.00    +0.000 A 
ENDBRANCH   1  16
BRANCH   6  17
ATOM     17  C   UNL     1       2.795   5.998  18.174  0.00  0.00    +0.000 A 
ATOM     18  C   UNL     1       1.895   4.979  17.819  0.00  0.00    +0.000 A 
ATOM     19  C   UNL     1       2.306   3.645  17.782  0.00  0.00    +0.000 A 
ATOM     20  C   UNL     1       3.631   3.330  18.061  0.00  0.00    +0.000 A 
ATOM     21  F   UNL     1       4.019   2.051  18.046  0.00  0.00    +0.000 F 
ATOM     22  C   UNL     1       4.551   4.328  18.359  0.00  0.00    +0.000 A 
ATOM     23  C   UNL     1       4.135   5.660  18.414  0.00  0.00    +0.000 A 
ENDBRANCH   6  17
TORSDOF 2
ENDMDL
