MODEL 1
REMARK VINA RESULT:      -6.4      0.000      0.000
REMARK  Name = 
REMARK  7 active torsions:
REMARK  status: ('A' for Active; 'I' for Inactive)
REMARK    1  A    between atoms: C_1  and  C_2
REMARK    2  A    between atoms: C_2  and  C_3
REMARK    3  A    between atoms: C_3  and  S_4
REMARK    4  A    between atoms: S_4  and  C_5
REMARK    5  A    between atoms: C_11  and  C_12
REMARK    6  A    between atoms: C_14  and  N_15
REMARK    7  A    between atoms: C_24  and  C_25
REMARK                            x       y       z     vdW  Elec       q    Type
REMARK                         _______ _______ _______ _____ _____    ______ ____
ROOT
ATOM      1  C   UNL     1       2.383   8.528  18.369  0.00  0.00    +0.000 A 
ATOM      2  N   UNL     1       3.227   7.843  17.586  0.00  0.00    +0.000 NA
ATOM      3  C   UNL     1       3.447   6.520  17.843  0.00  0.00    +0.000 A 
ATOM      4  N   UNL     1       4.293   5.791  16.962  0.00  0.00    +0.000 N 
ATOM      5  N   UNL     1       4.068   4.482  16.656  0.00  0.00    +0.000 NA
ATOM      6  C   UNL     1       5.071   4.138  15.852  0.00  0.00    +0.000 A 
ATOM      7  C   UNL     1       5.928   5.216  15.586  0.00  0.00    +0.000 A 
ATOM      8  C   UNL     1       5.428   6.278  16.306  0.00  0.00    +0.000 A 
ATOM      9  C   UNL     1       2.885   5.938  19.001  0.00  0.00    +0.000 A 
ATOM     10  C   UNL     1       3.016   4.666  19.681  0.00  0.00    +0.000 A 
ATOM     11  C   UNL     1       2.273   4.622  20.845  0.00  0.00    +0.000 A 
ATOM     12  S   UNL     1       1.452   6.073  21.154  0.00  0.00    +0.000 S 
ATOM     13  C   UNL     1       2.083   6.791  19.742  0.00  0.00    +0.000 A 
ATOM     14  N   UNL     1       1.783   8.074  19.465  0.00  0.00    +0.000 NA
ATOM     15  C   UNL     1       2.223   3.460  21.795  0.00  0.00    +0.000 C 
ATOM     16  C   UNL     1       2.766   2.189  21.119  0.00  0.00    +0.000 C 
ATOM     17  C   UNL     1       4.089   2.482  20.390  0.00  0.00    +0.000 C 
ATOM     18  C   UNL     1       4.723   1.217  19.816  0.00  0.00    +0.000 C 
ATOM     19  C   UNL     1       3.848   3.490  19.260  0.00  0.00    +0.000 C 
ENDROOT
BRANCH   8  20
ATOM     20  N   UNL     1       5.913   7.529  16.491  0.00  0.00    +0.000 N 
ATOM     21  H   UNL     1       5.493   8.197  17.137  0.00  0.00    +0.000 HD
ATOM     22  H   UNL     1       6.861   7.768  16.203  0.00  0.00    +0.000 HD
ENDBRANCH   8  20
BRANCH   7  23
ATOM     23  C   UNL     1       7.086   5.196  14.775  0.00  0.00    +0.000 C 
ATOM     24  N   UNL     1       8.033   5.186  14.109  0.00  0.00    +0.000 NA
ENDBRANCH   7  23
BRANCH   1  25
ATOM     25  S   UNL     1       1.968  10.169  17.831  0.00  0.00    +0.000 S 
BRANCH  25  26
ATOM     26  C   UNL     1       1.042  10.737  19.290  0.00  0.00    +0.000 C 
BRANCH  26  28
ATOM     27  C   UNL     1      -0.884  10.103  17.787  0.00  0.00    +0.000 C 
ATOM     28  C   UNL     1      -0.403  11.036  18.889  0.00  0.00    +0.000 C 
ENDBRANCH  26  28
ENDBRANCH  25  26
ENDBRANCH   1  25
TORSDOF 5
ENDMDL
MODEL 2
REMARK VINA RESULT:      -6.1      7.827      9.922
REMARK  Name = 
REMARK  7 active torsions:
REMARK  status: ('A' for Active; 'I' for Inactive)
REMARK    1  A    between atoms: C_1  and  C_2
REMARK    2  A    between atoms: C_2  and  C_3
REMARK    3  A    between atoms: C_3  and  S_4
REMARK    4  A    between atoms: S_4  and  C_5
REMARK    5  A    between atoms: C_11  and  C_12
REMARK    6  A    between atoms: C_14  and  N_15
REMARK    7  A    between atoms: C_24  and  C_25
REMARK                            x       y       z     vdW  Elec       q    Type
REMARK                         _______ _______ _______ _____ _____    ______ ____
ROOT
ATOM      1  C   UNL     1      -5.268  12.865  20.681  0.00  0.00    +0.000 A 
ATOM      2  N   UNL     1      -4.885  12.242  19.558  0.00  0.00    +0.000 NA
ATOM      3  C   UNL     1      -3.553  12.055  19.323  0.00  0.00    +0.000 A 
ATOM      4  N   UNL     1      -3.167  11.333  18.160  0.00  0.00    +0.000 N 
ATOM      5  N   UNL     1      -2.081  10.509  18.144  0.00  0.00    +0.000 NA
ATOM      6  C   UNL     1      -2.015  10.050  16.896  0.00  0.00    +0.000 A 
ATOM      7  C   UNL     1      -3.068  10.525  16.102  0.00  0.00    +0.000 A 
ATOM      8  C   UNL     1      -3.806  11.355  16.917  0.00  0.00    +0.000 A 
ATOM      9  C   UNL     1      -2.608  12.634  20.198  0.00  0.00    +0.000 A 
ATOM     10  C   UNL     1      -1.169  12.797  20.199  0.00  0.00    +0.000 A 
ATOM     11  C   UNL     1      -0.728  13.514  21.294  0.00  0.00    +0.000 A 
ATOM     12  S   UNL     1      -1.997  14.020  22.300  0.00  0.00    +0.000 S 
ATOM     13  C   UNL     1      -3.160  13.298  21.283  0.00  0.00    +0.000 A 
ATOM     14  N   UNL     1      -4.466  13.424  21.583  0.00  0.00    +0.000 NA
ATOM     15  C   UNL     1       0.701  13.885  21.567  0.00  0.00    +0.000 C 
ATOM     16  C   UNL     1       1.651  13.032  20.709  0.00  0.00    +0.000 C 
ATOM     17  C   UNL     1       1.172  12.987  19.247  0.00  0.00    +0.000 C 
ATOM     18  C   UNL     1       2.160  12.256  18.340  0.00  0.00    +0.000 C 
ATOM     19  C   UNL     1      -0.197  12.301  19.169  0.00  0.00    +0.000 C 
ENDROOT
BRANCH   8  20
ATOM     20  N   UNL     1      -4.870  12.147  16.643  0.00  0.00    +0.000 N 
ATOM     21  H   UNL     1      -5.803  11.972  17.014  0.00  0.00    +0.000 HD
ATOM     22  H   UNL     1      -4.737  13.090  16.278  0.00  0.00    +0.000 HD
ENDBRANCH   8  20
BRANCH   7  23
ATOM     23  C   UNL     1      -3.296  10.236  14.737  0.00  0.00    +0.000 C 
ATOM     24  N   UNL     1      -3.485  10.005  13.618  0.00  0.00    +0.000 NA
ENDBRANCH   7  23
BRANCH   1  25
ATOM     25  S   UNL     1      -7.010  12.858  21.030  0.00  0.00    +0.000 S 
BRANCH  25  26
ATOM     26  C   UNL     1      -7.183  14.532  21.722  0.00  0.00    +0.000 C 
BRANCH  26  28
ATOM     27  C   UNL     1      -7.039  13.849  24.148  0.00  0.00    +0.000 C 
ATOM     28  C   UNL     1      -7.917  14.453  23.061  0.00  0.00    +0.000 C 
ENDBRANCH  26  28
ENDBRANCH  25  26
ENDBRANCH   1  25
TORSDOF 5
ENDMDL
MODEL 3
REMARK VINA RESULT:      -6.0      7.834      9.802
REMARK  Name = 
REMARK  7 active torsions:
REMARK  status: ('A' for Active; 'I' for Inactive)
REMARK    1  A    between atoms: C_1  and  C_2
REMARK    2  A    between atoms: C_2  and  C_3
REMARK    3  A    between atoms: C_3  and  S_4
REMARK    4  A    between atoms: S_4  and  C_5
REMARK    5  A    between atoms: C_11  and  C_12
REMARK    6  A    between atoms: C_14  and  N_15
REMARK    7  A    between atoms: C_24  and  C_25
REMARK                            x       y       z     vdW  Elec       q    Type
REMARK                         _______ _______ _______ _____ _____    ______ ____
ROOT
ATOM      1  C   UNL     1      -5.084  12.871  20.793  0.00  0.00    +0.000 A 
ATOM      2  N   UNL     1      -4.712  12.248  19.667  0.00  0.00    +0.000 NA
ATOM      3  C   UNL     1      -3.382  12.095  19.400  0.00  0.00    +0.000 A 
ATOM      4  N   UNL     1      -3.005  11.373  18.234  0.00  0.00    +0.000 N 
ATOM      5  N   UNL     1      -1.897  10.579  18.199  0.00  0.00    +0.000 NA
ATOM      6  C   UNL     1      -1.850  10.110  16.954  0.00  0.00    +0.000 A 
ATOM      7  C   UNL     1      -2.935  10.548  16.182  0.00  0.00    +0.000 A 
ATOM      8  C   UNL     1      -3.675  11.365  17.007  0.00  0.00    +0.000 A 
ATOM      9  C   UNL     1      -2.431  12.708  20.246  0.00  0.00    +0.000 A 
ATOM     10  C   UNL     1      -0.998  12.911  20.209  0.00  0.00    +0.000 A 
ATOM     11  C   UNL     1      -0.550  13.650  21.287  0.00  0.00    +0.000 A 
ATOM     12  S   UNL     1      -1.806  14.131  22.319  0.00  0.00    +0.000 S 
ATOM     13  C   UNL     1      -2.974  13.367  21.339  0.00  0.00    +0.000 A 
ATOM     14  N   UNL     1      -4.275  13.461  21.670  0.00  0.00    +0.000 NA
ATOM     15  C   UNL     1       0.875  14.062  21.520  0.00  0.00    +0.000 C 
ATOM     16  C   UNL     1       1.826  13.227  20.646  0.00  0.00    +0.000 C 
ATOM     17  C   UNL     1       1.313  13.155  19.197  0.00  0.00    +0.000 C 
ATOM     18  C   UNL     1       2.298  12.442  18.272  0.00  0.00    +0.000 C 
ATOM     19  C   UNL     1      -0.038  12.431  19.159  0.00  0.00    +0.000 C 
ENDROOT
BRANCH   8  20
ATOM     20  N   UNL     1      -4.767  12.125  16.753  0.00  0.00    +0.000 N 
ATOM     21  H   UNL     1      -4.709  13.103  16.471  0.00  0.00    +0.000 HD
ATOM     22  H   UNL     1      -5.672  11.693  16.571  0.00  0.00    +0.000 HD
ENDBRANCH   8  20
BRANCH   7  23
ATOM     23  C   UNL     1      -3.188  10.239  14.826  0.00  0.00    +0.000 C 
ATOM     24  N   UNL     1      -3.403   9.987  13.716  0.00  0.00    +0.000 NA
ENDBRANCH   7  23
BRANCH   1  25
ATOM     25  S   UNL     1      -6.815  12.820  21.186  0.00  0.00    +0.000 S 
BRANCH  25  26
ATOM     26  C   UNL     1      -7.468  13.779  19.784  0.00  0.00    +0.000 C 
BRANCH  26  28
ATOM     27  C   UNL     1      -6.287  15.932  19.201  0.00  0.00    +0.000 C 
ATOM     28  C   UNL     1      -7.335  15.272  20.086  0.00  0.00    +0.000 C 
ENDBRANCH  26  28
ENDBRANCH  25  26
ENDBRANCH   1  25
TORSDOF 5
ENDMDL
MODEL 4
REMARK VINA RESULT:      -6.0      5.594     11.338
REMARK  Name = 
REMARK  7 active torsions:
REMARK  status: ('A' for Active; 'I' for Inactive)
REMARK    1  A    between atoms: C_1  and  C_2
REMARK    2  A    between atoms: C_2  and  C_3
REMARK    3  A    between atoms: C_3  and  S_4
REMARK    4  A    between atoms: S_4  and  C_5
REMARK    5  A    between atoms: C_11  and  C_12
REMARK    6  A    between atoms: C_14  and  N_15
REMARK    7  A    between atoms: C_24  and  C_25
REMARK                            x       y       z     vdW  Elec       q    Type
REMARK                         _______ _______ _______ _____ _____    ______ ____
ROOT
ATOM      1  C   UNL     1      -0.542  11.751  19.131  0.00  0.00    +0.000 A 
ATOM      2  N   UNL     1      -0.902  12.249  20.321  0.00  0.00    +0.000 NA
ATOM      3  C   UNL     1      -2.229  12.375  20.615  0.00  0.00    +0.000 A 
ATOM      4  N   UNL     1      -2.595  12.842  21.908  0.00  0.00    +0.000 N 
ATOM      5  N   UNL     1      -3.703  12.386  22.558  0.00  0.00    +0.000 NA
ATOM      6  C   UNL     1      -3.738  13.070  23.699  0.00  0.00    +0.000 A 
ATOM      7  C   UNL     1      -2.644  13.937  23.830  0.00  0.00    +0.000 A 
ATOM      8  C   UNL     1      -1.911  13.792  22.673  0.00  0.00    +0.000 A 
ATOM      9  C   UNL     1      -3.188  12.103  19.614  0.00  0.00    +0.000 A 
ATOM     10  C   UNL     1      -4.620  12.271  19.486  0.00  0.00    +0.000 A 
ATOM     11  C   UNL     1      -5.079  11.891  18.239  0.00  0.00    +0.000 A 
ATOM     12  S   UNL     1      -3.833  11.370  17.214  0.00  0.00    +0.000 S 
ATOM     13  C   UNL     1      -2.656  11.652  18.415  0.00  0.00    +0.000 A 
ATOM     14  N   UNL     1      -1.358  11.439  18.129  0.00  0.00    +0.000 NA
ATOM     15  C   UNL     1      -6.506  11.978  17.780  0.00  0.00    +0.000 C 
ATOM     16  C   UNL     1      -7.449  12.152  18.983  0.00  0.00    +0.000 C 
ATOM     17  C   UNL     1      -6.920  13.236  19.937  0.00  0.00    +0.000 C 
ATOM     18  C   UNL     1      -7.896  13.527  21.076  0.00  0.00    +0.000 C 
ATOM     19  C   UNL     1      -5.570  12.803  20.520  0.00  0.00    +0.000 C 
ENDROOT
BRANCH   8  20
ATOM     20  N   UNL     1      -0.816  14.454  22.230  0.00  0.00    +0.000 N 
ATOM     21  H   UNL     1      -0.630  15.431  22.452  0.00  0.00    +0.000 HD
ATOM     22  H   UNL     1      -0.004  13.944  21.883  0.00  0.00    +0.000 HD
ENDBRANCH   8  20
BRANCH   7  23
ATOM     23  C   UNL     1      -2.376  14.804  24.914  0.00  0.00    +0.000 C 
ATOM     24  N   UNL     1      -2.156  15.508  25.806  0.00  0.00    +0.000 NA
ENDBRANCH   7  23
BRANCH   1  25
ATOM     25  S   UNL     1       1.186  11.396  18.917  0.00  0.00    +0.000 S 
BRANCH  25  26
ATOM     26  C   UNL     1       1.133   9.580  19.013  0.00  0.00    +0.000 C 
BRANCH  26  28
ATOM     27  C   UNL     1       2.576   7.712  18.120  0.00  0.00    +0.000 C 
ATOM     28  C   UNL     1       1.818   8.987  17.781  0.00  0.00    +0.000 C 
ENDBRANCH  26  28
ENDBRANCH  25  26
ENDBRANCH   1  25
TORSDOF 5
ENDMDL
MODEL 5
REMARK VINA RESULT:      -6.0      7.688      9.653
REMARK  Name = 
REMARK  7 active torsions:
REMARK  status: ('A' for Active; 'I' for Inactive)
REMARK    1  A    between atoms: C_1  and  C_2
REMARK    2  A    between atoms: C_2  and  C_3
REMARK    3  A    between atoms: C_3  and  S_4
REMARK    4  A    between atoms: S_4  and  C_5
REMARK    5  A    between atoms: C_11  and  C_12
REMARK    6  A    between atoms: C_14  and  N_15
REMARK    7  A    between atoms: C_24  and  C_25
REMARK                            x       y       z     vdW  Elec       q    Type
REMARK                         _______ _______ _______ _____ _____    ______ ____
ROOT
ATOM      1  C   UNL     1      -4.269  13.091  21.413  0.00  0.00    +0.000 A 
ATOM      2  N   UNL     1      -4.025  12.442  20.268  0.00  0.00    +0.000 NA
ATOM      3  C   UNL     1      -2.733  12.295  19.849  0.00  0.00    +0.000 A 
ATOM      4  N   UNL     1      -2.487  11.545  18.666  0.00  0.00    +0.000 N 
ATOM      5  N   UNL     1      -1.381  10.761  18.520  0.00  0.00    +0.000 NA
ATOM      6  C   UNL     1      -1.474  10.259  17.291  0.00  0.00    +0.000 A 
ATOM      7  C   UNL     1      -2.649  10.665  16.642  0.00  0.00    +0.000 A 
ATOM      8  C   UNL     1      -3.297  11.497  17.527  0.00  0.00    +0.000 A 
ATOM      9  C   UNL     1      -1.697  12.940  20.560  0.00  0.00    +0.000 A 
ATOM     10  C   UNL     1      -0.282  13.156  20.349  0.00  0.00    +0.000 A 
ATOM     11  C   UNL     1       0.281  13.929  21.346  0.00  0.00    +0.000 A 
ATOM     12  S   UNL     1      -0.851  14.425  22.507  0.00  0.00    +0.000 S 
ATOM     13  C   UNL     1      -2.116  13.623  21.692  0.00  0.00    +0.000 A 
ATOM     14  N   UNL     1      -3.370  13.713  22.172  0.00  0.00    +0.000 NA
ATOM     15  C   UNL     1       1.718  14.361  21.398  0.00  0.00    +0.000 C 
ATOM     16  C   UNL     1       2.570  13.513  20.440  0.00  0.00    +0.000 C 
ATOM     17  C   UNL     1       1.891  13.396  19.065  0.00  0.00    +0.000 C 
ATOM     18  C   UNL     1       2.768  12.668  18.048  0.00  0.00    +0.000 C 
ATOM     19  C   UNL     1       0.554  12.658  19.206  0.00  0.00    +0.000 C 
ENDROOT
BRANCH   8  20
ATOM     20  N   UNL     1      -4.421  12.239  17.384  0.00  0.00    +0.000 N 
ATOM     21  H   UNL     1      -4.835  12.450  16.477  0.00  0.00    +0.000 HD
ATOM     22  H   UNL     1      -5.047  12.393  18.174  0.00  0.00    +0.000 HD
ENDBRANCH   8  20
BRANCH   7  23
ATOM     23  C   UNL     1      -3.056  10.317  15.334  0.00  0.00    +0.000 C 
ATOM     24  N   UNL     1      -3.397  10.031  14.264  0.00  0.00    +0.000 NA
ENDBRANCH   7  23
BRANCH   1  25
ATOM     25  S   UNL     1      -5.941  13.034  22.009  0.00  0.00    +0.000 S 
BRANCH  25  26
ATOM     26  C   UNL     1      -6.748  12.278  20.564  0.00  0.00    +0.000 C 
BRANCH  26  28
ATOM     27  C   UNL     1      -7.711  13.139  18.395  0.00  0.00    +0.000 C 
ATOM     28  C   UNL     1      -7.674  13.303  19.907  0.00  0.00    +0.000 C 
ENDBRANCH  26  28
ENDBRANCH  25  26
ENDBRANCH   1  25
TORSDOF 5
ENDMDL
MODEL 6
REMARK VINA RESULT:      -6.0      8.454     10.553
REMARK  Name = 
REMARK  7 active torsions:
REMARK  status: ('A' for Active; 'I' for Inactive)
REMARK    1  A    between atoms: C_1  and  C_2
REMARK    2  A    between atoms: C_2  and  C_3
REMARK    3  A    between atoms: C_3  and  S_4
REMARK    4  A    between atoms: S_4  and  C_5
REMARK    5  A    between atoms: C_11  and  C_12
REMARK    6  A    between atoms: C_14  and  N_15
REMARK    7  A    between atoms: C_24  and  C_25
REMARK                            x       y       z     vdW  Elec       q    Type
REMARK                         _______ _______ _______ _____ _____    ______ ____
ROOT
ATOM      1  C   UNL     1      -3.330  10.920  16.401  0.00  0.00    +0.000 A 
ATOM      2  N   UNL     1      -2.402  11.239  17.312  0.00  0.00    +0.000 NA
ATOM      3  C   UNL     1      -2.800  11.708  18.531  0.00  0.00    +0.000 A 
ATOM      4  N   UNL     1      -1.804  11.978  19.511  0.00  0.00    +0.000 N 
ATOM      5  N   UNL     1      -2.017  11.763  20.840  0.00  0.00    +0.000 NA
ATOM      6  C   UNL     1      -0.896  12.163  21.437  0.00  0.00    +0.000 A 
ATOM      7  C   UNL     1       0.069  12.594  20.515  0.00  0.00    +0.000 A 
ATOM      8  C   UNL     1      -0.520  12.479  19.276  0.00  0.00    +0.000 A 
ATOM      9  C   UNL     1      -4.169  11.970  18.758  0.00  0.00    +0.000 A 
ATOM     10  C   UNL     1      -4.937  12.601  19.811  0.00  0.00    +0.000 A 
ATOM     11  C   UNL     1      -6.284  12.660  19.508  0.00  0.00    +0.000 A 
ATOM     12  S   UNL     1      -6.641  12.008  17.984  0.00  0.00    +0.000 S 
ATOM     13  C   UNL     1      -5.001  11.643  17.697  0.00  0.00    +0.000 A 
ATOM     14  N   UNL     1      -4.643  11.101  16.518  0.00  0.00    +0.000 NA
ATOM     15  C   UNL     1      -7.338  13.286  20.375  0.00  0.00    +0.000 C 
ATOM     16  C   UNL     1      -6.810  13.484  21.806  0.00  0.00    +0.000 C 
ATOM     17  C   UNL     1      -5.409  14.118  21.786  0.00  0.00    +0.000 C 
ATOM     18  C   UNL     1      -4.906  14.448  23.190  0.00  0.00    +0.000 C 
ATOM     19  C   UNL     1      -4.418  13.170  21.100  0.00  0.00    +0.000 C 
ENDROOT
BRANCH   8  20
ATOM     20  N   UNL     1      -0.079  12.844  18.048  0.00  0.00    +0.000 N 
ATOM     21  H   UNL     1      -0.682  13.269  17.345  0.00  0.00    +0.000 HD
ATOM     22  H   UNL     1       0.917  12.957  17.866  0.00  0.00    +0.000 HD
ENDBRANCH   8  20
BRANCH   7  23
ATOM     23  C   UNL     1       1.362  13.081  20.810  0.00  0.00    +0.000 C 
ATOM     24  N   UNL     1       2.420  13.486  21.054  0.00  0.00    +0.000 NA
ENDBRANCH   7  23
BRANCH   1  25
ATOM     25  S   UNL     1      -2.747  10.097  14.939  0.00  0.00    +0.000 S 
BRANCH  25  26
ATOM     26  C   UNL     1      -4.271  10.137  13.946  0.00  0.00    +0.000 C 
BRANCH  26  28
ATOM     27  C   UNL     1      -5.205   9.602  11.662  0.00  0.00    +0.000 C 
ATOM     28  C   UNL     1      -3.945   9.751  12.502  0.00  0.00    +0.000 C 
ENDBRANCH  26  28
ENDBRANCH  25  26
ENDBRANCH   1  25
TORSDOF 5
ENDMDL
MODEL 7
REMARK VINA RESULT:      -5.9      2.313      6.238
REMARK  Name = 
REMARK  7 active torsions:
REMARK  status: ('A' for Active; 'I' for Inactive)
REMARK    1  A    between atoms: C_1  and  C_2
REMARK    2  A    between atoms: C_2  and  C_3
REMARK    3  A    between atoms: C_3  and  S_4
REMARK    4  A    between atoms: S_4  and  C_5
REMARK    5  A    between atoms: C_11  and  C_12
REMARK    6  A    between atoms: C_14  and  N_15
REMARK    7  A    between atoms: C_24  and  C_25
REMARK                            x       y       z     vdW  Elec       q    Type
REMARK                         _______ _______ _______ _____ _____    ______ ____
ROOT
ATOM      1  C   UNL     1       4.448   2.022  19.938  0.00  0.00    +0.000 A 
ATOM      2  N   UNL     1       5.062   2.716  18.971  0.00  0.00    +0.000 NA
ATOM      3  C   UNL     1       4.740   4.031  18.789  0.00  0.00    +0.000 A 
ATOM      4  N   UNL     1       5.449   4.771  17.803  0.00  0.00    +0.000 N 
ATOM      5  N   UNL     1       5.757   6.088  17.966  0.00  0.00    +0.000 NA
ATOM      6  C   UNL     1       6.374   6.440  16.839  0.00  0.00    +0.000 A 
ATOM      7  C   UNL     1       6.517   5.360  15.956  0.00  0.00    +0.000 A 
ATOM      8  C   UNL     1       5.917   4.287  16.577  0.00  0.00    +0.000 A 
ATOM      9  C   UNL     1       3.680   4.593  19.534  0.00  0.00    +0.000 A 
ATOM     10  C   UNL     1       2.958   5.847  19.512  0.00  0.00    +0.000 A 
ATOM     11  C   UNL     1       1.934   5.874  20.440  0.00  0.00    +0.000 A 
ATOM     12  S   UNL     1       1.801   4.424  21.310  0.00  0.00    +0.000 S 
ATOM     13  C   UNL     1       3.104   3.731  20.455  0.00  0.00    +0.000 A 
ATOM     14  N   UNL     1       3.457   2.458  20.712  0.00  0.00    +0.000 NA
ATOM     15  C   UNL     1       0.979   7.015  20.641  0.00  0.00    +0.000 C 
ATOM     16  C   UNL     1       1.524   8.295  19.985  0.00  0.00    +0.000 C 
ATOM     17  C   UNL     1       2.027   8.004  18.561  0.00  0.00    +0.000 C 
ATOM     18  C   UNL     1       2.456   9.276  17.831  0.00  0.00    +0.000 C 
ATOM     19  C   UNL     1       3.205   7.024  18.614  0.00  0.00    +0.000 C 
ENDROOT
BRANCH   8  20
ATOM     20  N   UNL     1       5.682   3.028  16.137  0.00  0.00    +0.000 N 
ATOM     21  H   UNL     1       5.916   2.197  16.681  0.00  0.00    +0.000 HD
ATOM     22  H   UNL     1       5.027   2.856  15.375  0.00  0.00    +0.000 HD
ENDBRANCH   8  20
BRANCH   7  23
ATOM     23  C   UNL     1       7.121   5.386  14.679  0.00  0.00    +0.000 C 
ATOM     24  N   UNL     1       7.621   5.403  13.634  0.00  0.00    +0.000 NA
ENDBRANCH   7  23
BRANCH   1  25
ATOM     25  S   UNL     1       5.086   0.397  20.267  0.00  0.00    +0.000 S 
BRANCH  25  26
ATOM     26  C   UNL     1       5.711   0.658  21.956  0.00  0.00    +0.000 C 
BRANCH  26  28
ATOM     27  C   UNL     1       6.586  -1.619  21.306  0.00  0.00    +0.000 C 
ATOM     28  C   UNL     1       6.626  -0.506  22.342  0.00  0.00    +0.000 C 
ENDBRANCH  26  28
ENDBRANCH  25  26
ENDBRANCH   1  25
TORSDOF 5
ENDMDL
MODEL 8
REMARK VINA RESULT:      -5.8      8.203     10.409
REMARK  Name = 
REMARK  7 active torsions:
REMARK  status: ('A' for Active; 'I' for Inactive)
REMARK    1  A    between atoms: C_1  and  C_2
REMARK    2  A    between atoms: C_2  and  C_3
REMARK    3  A    between atoms: C_3  and  S_4
REMARK    4  A    between atoms: S_4  and  C_5
REMARK    5  A    between atoms: C_11  and  C_12
REMARK    6  A    between atoms: C_14  and  N_15
REMARK    7  A    between atoms: C_24  and  C_25
REMARK                            x       y       z     vdW  Elec       q    Type
REMARK                         _______ _______ _______ _____ _____    ______ ____
ROOT
ATOM      1  C   UNL     1      -4.543  11.827  19.015  0.00  0.00    +0.000 A 
ATOM      2  N   UNL     1      -3.215  12.000  19.026  0.00  0.00    +0.000 NA
ATOM      3  C   UNL     1      -2.631  12.598  20.107  0.00  0.00    +0.000 A 
ATOM      4  N   UNL     1      -1.213  12.712  20.133  0.00  0.00    +0.000 N 
ATOM      5  N   UNL     1      -0.498  12.609  21.288  0.00  0.00    +0.000 NA
ATOM      6  C   UNL     1       0.768  12.807  20.928  0.00  0.00    +0.000 A 
ATOM      7  C   UNL     1       0.901  12.994  19.544  0.00  0.00    +0.000 A 
ATOM      8  C   UNL     1      -0.377  12.937  19.035  0.00  0.00    +0.000 A 
ATOM      9  C   UNL     1      -3.448  13.137  21.125  0.00  0.00    +0.000 A 
ATOM     10  C   UNL     1      -3.228  13.958  22.297  0.00  0.00    +0.000 A 
ATOM     11  C   UNL     1      -4.409  14.268  22.944  0.00  0.00    +0.000 A 
ATOM     12  S   UNL     1      -5.770  13.626  22.164  0.00  0.00    +0.000 S 
ATOM     13  C   UNL     1      -4.807  12.929  20.941  0.00  0.00    +0.000 A 
ATOM     14  N   UNL     1      -5.402  12.271  19.929  0.00  0.00    +0.000 NA
ATOM     15  C   UNL     1      -4.523  15.131  24.167  0.00  0.00    +0.000 C 
ATOM     16  C   UNL     1      -3.151  15.290  24.844  0.00  0.00    +0.000 C 
ATOM     17  C   UNL     1      -2.068  15.632  23.806  0.00  0.00    +0.000 C 
ATOM     18  C   UNL     1      -0.718  15.924  24.457  0.00  0.00    +0.000 C 
ATOM     19  C   UNL     1      -1.916  14.474  22.812  0.00  0.00    +0.000 C 
ENDROOT
BRANCH   8  20
ATOM     20  N   UNL     1      -0.840  13.147  17.780  0.00  0.00    +0.000 N 
ATOM     21  H   UNL     1      -1.596  12.601  17.368  0.00  0.00    +0.000 HD
ATOM     22  H   UNL     1      -0.642  14.020  17.291  0.00  0.00    +0.000 HD
ENDBRANCH   8  20
BRANCH   7  23
ATOM     23  C   UNL     1       2.100  13.228  18.834  0.00  0.00    +0.000 C 
ATOM     24  N   UNL     1       3.084  13.413  18.250  0.00  0.00    +0.000 NA
ENDBRANCH   7  23
BRANCH   1  25
ATOM     25  S   UNL     1      -5.196  10.835  17.695  0.00  0.00    +0.000 S 
BRANCH  25  26
ATOM     26  C   UNL     1      -4.040  11.302  16.369  0.00  0.00    +0.000 C 
BRANCH  26  28
ATOM     27  C   UNL     1      -3.013  10.022  14.452  0.00  0.00    +0.000 C 
ATOM     28  C   UNL     1      -3.221  10.078  15.958  0.00  0.00    +0.000 C 
ENDBRANCH  26  28
ENDBRANCH  25  26
ENDBRANCH   1  25
TORSDOF 5
ENDMDL
MODEL 9
REMARK VINA RESULT:      -5.8      6.513     11.608
REMARK  Name = 
REMARK  7 active torsions:
REMARK  status: ('A' for Active; 'I' for Inactive)
REMARK    1  A    between atoms: C_1  and  C_2
REMARK    2  A    between atoms: C_2  and  C_3
REMARK    3  A    between atoms: C_3  and  S_4
REMARK    4  A    between atoms: S_4  and  C_5
REMARK    5  A    between atoms: C_11  and  C_12
REMARK    6  A    between atoms: C_14  and  N_15
REMARK    7  A    between atoms: C_24  and  C_25
REMARK                            x       y       z     vdW  Elec       q    Type
REMARK                         _______ _______ _______ _____ _____    ______ ____
ROOT
ATOM      1  C   UNL     1      -0.836  11.142  19.544  0.00  0.00    +0.000 A 
ATOM      2  N   UNL     1      -1.274  11.751  20.654  0.00  0.00    +0.000 NA
ATOM      3  C   UNL     1      -2.581  12.140  20.727  0.00  0.00    +0.000 A 
ATOM      4  N   UNL     1      -3.046  12.724  21.937  0.00  0.00    +0.000 N 
ATOM      5  N   UNL     1      -4.310  12.516  22.405  0.00  0.00    +0.000 NA
ATOM      6  C   UNL     1      -4.389  13.244  23.517  0.00  0.00    +0.000 A 
ATOM      7  C   UNL     1      -3.181  13.891  23.812  0.00  0.00    +0.000 A 
ATOM      8  C   UNL     1      -2.319  13.559  22.791  0.00  0.00    +0.000 A 
ATOM      9  C   UNL     1      -3.406  12.011  19.587  0.00  0.00    +0.000 A 
ATOM     10  C   UNL     1      -4.740  12.443  19.227  0.00  0.00    +0.000 A 
ATOM     11  C   UNL     1      -5.063  12.104  17.927  0.00  0.00    +0.000 A 
ATOM     12  S   UNL     1      -3.797  11.311  17.124  0.00  0.00    +0.000 S 
ATOM     13  C   UNL     1      -2.791  11.416  18.496  0.00  0.00    +0.000 A 
ATOM     14  N   UNL     1      -1.531  10.947  18.427  0.00  0.00    +0.000 NA
ATOM     15  C   UNL     1      -6.355  12.440  17.242  0.00  0.00    +0.000 C 
ATOM     16  C   UNL     1      -7.423  12.843  18.273  0.00  0.00    +0.000 C 
ATOM     17  C   UNL     1      -6.849  13.847  19.287  0.00  0.00    +0.000 C 
ATOM     18  C   UNL     1      -7.915  14.368  20.249  0.00  0.00    +0.000 C 
ATOM     19  C   UNL     1      -5.717  13.192  20.086  0.00  0.00    +0.000 C 
ENDROOT
BRANCH   8  20
ATOM     20  N   UNL     1      -1.060  13.981  22.523  0.00  0.00    +0.000 N 
ATOM     21  H   UNL     1      -0.320  14.001  23.224  0.00  0.00    +0.000 HD
ATOM     22  H   UNL     1      -0.725  14.041  21.562  0.00  0.00    +0.000 HD
ENDBRANCH   8  20
BRANCH   7  23
ATOM     23  C   UNL     1      -2.923  14.738  24.914  0.00  0.00    +0.000 C 
ATOM     24  N   UNL     1      -2.718  15.431  25.819  0.00  0.00    +0.000 NA
ENDBRANCH   7  23
BRANCH   1  25
ATOM     25  S   UNL     1       0.801  10.456  19.617  0.00  0.00    +0.000 S 
BRANCH  25  26
ATOM     26  C   UNL     1       0.483   9.039  20.714  0.00  0.00    +0.000 C 
BRANCH  26  28
ATOM     27  C   UNL     1      -0.025   9.505  23.142  0.00  0.00    +0.000 C 
ATOM     28  C   UNL     1       1.067   9.328  22.097  0.00  0.00    +0.000 C 
ENDBRANCH  26  28
ENDBRANCH  25  26
ENDBRANCH   1  25
TORSDOF 5
ENDMDL
