MODEL 1
REMARK VINA RESULT:      -7.1      0.000      0.000
REMARK  Name = 
REMARK  1 active torsions:
REMARK  status: ('A' for Active; 'I' for Inactive)
REMARK    1  A    between atoms: C_5  and  C_6
REMARK                            x       y       z     vdW  Elec       q    Type
REMARK                         _______ _______ _______ _____ _____    ______ ____
ROOT
ATOM      1  O   UNL     1       7.209   5.280  20.003  0.00  0.00    +0.000 OA
ATOM      2  C   UNL     1       6.476   5.284  19.017  0.00  0.00    +0.000 C 
ATOM      3  C   UNL     1       5.198   6.079  18.995  0.00  0.00    +0.000 C 
ATOM      4  C   UNL     1       4.626   6.298  17.606  0.00  0.00    +0.000 C 
ATOM      5  C   UNL     1       4.573   4.987  16.813  0.00  0.00    +0.000 C 
ATOM      6  C   UNL     1       6.003   4.504  16.713  0.00  0.00    +0.000 C 
ATOM      7  C   UNL     1       6.657   4.113  15.606  0.00  0.00    +0.000 C 
ATOM      8  I   UNL     1       5.936   4.025  13.703  0.00  0.00    +0.000 I 
ATOM      9  O   UNL     1       6.774   4.535  17.919  0.00  0.00    +0.000 OA
ENDROOT
BRANCH   5  10
ATOM     10  C   UNL     1       3.571   3.997  17.407  0.00  0.00    +0.000 A 
ATOM     11  C   UNL     1       2.258   4.438  17.666  0.00  0.00    +0.000 A 
ATOM     12  C   UNL     1       1.314   3.595  18.257  0.00  0.00    +0.000 A 
ATOM     13  C   UNL     1       1.657   2.289  18.585  0.00  0.00    +0.000 A 
ATOM     14  C   UNL     1       2.941   1.823  18.310  0.00  0.00    +0.000 A 
ATOM     15  C   UNL     1       3.889   2.667  17.723  0.00  0.00    +0.000 A 
ENDBRANCH   5  10
TORSDOF 1
ENDMDL
MODEL 2
REMARK VINA RESULT:      -6.9      0.093      1.245
REMARK  Name = 
REMARK  1 active torsions:
REMARK  status: ('A' for Active; 'I' for Inactive)
REMARK    1  A    between atoms: C_5  and  C_6
REMARK                            x       y       z     vdW  Elec       q    Type
REMARK                         _______ _______ _______ _____ _____    ______ ____
ROOT
ATOM      1  O   UNL     1       7.200   5.298  20.020  0.00  0.00    +0.000 OA
ATOM      2  C   UNL     1       6.477   5.315  19.028  0.00  0.00    +0.000 C 
ATOM      3  C   UNL     1       5.227   6.152  18.983  0.00  0.00    +0.000 C 
ATOM      4  C   UNL     1       4.676   6.373  17.587  0.00  0.00    +0.000 C 
ATOM      5  C   UNL     1       4.586   5.055  16.810  0.00  0.00    +0.000 C 
ATOM      6  C   UNL     1       5.999   4.522  16.729  0.00  0.00    +0.000 C 
ATOM      7  C   UNL     1       6.649   4.095  15.633  0.00  0.00    +0.000 C 
ATOM      8  I   UNL     1       5.943   4.008  13.725  0.00  0.00    +0.000 I 
ATOM      9  O   UNL     1       6.759   4.542  17.942  0.00  0.00    +0.000 OA
ENDROOT
BRANCH   5  10
ATOM     10  C   UNL     1       3.545   4.107  17.406  0.00  0.00    +0.000 A 
ATOM     11  C   UNL     1       3.909   2.765  17.638  0.00  0.00    +0.000 A 
ATOM     12  C   UNL     1       2.986   1.840  18.131  0.00  0.00    +0.000 A 
ATOM     13  C   UNL     1       1.685   2.239  18.417  0.00  0.00    +0.000 A 
ATOM     14  C   UNL     1       1.313   3.567  18.222  0.00  0.00    +0.000 A 
ATOM     15  C   UNL     1       2.234   4.494  17.725  0.00  0.00    +0.000 A 
ENDBRANCH   5  10
TORSDOF 1
ENDMDL
MODEL 3
REMARK VINA RESULT:      -6.7      2.864      4.661
REMARK  Name = 
REMARK  1 active torsions:
REMARK  status: ('A' for Active; 'I' for Inactive)
REMARK    1  A    between atoms: C_5  and  C_6
REMARK                            x       y       z     vdW  Elec       q    Type
REMARK                         _______ _______ _______ _____ _____    ______ ____
ROOT
ATOM      1  O   UNL     1       3.022   2.617  21.048  0.00  0.00    +0.000 OA
ATOM      2  C   UNL     1       2.966   3.340  20.056  0.00  0.00    +0.000 C 
ATOM      3  C   UNL     1       2.914   2.762  18.667  0.00  0.00    +0.000 C 
ATOM      4  C   UNL     1       2.455   3.742  17.604  0.00  0.00    +0.000 C 
ATOM      5  C   UNL     1       3.208   5.072  17.711  0.00  0.00    +0.000 C 
ATOM      6  C   UNL     1       2.895   5.618  19.086  0.00  0.00    +0.000 C 
ATOM      7  C   UNL     1       2.466   6.855  19.395  0.00  0.00    +0.000 C 
ATOM      8  I   UNL     1       2.117   8.404  18.120  0.00  0.00    +0.000 I 
ATOM      9  O   UNL     1       2.991   4.696  20.176  0.00  0.00    +0.000 OA
ENDROOT
BRANCH   5  10
ATOM     10  C   UNL     1       4.691   4.922  17.372  0.00  0.00    +0.000 A 
ATOM     11  C   UNL     1       5.046   4.417  16.105  0.00  0.00    +0.000 A 
ATOM     12  C   UNL     1       6.383   4.208  15.757  0.00  0.00    +0.000 A 
ATOM     13  C   UNL     1       7.393   4.513  16.663  0.00  0.00    +0.000 A 
ATOM     14  C   UNL     1       7.065   5.042  17.909  0.00  0.00    +0.000 A 
ATOM     15  C   UNL     1       5.727   5.248  18.260  0.00  0.00    +0.000 A 
ENDBRANCH   5  10
TORSDOF 1
ENDMDL
MODEL 4
REMARK VINA RESULT:      -6.7      2.943      4.682
REMARK  Name = 
REMARK  1 active torsions:
REMARK  status: ('A' for Active; 'I' for Inactive)
REMARK    1  A    between atoms: C_5  and  C_6
REMARK                            x       y       z     vdW  Elec       q    Type
REMARK                         _______ _______ _______ _____ _____    ______ ____
ROOT
ATOM      1  O   UNL     1       2.644   2.950  21.303  0.00  0.00    +0.000 OA
ATOM      2  C   UNL     1       2.637   3.624  20.276  0.00  0.00    +0.000 C 
ATOM      3  C   UNL     1       2.545   2.981  18.918  0.00  0.00    +0.000 C 
ATOM      4  C   UNL     1       2.153   3.935  17.805  0.00  0.00    +0.000 C 
ATOM      5  C   UNL     1       2.994   5.215  17.847  0.00  0.00    +0.000 C 
ATOM      6  C   UNL     1       2.718   5.850  19.191  0.00  0.00    +0.000 C 
ATOM      7  C   UNL     1       2.375   7.126  19.437  0.00  0.00    +0.000 C 
ATOM      8  I   UNL     1       2.130   8.629  18.084  0.00  0.00    +0.000 I 
ATOM      9  O   UNL     1       2.753   4.980  20.327  0.00  0.00    +0.000 OA
ENDROOT
BRANCH   5  10
ATOM     10  C   UNL     1       4.463   4.949  17.520  0.00  0.00    +0.000 A 
ATOM     11  C   UNL     1       5.445   5.358  18.444  0.00  0.00    +0.000 A 
ATOM     12  C   UNL     1       6.806   5.189  18.177  0.00  0.00    +0.000 A 
ATOM     13  C   UNL     1       7.213   4.594  16.989  0.00  0.00    +0.000 A 
ATOM     14  C   UNL     1       6.258   4.155  16.075  0.00  0.00    +0.000 A 
ATOM     15  C   UNL     1       4.896   4.327  16.339  0.00  0.00    +0.000 A 
ENDBRANCH   5  10
TORSDOF 1
ENDMDL
MODEL 5
REMARK VINA RESULT:      -6.6      3.076      4.277
REMARK  Name = 
REMARK  1 active torsions:
REMARK  status: ('A' for Active; 'I' for Inactive)
REMARK    1  A    between atoms: C_5  and  C_6
REMARK                            x       y       z     vdW  Elec       q    Type
REMARK                         _______ _______ _______ _____ _____    ______ ____
ROOT
ATOM      1  O   UNL     1       6.963   5.461  19.725  0.00  0.00    +0.000 OA
ATOM      2  C   UNL     1       5.880   5.328  19.160  0.00  0.00    +0.000 C 
ATOM      3  C   UNL     1       5.583   6.029  17.861  0.00  0.00    +0.000 C 
ATOM      4  C   UNL     1       4.394   5.463  17.108  0.00  0.00    +0.000 C 
ATOM      5  C   UNL     1       3.181   5.290  18.030  0.00  0.00    +0.000 C 
ATOM      6  C   UNL     1       3.615   4.325  19.111  0.00  0.00    +0.000 C 
ATOM      7  C   UNL     1       2.970   3.221  19.527  0.00  0.00    +0.000 C 
ATOM      8  I   UNL     1       1.191   2.495  18.853  0.00  0.00    +0.000 I 
ATOM      9  O   UNL     1       4.892   4.569  19.710  0.00  0.00    +0.000 OA
ENDROOT
BRANCH   5  10
ATOM     10  C   UNL     1       2.630   6.632  18.511  0.00  0.00    +0.000 A 
ATOM     11  C   UNL     1       2.261   6.764  19.865  0.00  0.00    +0.000 A 
ATOM     12  C   UNL     1       1.703   7.948  20.351  0.00  0.00    +0.000 A 
ATOM     13  C   UNL     1       1.516   9.031  19.499  0.00  0.00    +0.000 A 
ATOM     14  C   UNL     1       1.901   8.932  18.164  0.00  0.00    +0.000 A 
ATOM     15  C   UNL     1       2.457   7.745  17.675  0.00  0.00    +0.000 A 
ENDBRANCH   5  10
TORSDOF 1
ENDMDL
MODEL 6
REMARK VINA RESULT:      -6.6      3.597      5.044
REMARK  Name = 
REMARK  1 active torsions:
REMARK  status: ('A' for Active; 'I' for Inactive)
REMARK    1  A    between atoms: C_5  and  C_6
REMARK                            x       y       z     vdW  Elec       q    Type
REMARK                         _______ _______ _______ _____ _____    ______ ____
ROOT
ATOM      1  O   UNL     1       0.603   2.808  18.250  0.00  0.00    +0.000 OA
ATOM      2  C   UNL     1       1.441   3.540  18.772  0.00  0.00    +0.000 C 
ATOM      3  C   UNL     1       1.211   4.150  20.129  0.00  0.00    +0.000 C 
ATOM      4  C   UNL     1       2.468   4.684  20.791  0.00  0.00    +0.000 C 
ATOM      5  C   UNL     1       3.275   5.561  19.827  0.00  0.00    +0.000 C 
ATOM      6  C   UNL     1       3.643   4.669  18.663  0.00  0.00    +0.000 C 
ATOM      7  C   UNL     1       4.861   4.497  18.119  0.00  0.00    +0.000 C 
ATOM      8  I   UNL     1       6.605   5.392  18.671  0.00  0.00    +0.000 I 
ATOM      9  O   UNL     1       2.595   3.858  18.123  0.00  0.00    +0.000 OA
ENDROOT
BRANCH   5  10
ATOM     10  C   UNL     1       2.540   6.854  19.474  0.00  0.00    +0.000 A 
ATOM     11  C   UNL     1       2.599   7.324  18.147  0.00  0.00    +0.000 A 
ATOM     12  C   UNL     1       1.992   8.526  17.777  0.00  0.00    +0.000 A 
ATOM     13  C   UNL     1       1.300   9.276  18.721  0.00  0.00    +0.000 A 
ATOM     14  C   UNL     1       1.204   8.815  20.032  0.00  0.00    +0.000 A 
ATOM     15  C   UNL     1       1.815   7.614  20.406  0.00  0.00    +0.000 A 
ENDBRANCH   5  10
TORSDOF 1
ENDMDL
MODEL 7
REMARK VINA RESULT:      -6.5      3.586      4.983
REMARK  Name = 
REMARK  1 active torsions:
REMARK  status: ('A' for Active; 'I' for Inactive)
REMARK    1  A    between atoms: C_5  and  C_6
REMARK                            x       y       z     vdW  Elec       q    Type
REMARK                         _______ _______ _______ _____ _____    ______ ____
ROOT
ATOM      1  O   UNL     1       0.616   2.868  18.182  0.00  0.00    +0.000 OA
ATOM      2  C   UNL     1       1.460   3.591  18.705  0.00  0.00    +0.000 C 
ATOM      3  C   UNL     1       1.224   4.223  20.051  0.00  0.00    +0.000 C 
ATOM      4  C   UNL     1       2.481   4.743  20.722  0.00  0.00    +0.000 C 
ATOM      5  C   UNL     1       3.316   5.594  19.757  0.00  0.00    +0.000 C 
ATOM      6  C   UNL     1       3.683   4.681  18.609  0.00  0.00    +0.000 C 
ATOM      7  C   UNL     1       4.904   4.481  18.083  0.00  0.00    +0.000 C 
ATOM      8  I   UNL     1       6.656   5.353  18.645  0.00  0.00    +0.000 I 
ATOM      9  O   UNL     1       2.627   3.881  18.066  0.00  0.00    +0.000 OA
ENDROOT
BRANCH   5  10
ATOM     10  C   UNL     1       2.607   6.895  19.379  0.00  0.00    +0.000 A 
ATOM     11  C   UNL     1       1.911   7.600  20.380  0.00  0.00    +0.000 A 
ATOM     12  C   UNL     1       1.201   8.766  20.084  0.00  0.00    +0.000 A 
ATOM     13  C   UNL     1       1.185   9.260  18.785  0.00  0.00    +0.000 A 
ATOM     14  C   UNL     1       1.892   8.595  17.786  0.00  0.00    +0.000 A 
ATOM     15  C   UNL     1       2.599   7.425  18.080  0.00  0.00    +0.000 A 
ENDBRANCH   5  10
TORSDOF 1
ENDMDL
MODEL 8
REMARK VINA RESULT:      -6.5      3.085      4.249
REMARK  Name = 
REMARK  1 active torsions:
REMARK  status: ('A' for Active; 'I' for Inactive)
REMARK    1  A    between atoms: C_5  and  C_6
REMARK                            x       y       z     vdW  Elec       q    Type
REMARK                         _______ _______ _______ _____ _____    ______ ____
ROOT
ATOM      1  O   UNL     1       6.909   5.473  19.743  0.00  0.00    +0.000 OA
ATOM      2  C   UNL     1       5.826   5.328  19.181  0.00  0.00    +0.000 C 
ATOM      3  C   UNL     1       5.507   6.047  17.898  0.00  0.00    +0.000 C 
ATOM      4  C   UNL     1       4.325   5.470  17.141  0.00  0.00    +0.000 C 
ATOM      5  C   UNL     1       3.122   5.257  18.065  0.00  0.00    +0.000 C 
ATOM      6  C   UNL     1       3.581   4.282  19.127  0.00  0.00    +0.000 C 
ATOM      7  C   UNL     1       2.960   3.158  19.526  0.00  0.00    +0.000 C 
ATOM      8  I   UNL     1       1.192   2.407  18.849  0.00  0.00    +0.000 I 
ATOM      9  O   UNL     1       4.856   4.540  19.723  0.00  0.00    +0.000 OA
ENDROOT
BRANCH   5  10
ATOM     10  C   UNL     1       2.547   6.578  18.574  0.00  0.00    +0.000 A 
ATOM     11  C   UNL     1       2.383   7.640  17.662  0.00  0.00    +0.000 A 
ATOM     12  C   UNL     1       1.913   8.887  18.078  0.00  0.00    +0.000 A 
ATOM     13  C   UNL     1       1.580   9.096  19.412  0.00  0.00    +0.000 A 
ATOM     14  C   UNL     1       1.706   8.051  20.325  0.00  0.00    +0.000 A 
ATOM     15  C   UNL     1       2.181   6.803  19.910  0.00  0.00    +0.000 A 
ENDBRANCH   5  10
TORSDOF 1
ENDMDL
MODEL 9
REMARK VINA RESULT:      -6.5      2.533      4.516
REMARK  Name = 
REMARK  1 active torsions:
REMARK  status: ('A' for Active; 'I' for Inactive)
REMARK    1  A    between atoms: C_5  and  C_6
REMARK                            x       y       z     vdW  Elec       q    Type
REMARK                         _______ _______ _______ _____ _____    ______ ____
ROOT
ATOM      1  O   UNL     1       4.677   2.072  20.346  0.00  0.00    +0.000 OA
ATOM      2  C   UNL     1       4.229   2.819  19.479  0.00  0.00    +0.000 C 
ATOM      3  C   UNL     1       3.775   2.289  18.146  0.00  0.00    +0.000 C 
ATOM      4  C   UNL     1       2.900   3.248  17.361  0.00  0.00    +0.000 C 
ATOM      5  C   UNL     1       3.516   4.651  17.311  0.00  0.00    +0.000 C 
ATOM      6  C   UNL     1       3.624   5.109  18.748  0.00  0.00    +0.000 C 
ATOM      7  C   UNL     1       3.207   6.277  19.267  0.00  0.00    +0.000 C 
ATOM      8  I   UNL     1       2.311   7.821  18.288  0.00  0.00    +0.000 I 
ATOM      9  O   UNL     1       4.163   4.165  19.681  0.00  0.00    +0.000 OA
ENDROOT
BRANCH   5  10
ATOM     10  C   UNL     1       4.811   4.681  16.500  0.00  0.00    +0.000 A 
ATOM     11  C   UNL     1       5.919   5.378  17.021  0.00  0.00    +0.000 A 
ATOM     12  C   UNL     1       7.111   5.486  16.302  0.00  0.00    +0.000 A 
ATOM     13  C   UNL     1       7.227   4.885  15.053  0.00  0.00    +0.000 A 
ATOM     14  C   UNL     1       6.154   4.166  14.532  0.00  0.00    +0.000 A 
ATOM     15  C   UNL     1       4.958   4.061  15.249  0.00  0.00    +0.000 A 
ENDBRANCH   5  10
TORSDOF 1
ENDMDL
