MODEL 1
REMARK VINA RESULT:      -8.8      0.000      0.000
REMARK  Name = 
REMARK  8 active torsions:
REMARK  status: ('A' for Active; 'I' for Inactive)
REMARK    1  A    between atoms: O_1  and  C_2
REMARK    2  A    between atoms: C_2  and  C_3
REMARK    3  A    between atoms: C_5  and  N_6
REMARK    4  A    between atoms: N_6  and  C_7
REMARK    5  A    between atoms: N_10  and  C_11
REMARK    6  A    between atoms: C_19  and  C_20
REMARK    7  A    between atoms: C_29  and  O_30
REMARK    8  A    between atoms: C_31  and  O_32
REMARK                            x       y       z     vdW  Elec       q    Type
REMARK                         _______ _______ _______ _____ _____    ______ ____
ROOT
ATOM      1  C   UNL     1       2.600   7.036  19.275  0.00  0.00    +0.000 A 
ATOM      2  N   UNL     1       3.512   6.492  18.451  0.00  0.00    +0.000 NA
ATOM      3  C   UNL     1       3.877   7.141  17.334  0.00  0.00    +0.000 A 
ATOM      4  N   UNL     1       4.864   6.582  16.527  0.00  0.00    +0.000 N 
ATOM      5  N   UNL     1       3.358   8.303  16.952  0.00  0.00    +0.000 NA
ATOM      6  C   UNL     1       2.464   8.849  17.799  0.00  0.00    +0.000 A 
ATOM      7  C   UNL     1       2.063   8.293  19.009  0.00  0.00    +0.000 A 
ATOM      8  H   UNL     1       5.021   7.143  15.702  0.00  0.00    +0.000 HD
ENDROOT
BRANCH   7   9
ATOM      9  C   UNL     1       1.027   8.995  19.766  0.00  0.00    +0.000 A 
ATOM     10  N   UNL     1       0.737   8.688  21.016  0.00  0.00    +0.000 NA
ATOM     11  C   UNL     1      -0.128   9.622  21.550  0.00  0.00    +0.000 A 
ATOM     12  C   UNL     1      -0.514   9.708  22.902  0.00  0.00    +0.000 A 
ATOM     13  C   UNL     1      -1.291  10.788  23.328  0.00  0.00    +0.000 A 
ATOM     14  C   UNL     1      -1.736  11.739  22.414  0.00  0.00    +0.000 A 
ATOM     15  C   UNL     1      -1.431  11.629  21.053  0.00  0.00    +0.000 A 
ATOM     16  C   UNL     1      -0.598  10.575  20.647  0.00  0.00    +0.000 A 
ATOM     17  S   UNL     1       0.040  10.225  19.087  0.00  0.00    +0.000 S 
ENDBRANCH   7   9
BRANCH   4  18
ATOM     18  C   UNL     1       5.911   5.762  16.949  0.00  0.00    +0.000 A 
ATOM     19  C   UNL     1       6.281   5.674  18.276  0.00  0.00    +0.000 A 
ATOM     20  N   UNL     1       7.339   4.962  18.734  0.00  0.00    +0.000 NA
ATOM     21  C   UNL     1       8.043   4.313  17.802  0.00  0.00    +0.000 A 
ATOM     22  N   UNL     1       7.794   4.291  16.484  0.00  0.00    +0.000 NA
ATOM     23  C   UNL     1       6.720   5.030  16.098  0.00  0.00    +0.000 A 
ENDBRANCH   4  18
BRANCH   1  24
ATOM     24  N   UNL     1       2.238   6.276  20.413  0.00  0.00    +0.000 N 
ATOM     25  H   UNL     1       3.102   6.094  20.919  0.00  0.00    +0.000 HD
BRANCH  24  28
ATOM     26  C   UNL     1       2.784   2.871  20.187  0.00  0.00    +0.000 C 
ATOM     27  C   UNL     1       2.029   3.880  21.069  0.00  0.00    +0.000 C 
ATOM     28  C   UNL     1       1.510   5.010  20.141  0.00  0.00    +0.000 C 
ATOM     29  C   UNL     1       1.818   4.476  18.710  0.00  0.00    +0.000 C 
ATOM     30  C   UNL     1       3.095   3.650  18.916  0.00  0.00    +0.000 C 
BRANCH  29  31
ATOM     31  O   UNL     1       0.749   3.653  18.215  0.00  0.00    +0.000 OA
ATOM     32  H   UNL     1       0.555   3.889  17.291  0.00  0.00    +0.000 HD
ENDBRANCH  29  31
BRANCH  30  33
ATOM     33  O   UNL     1       3.417   2.788  17.838  0.00  0.00    +0.000 OA
ATOM     34  H   UNL     1       4.364   2.886  17.635  0.00  0.00    +0.000 HD
ENDBRANCH  30  33
BRANCH  26  35
ATOM     35  C   UNL     1       4.034   2.293  20.832  0.00  0.00    +0.000 C 
BRANCH  35  36
ATOM     36  O   UNL     1       5.129   2.376  19.928  0.00  0.00    +0.000 OA
ATOM     37  H   UNL     1       5.058   3.221  19.452  0.00  0.00    +0.000 HD
ENDBRANCH  35  36
ENDBRANCH  26  35
ENDBRANCH  24  28
ENDBRANCH   1  24
TORSDOF 8
ENDMDL
MODEL 2
REMARK VINA RESULT:      -8.3      5.314      9.817
REMARK  Name = 
REMARK  8 active torsions:
REMARK  status: ('A' for Active; 'I' for Inactive)
REMARK    1  A    between atoms: O_1  and  C_2
REMARK    2  A    between atoms: C_2  and  C_3
REMARK    3  A    between atoms: C_5  and  N_6
REMARK    4  A    between atoms: N_6  and  C_7
REMARK    5  A    between atoms: N_10  and  C_11
REMARK    6  A    between atoms: C_19  and  C_20
REMARK    7  A    between atoms: C_29  and  O_30
REMARK    8  A    between atoms: C_31  and  O_32
REMARK                            x       y       z     vdW  Elec       q    Type
REMARK                         _______ _______ _______ _____ _____    ______ ____
ROOT
ATOM      1  C   UNL     1      -0.440  12.310  19.013  0.00  0.00    +0.000 A 
ATOM      2  N   UNL     1      -0.824  13.544  19.381  0.00  0.00    +0.000 NA
ATOM      3  C   UNL     1      -0.359  14.078  20.521  0.00  0.00    +0.000 A 
ATOM      4  N   UNL     1      -0.729  15.379  20.851  0.00  0.00    +0.000 N 
ATOM      5  N   UNL     1       0.450  13.440  21.359  0.00  0.00    +0.000 NA
ATOM      6  C   UNL     1       0.847  12.214  20.967  0.00  0.00    +0.000 A 
ATOM      7  C   UNL     1       0.477  11.594  19.779  0.00  0.00    +0.000 A 
ATOM      8  H   UNL     1      -0.347  15.651  21.746  0.00  0.00    +0.000 HD
ENDROOT
BRANCH   7   9
ATOM      9  C   UNL     1       0.951  10.229  19.551  0.00  0.00    +0.000 A 
ATOM     10  N   UNL     1       1.484   9.849  18.406  0.00  0.00    +0.000 NA
ATOM     11  C   UNL     1       2.019   8.582  18.523  0.00  0.00    +0.000 A 
ATOM     12  C   UNL     1       2.813   7.931  17.559  0.00  0.00    +0.000 A 
ATOM     13  C   UNL     1       3.401   6.702  17.868  0.00  0.00    +0.000 A 
ATOM     14  C   UNL     1       3.154   6.092  19.095  0.00  0.00    +0.000 A 
ATOM     15  C   UNL     1       2.304   6.684  20.036  0.00  0.00    +0.000 A 
ATOM     16  C   UNL     1       1.771   7.947  19.740  0.00  0.00    +0.000 A 
ATOM     17  S   UNL     1       0.790   8.974  20.713  0.00  0.00    +0.000 S 
ENDBRANCH   7   9
BRANCH   4  18
ATOM     18  C   UNL     1      -1.042  16.402  19.955  0.00  0.00    +0.000 A 
ATOM     19  C   UNL     1      -2.201  17.144  20.070  0.00  0.00    +0.000 A 
ATOM     20  N   UNL     1      -2.598  18.091  19.186  0.00  0.00    +0.000 NA
ATOM     21  C   UNL     1      -1.780  18.290  18.147  0.00  0.00    +0.000 A 
ATOM     22  N   UNL     1      -0.618  17.660  17.914  0.00  0.00    +0.000 NA
ATOM     23  C   UNL     1      -0.286  16.722  18.842  0.00  0.00    +0.000 A 
ENDBRANCH   4  18
BRANCH   1  24
ATOM     24  N   UNL     1      -1.000  11.800  17.818  0.00  0.00    +0.000 N 
ATOM     25  H   UNL     1      -1.349  12.603  17.301  0.00  0.00    +0.000 HD
BRANCH  24  28
ATOM     26  C   UNL     1      -3.361  10.065  15.983  0.00  0.00    +0.000 C 
ATOM     27  C   UNL     1      -2.074   9.800  16.785  0.00  0.00    +0.000 C 
ATOM     28  C   UNL     1      -2.068  10.780  17.988  0.00  0.00    +0.000 C 
ATOM     29  C   UNL     1      -3.483  11.428  17.938  0.00  0.00    +0.000 C 
ATOM     30  C   UNL     1      -3.800  11.451  16.436  0.00  0.00    +0.000 C 
BRANCH  29  31
ATOM     31  O   UNL     1      -4.449  10.641  18.654  0.00  0.00    +0.000 OA
ATOM     32  H   UNL     1      -5.085  11.227  19.097  0.00  0.00    +0.000 HD
ENDBRANCH  29  31
BRANCH  30  33
ATOM     33  O   UNL     1      -5.161  11.697  16.127  0.00  0.00    +0.000 OA
ATOM     34  H   UNL     1      -5.371  12.618  16.361  0.00  0.00    +0.000 HD
ENDBRANCH  30  33
BRANCH  26  35
ATOM     35  C   UNL     1      -3.185   9.977  14.476  0.00  0.00    +0.000 C 
BRANCH  35  36
ATOM     36  O   UNL     1      -4.453   9.830  13.848  0.00  0.00    +0.000 OA
ATOM     37  H   UNL     1      -4.315   9.363  13.006  0.00  0.00    +0.000 HD
ENDBRANCH  35  36
ENDBRANCH  26  35
ENDBRANCH  24  28
ENDBRANCH   1  24
TORSDOF 8
ENDMDL
MODEL 3
REMARK VINA RESULT:      -8.2      5.257      9.460
REMARK  Name = 
REMARK  8 active torsions:
REMARK  status: ('A' for Active; 'I' for Inactive)
REMARK    1  A    between atoms: O_1  and  C_2
REMARK    2  A    between atoms: C_2  and  C_3
REMARK    3  A    between atoms: C_5  and  N_6
REMARK    4  A    between atoms: N_6  and  C_7
REMARK    5  A    between atoms: N_10  and  C_11
REMARK    6  A    between atoms: C_19  and  C_20
REMARK    7  A    between atoms: C_29  and  O_30
REMARK    8  A    between atoms: C_31  and  O_32
REMARK                            x       y       z     vdW  Elec       q    Type
REMARK                         _______ _______ _______ _____ _____    ______ ____
ROOT
ATOM      1  C   UNL     1       0.076  12.013  19.007  0.00  0.00    +0.000 A 
ATOM      2  N   UNL     1      -0.152  13.316  19.244  0.00  0.00    +0.000 NA
ATOM      3  C   UNL     1       0.354  13.894  20.345  0.00  0.00    +0.000 A 
ATOM      4  N   UNL     1       0.150  15.257  20.539  0.00  0.00    +0.000 N 
ATOM      5  N   UNL     1       1.054  13.242  21.267  0.00  0.00    +0.000 NA
ATOM      6  C   UNL     1       1.295  11.943  21.004  0.00  0.00    +0.000 A 
ATOM      7  C   UNL     1       0.874  11.263  19.868  0.00  0.00    +0.000 A 
ATOM      8  H   UNL     1       0.544  15.563  21.418  0.00  0.00    +0.000 HD
ENDROOT
BRANCH   7   9
ATOM      9  C   UNL     1       1.170   9.833  19.785  0.00  0.00    +0.000 A 
ATOM     10  N   UNL     1       1.646   9.273  18.689  0.00  0.00    +0.000 NA
ATOM     11  C   UNL     1       2.017   7.968  18.940  0.00  0.00    +0.000 A 
ATOM     12  C   UNL     1       2.717   7.125  18.055  0.00  0.00    +0.000 A 
ATOM     13  C   UNL     1       3.146   5.870  18.493  0.00  0.00    +0.000 A 
ATOM     14  C   UNL     1       2.828   5.425  19.773  0.00  0.00    +0.000 A 
ATOM     15  C   UNL     1       2.064   6.213  20.641  0.00  0.00    +0.000 A 
ATOM     16  C   UNL     1       1.694   7.497  20.213  0.00  0.00    +0.000 A 
ATOM     17  S   UNL     1       0.855   8.734  21.067  0.00  0.00    +0.000 S 
ENDBRANCH   7   9
BRANCH   4  18
ATOM     18  C   UNL     1      -0.006  16.220  19.541  0.00  0.00    +0.000 A 
ATOM     19  C   UNL     1       1.063  16.688  18.803  0.00  0.00    +0.000 A 
ATOM     20  N   UNL     1       0.986  17.679  17.882  0.00  0.00    +0.000 NA
ATOM     21  C   UNL     1      -0.228  18.209  17.705  0.00  0.00    +0.000 A 
ATOM     22  N   UNL     1      -1.357  17.846  18.333  0.00  0.00    +0.000 NA
ATOM     23  C   UNL     1      -1.202  16.849  19.244  0.00  0.00    +0.000 A 
ENDBRANCH   4  18
BRANCH   1  24
ATOM     24  N   UNL     1      -0.520  11.465  17.846  0.00  0.00    +0.000 N 
ATOM     25  H   UNL     1      -0.723  12.250  17.233  0.00  0.00    +0.000 HD
BRANCH  24  28
ATOM     26  C   UNL     1      -3.188  10.108  16.117  0.00  0.00    +0.000 C 
ATOM     27  C   UNL     1      -1.942   9.650  16.895  0.00  0.00    +0.000 C 
ATOM     28  C   UNL     1      -1.738  10.643  18.070  0.00  0.00    +0.000 C 
ATOM     29  C   UNL     1      -3.026  11.518  18.035  0.00  0.00    +0.000 C 
ATOM     30  C   UNL     1      -3.377  11.558  16.541  0.00  0.00    +0.000 C 
BRANCH  29  31
ATOM     31  O   UNL     1      -4.089  10.922  18.795  0.00  0.00    +0.000 OA
ATOM     32  H   UNL     1      -3.915   9.972  18.912  0.00  0.00    +0.000 HD
ENDBRANCH  29  31
BRANCH  30  33
ATOM     33  O   UNL     1      -4.685  12.022  16.258  0.00  0.00    +0.000 OA
ATOM     34  H   UNL     1      -4.628  12.945  15.953  0.00  0.00    +0.000 HD
ENDBRANCH  30  33
BRANCH  26  35
ATOM     35  C   UNL     1      -3.072   9.956  14.609  0.00  0.00    +0.000 C 
BRANCH  35  36
ATOM     36  O   UNL     1      -4.367   9.943  14.022  0.00  0.00    +0.000 OA
ATOM     37  H   UNL     1      -4.578   9.024  13.786  0.00  0.00    +0.000 HD
ENDBRANCH  35  36
ENDBRANCH  26  35
ENDBRANCH  24  28
ENDBRANCH   1  24
TORSDOF 8
ENDMDL
MODEL 4
REMARK VINA RESULT:      -8.2      1.213      1.812
REMARK  Name = 
REMARK  8 active torsions:
REMARK  status: ('A' for Active; 'I' for Inactive)
REMARK    1  A    between atoms: O_1  and  C_2
REMARK    2  A    between atoms: C_2  and  C_3
REMARK    3  A    between atoms: C_5  and  N_6
REMARK    4  A    between atoms: N_6  and  C_7
REMARK    5  A    between atoms: N_10  and  C_11
REMARK    6  A    between atoms: C_19  and  C_20
REMARK    7  A    between atoms: C_29  and  O_30
REMARK    8  A    between atoms: C_31  and  O_32
REMARK                            x       y       z     vdW  Elec       q    Type
REMARK                         _______ _______ _______ _____ _____    ______ ____
ROOT
ATOM      1  C   UNL     1       2.262   7.462  19.381  0.00  0.00    +0.000 A 
ATOM      2  N   UNL     1       3.170   6.897  18.568  0.00  0.00    +0.000 NA
ATOM      3  C   UNL     1       3.533   7.519  17.435  0.00  0.00    +0.000 A 
ATOM      4  N   UNL     1       4.517   6.939  16.639  0.00  0.00    +0.000 N 
ATOM      5  N   UNL     1       3.016   8.672  17.027  0.00  0.00    +0.000 NA
ATOM      6  C   UNL     1       2.125   9.239  17.863  0.00  0.00    +0.000 A 
ATOM      7  C   UNL     1       1.726   8.713  19.086  0.00  0.00    +0.000 A 
ATOM      8  H   UNL     1       4.673   7.480  15.800  0.00  0.00    +0.000 HD
ENDROOT
BRANCH   7   9
ATOM      9  C   UNL     1       0.694   9.435  19.830  0.00  0.00    +0.000 A 
ATOM     10  N   UNL     1       0.448   9.200  21.105  0.00  0.00    +0.000 NA
ATOM     11  C   UNL     1      -0.427  10.143  21.606  0.00  0.00    +0.000 A 
ATOM     12  C   UNL     1      -0.777  10.304  22.961  0.00  0.00    +0.000 A 
ATOM     13  C   UNL     1      -1.570  11.388  23.342  0.00  0.00    +0.000 A 
ATOM     14  C   UNL     1      -2.067  12.268  22.385  0.00  0.00    +0.000 A 
ATOM     15  C   UNL     1      -1.798  12.080  21.025  0.00  0.00    +0.000 A 
ATOM     16  C   UNL     1      -0.948  11.025  20.661  0.00  0.00    +0.000 A 
ATOM     17  S   UNL     1      -0.346  10.594  19.106  0.00  0.00    +0.000 S 
ENDBRANCH   7   9
BRANCH   4  18
ATOM     18  C   UNL     1       5.564   6.127  17.077  0.00  0.00    +0.000 A 
ATOM     19  C   UNL     1       6.561   6.604  17.905  0.00  0.00    +0.000 A 
ATOM     20  N   UNL     1       7.643   5.889  18.295  0.00  0.00    +0.000 NA
ATOM     21  C   UNL     1       7.710   4.640  17.825  0.00  0.00    +0.000 A 
ATOM     22  N   UNL     1       6.812   4.038  17.030  0.00  0.00    +0.000 NA
ATOM     23  C   UNL     1       5.755   4.816  16.678  0.00  0.00    +0.000 A 
ENDBRANCH   4  18
BRANCH   1  24
ATOM     24  N   UNL     1       1.902   6.730  20.538  0.00  0.00    +0.000 N 
ATOM     25  H   UNL     1       2.050   7.354  21.327  0.00  0.00    +0.000 HD
BRANCH  24  28
ATOM     26  C   UNL     1       2.416   3.678  18.997  0.00  0.00    +0.000 C 
ATOM     27  C   UNL     1       3.206   4.937  19.396  0.00  0.00    +0.000 C 
ATOM     28  C   UNL     1       2.621   5.445  20.741  0.00  0.00    +0.000 C 
ATOM     29  C   UNL     1       1.643   4.310  21.164  0.00  0.00    +0.000 C 
ATOM     30  C   UNL     1       1.138   3.768  19.820  0.00  0.00    +0.000 C 
BRANCH  29  31
ATOM     31  O   UNL     1       2.319   3.283  21.909  0.00  0.00    +0.000 OA
ATOM     32  H   UNL     1       1.808   2.457  21.867  0.00  0.00    +0.000 HD
ENDBRANCH  29  31
BRANCH  30  33
ATOM     33  O   UNL     1       0.478   2.516  19.902  0.00  0.00    +0.000 OA
ATOM     34  H   UNL     1       0.431   2.131  19.010  0.00  0.00    +0.000 HD
ENDBRANCH  30  33
BRANCH  26  35
ATOM     35  C   UNL     1       2.138   3.563  17.507  0.00  0.00    +0.000 C 
BRANCH  35  36
ATOM     36  O   UNL     1       0.894   4.178  17.196  0.00  0.00    +0.000 OA
ATOM     37  H   UNL     1       0.304   4.056  17.959  0.00  0.00    +0.000 HD
ENDBRANCH  35  36
ENDBRANCH  26  35
ENDBRANCH  24  28
ENDBRANCH   1  24
TORSDOF 8
ENDMDL
MODEL 5
REMARK VINA RESULT:      -8.0      4.359      9.680
REMARK  Name = 
REMARK  8 active torsions:
REMARK  status: ('A' for Active; 'I' for Inactive)
REMARK    1  A    between atoms: O_1  and  C_2
REMARK    2  A    between atoms: C_2  and  C_3
REMARK    3  A    between atoms: C_5  and  N_6
REMARK    4  A    between atoms: N_6  and  C_7
REMARK    5  A    between atoms: N_10  and  C_11
REMARK    6  A    between atoms: C_19  and  C_20
REMARK    7  A    between atoms: C_29  and  O_30
REMARK    8  A    between atoms: C_31  and  O_32
REMARK                            x       y       z     vdW  Elec       q    Type
REMARK                         _______ _______ _______ _____ _____    ______ ____
ROOT
ATOM      1  C   UNL     1      -0.438  10.069  20.682  0.00  0.00    +0.000 A 
ATOM      2  N   UNL     1      -1.088  10.872  21.541  0.00  0.00    +0.000 NA
ATOM      3  C   UNL     1      -0.801  10.824  22.851  0.00  0.00    +0.000 A 
ATOM      4  N   UNL     1      -1.450  11.705  23.711  0.00  0.00    +0.000 N 
ATOM      5  N   UNL     1       0.080   9.985  23.384  0.00  0.00    +0.000 NA
ATOM      6  C   UNL     1       0.742   9.202  22.509  0.00  0.00    +0.000 A 
ATOM      7  C   UNL     1       0.569   9.216  21.130  0.00  0.00    +0.000 A 
ATOM      8  H   UNL     1      -1.178  11.544  24.671  0.00  0.00    +0.000 HD
ENDROOT
BRANCH   7   9
ATOM      9  C   UNL     1       1.327   8.245  20.342  0.00  0.00    +0.000 A 
ATOM     10  N   UNL     1       1.792   8.522  19.139  0.00  0.00    +0.000 NA
ATOM     11  C   UNL     1       2.628   7.512  18.705  0.00  0.00    +0.000 A 
ATOM     12  C   UNL     1       3.432   7.549  17.549  0.00  0.00    +0.000 A 
ATOM     13  C   UNL     1       4.332   6.509  17.304  0.00  0.00    +0.000 A 
ATOM     14  C   UNL     1       4.390   5.412  18.159  0.00  0.00    +0.000 A 
ATOM     15  C   UNL     1       3.544   5.318  19.269  0.00  0.00    +0.000 A 
ATOM     16  C   UNL     1       2.689   6.397  19.540  0.00  0.00    +0.000 A 
ATOM     17  S   UNL     1       1.615   6.635  20.864  0.00  0.00    +0.000 S 
ENDBRANCH   7   9
BRANCH   4  18
ATOM     18  C   UNL     1      -1.924  12.977  23.388  0.00  0.00    +0.000 A 
ATOM     19  C   UNL     1      -3.258  13.214  23.121  0.00  0.00    +0.000 A 
ATOM     20  N   UNL     1      -3.762  14.407  22.723  0.00  0.00    +0.000 NA
ATOM     21  C   UNL     1      -2.872  15.396  22.595  0.00  0.00    +0.000 A 
ATOM     22  N   UNL     1      -1.554  15.319  22.835  0.00  0.00    +0.000 NA
ATOM     23  C   UNL     1      -1.120  14.092  23.229  0.00  0.00    +0.000 A 
ENDBRANCH   4  18
BRANCH   1  24
ATOM     24  N   UNL     1      -0.820  10.150  19.322  0.00  0.00    +0.000 N 
ATOM     25  H   UNL     1      -0.014   9.845  18.782  0.00  0.00    +0.000 HD
BRANCH  24  28
ATOM     26  C   UNL     1      -3.536  11.650  17.798  0.00  0.00    +0.000 C 
ATOM     27  C   UNL     1      -2.804  11.651  19.152  0.00  0.00    +0.000 C 
ATOM     28  C   UNL     1      -1.289  11.482  18.860  0.00  0.00    +0.000 C 
ATOM     29  C   UNL     1      -1.201  11.607  17.310  0.00  0.00    +0.000 C 
ATOM     30  C   UNL     1      -2.538  11.018  16.838  0.00  0.00    +0.000 C 
BRANCH  29  31
ATOM     31  O   UNL     1      -1.072  12.978  16.899  0.00  0.00    +0.000 OA
ATOM     32  H   UNL     1      -0.442  13.437  17.482  0.00  0.00    +0.000 HD
ENDBRANCH  29  31
BRANCH  30  33
ATOM     33  O   UNL     1      -2.858  11.299  15.487  0.00  0.00    +0.000 OA
ATOM     34  H   UNL     1      -2.911  10.458  14.999  0.00  0.00    +0.000 HD
ENDBRANCH  30  33
BRANCH  26  35
ATOM     35  C   UNL     1      -4.869  10.918  17.811  0.00  0.00    +0.000 C 
BRANCH  35  36
ATOM     36  O   UNL     1      -5.722  11.448  16.804  0.00  0.00    +0.000 OA
ATOM     37  H   UNL     1      -6.635  11.409  17.137  0.00  0.00    +0.000 HD
ENDBRANCH  35  36
ENDBRANCH  26  35
ENDBRANCH  24  28
ENDBRANCH   1  24
TORSDOF 8
ENDMDL
MODEL 6
REMARK VINA RESULT:      -8.0      4.084      9.374
REMARK  Name = 
REMARK  8 active torsions:
REMARK  status: ('A' for Active; 'I' for Inactive)
REMARK    1  A    between atoms: O_1  and  C_2
REMARK    2  A    between atoms: C_2  and  C_3
REMARK    3  A    between atoms: C_5  and  N_6
REMARK    4  A    between atoms: N_6  and  C_7
REMARK    5  A    between atoms: N_10  and  C_11
REMARK    6  A    between atoms: C_19  and  C_20
REMARK    7  A    between atoms: C_29  and  O_30
REMARK    8  A    between atoms: C_31  and  O_32
REMARK                            x       y       z     vdW  Elec       q    Type
REMARK                         _______ _______ _______ _____ _____    ______ ____
ROOT
ATOM      1  C   UNL     1      -0.281   9.734  20.492  0.00  0.00    +0.000 A 
ATOM      2  N   UNL     1      -0.931  10.550  21.339  0.00  0.00    +0.000 NA
ATOM      3  C   UNL     1      -0.561  10.609  22.628  0.00  0.00    +0.000 A 
ATOM      4  N   UNL     1      -1.214  11.503  23.471  0.00  0.00    +0.000 N 
ATOM      5  N   UNL     1       0.407   9.866  23.153  0.00  0.00    +0.000 NA
ATOM      6  C   UNL     1       1.066   9.071  22.288  0.00  0.00    +0.000 A 
ATOM      7  C   UNL     1       0.807   8.980  20.926  0.00  0.00    +0.000 A 
ATOM      8  H   UNL     1      -0.874  11.425  24.419  0.00  0.00    +0.000 HD
ENDROOT
BRANCH   7   9
ATOM      9  C   UNL     1       1.580   8.009  20.152  0.00  0.00    +0.000 A 
ATOM     10  N   UNL     1       2.080   8.290  18.964  0.00  0.00    +0.000 NA
ATOM     11  C   UNL     1       2.920   7.278  18.546  0.00  0.00    +0.000 A 
ATOM     12  C   UNL     1       3.755   7.316  17.412  0.00  0.00    +0.000 A 
ATOM     13  C   UNL     1       4.655   6.271  17.185  0.00  0.00    +0.000 A 
ATOM     14  C   UNL     1       4.683   5.169  18.035  0.00  0.00    +0.000 A 
ATOM     15  C   UNL     1       3.806   5.074  19.122  0.00  0.00    +0.000 A 
ATOM     16  C   UNL     1       2.952   6.157  19.376  0.00  0.00    +0.000 A 
ATOM     17  S   UNL     1       1.844   6.394  20.672  0.00  0.00    +0.000 S 
ENDBRANCH   7   9
BRANCH   4  18
ATOM     18  C   UNL     1      -1.793  12.717  23.100  0.00  0.00    +0.000 A 
ATOM     19  C   UNL     1      -3.073  12.791  22.587  0.00  0.00    +0.000 A 
ATOM     20  N   UNL     1      -3.656  13.926  22.134  0.00  0.00    +0.000 NA
ATOM     21  C   UNL     1      -2.905  15.030  22.210  0.00  0.00    +0.000 A 
ATOM     22  N   UNL     1      -1.658  15.115  22.699  0.00  0.00    +0.000 NA
ATOM     23  C   UNL     1      -1.138  13.936  23.133  0.00  0.00    +0.000 A 
ENDBRANCH   4  18
BRANCH   1  24
ATOM     24  N   UNL     1      -0.750   9.699  19.157  0.00  0.00    +0.000 N 
ATOM     25  H   UNL     1      -0.459   8.801  18.777  0.00  0.00    +0.000 HD
BRANCH  24  28
ATOM     26  C   UNL     1       0.487  12.921  19.350  0.00  0.00    +0.000 C 
ATOM     27  C   UNL     1       0.937  11.518  18.904  0.00  0.00    +0.000 C 
ATOM     28  C   UNL     1      -0.298  10.812  18.282  0.00  0.00    +0.000 C 
ATOM     29  C   UNL     1      -1.365  11.943  18.207  0.00  0.00    +0.000 C 
ATOM     30  C   UNL     1      -1.030  12.817  19.424  0.00  0.00    +0.000 C 
BRANCH  29  31
ATOM     31  O   UNL     1      -1.250  12.696  16.988  0.00  0.00    +0.000 OA
ATOM     32  H   UNL     1      -1.863  12.338  16.324  0.00  0.00    +0.000 HD
ENDBRANCH  29  31
BRANCH  30  33
ATOM     33  O   UNL     1      -1.645  14.094  19.416  0.00  0.00    +0.000 OA
ATOM     34  H   UNL     1      -0.960  14.769  19.569  0.00  0.00    +0.000 HD
ENDBRANCH  30  33
BRANCH  26  35
ATOM     35  C   UNL     1       1.101  13.384  20.661  0.00  0.00    +0.000 C 
BRANCH  35  36
ATOM     36  O   UNL     1       1.800  12.309  21.276  0.00  0.00    +0.000 OA
ATOM     37  H   UNL     1       1.140  11.701  21.651  0.00  0.00    +0.000 HD
ENDBRANCH  35  36
ENDBRANCH  26  35
ENDBRANCH  24  28
ENDBRANCH   1  24
TORSDOF 8
ENDMDL
MODEL 7
REMARK VINA RESULT:      -8.0      4.917      7.989
REMARK  Name = 
REMARK  8 active torsions:
REMARK  status: ('A' for Active; 'I' for Inactive)
REMARK    1  A    between atoms: O_1  and  C_2
REMARK    2  A    between atoms: C_2  and  C_3
REMARK    3  A    between atoms: C_5  and  N_6
REMARK    4  A    between atoms: N_6  and  C_7
REMARK    5  A    between atoms: N_10  and  C_11
REMARK    6  A    between atoms: C_19  and  C_20
REMARK    7  A    between atoms: C_29  and  O_30
REMARK    8  A    between atoms: C_31  and  O_32
REMARK                            x       y       z     vdW  Elec       q    Type
REMARK                         _______ _______ _______ _____ _____    ______ ____
ROOT
ATOM      1  C   UNL     1       0.335  11.495  21.607  0.00  0.00    +0.000 A 
ATOM      2  N   UNL     1       0.995  10.405  21.182  0.00  0.00    +0.000 NA
ATOM      3  C   UNL     1       0.697   9.200  21.692  0.00  0.00    +0.000 A 
ATOM      4  N   UNL     1       1.357   8.080  21.194  0.00  0.00    +0.000 N 
ATOM      5  N   UNL     1      -0.207   9.005  22.646  0.00  0.00    +0.000 NA
ATOM      6  C   UNL     1      -0.878  10.102  23.046  0.00  0.00    +0.000 A 
ATOM      7  C   UNL     1      -0.693  11.384  22.541  0.00  0.00    +0.000 A 
ATOM      8  H   UNL     1       1.074   7.242  21.684  0.00  0.00    +0.000 HD
ENDROOT
BRANCH   7   9
ATOM      9  C   UNL     1      -1.465  12.469  23.146  0.00  0.00    +0.000 A 
ATOM     10  N   UNL     1      -0.897  13.564  23.613  0.00  0.00    +0.000 NA
ATOM     11  C   UNL     1      -1.857  14.497  23.946  0.00  0.00    +0.000 A 
ATOM     12  C   UNL     1      -1.614  15.836  24.312  0.00  0.00    +0.000 A 
ATOM     13  C   UNL     1      -2.691  16.707  24.492  0.00  0.00    +0.000 A 
ATOM     14  C   UNL     1      -3.998  16.244  24.374  0.00  0.00    +0.000 A 
ATOM     15  C   UNL     1      -4.264  14.900  24.089  0.00  0.00    +0.000 A 
ATOM     16  C   UNL     1      -3.174  14.049  23.849  0.00  0.00    +0.000 A 
ATOM     17  S   UNL     1      -3.165  12.393  23.380  0.00  0.00    +0.000 S 
ENDBRANCH   7   9
BRANCH   4  18
ATOM     18  C   UNL     1       1.860   7.923  19.902  0.00  0.00    +0.000 A 
ATOM     19  C   UNL     1       2.657   6.851  19.553  0.00  0.00    +0.000 A 
ATOM     20  N   UNL     1       3.241   6.689  18.342  0.00  0.00    +0.000 NA
ATOM     21  C   UNL     1       3.000   7.656  17.452  0.00  0.00    +0.000 A 
ATOM     22  N   UNL     1       2.236   8.743  17.641  0.00  0.00    +0.000 NA
ATOM     23  C   UNL     1       1.685   8.839  18.880  0.00  0.00    +0.000 A 
ENDBRANCH   4  18
BRANCH   1  24
ATOM     24  N   UNL     1       0.729  12.735  21.051  0.00  0.00    +0.000 N 
ATOM     25  H   UNL     1       0.100  13.434  21.438  0.00  0.00    +0.000 HD
BRANCH  24  28
ATOM     26  C   UNL     1       1.485  14.917  18.478  0.00  0.00    +0.000 C 
ATOM     27  C   UNL     1       1.986  13.589  19.073  0.00  0.00    +0.000 C 
ATOM     28  C   UNL     1       0.742  12.803  19.567  0.00  0.00    +0.000 C 
ATOM     29  C   UNL     1      -0.455  13.642  19.028  0.00  0.00    +0.000 C 
ATOM     30  C   UNL     1       0.086  15.078  19.058  0.00  0.00    +0.000 C 
BRANCH  29  31
ATOM     31  O   UNL     1      -0.809  13.255  17.690  0.00  0.00    +0.000 OA
ATOM     32  H   UNL     1      -0.254  13.736  17.053  0.00  0.00    +0.000 HD
ENDBRANCH  29  31
BRANCH  30  33
ATOM     33  O   UNL     1      -0.684  16.011  18.320  0.00  0.00    +0.000 OA
ATOM     34  H   UNL     1      -0.985  16.712  18.925  0.00  0.00    +0.000 HD
ENDBRANCH  30  33
BRANCH  26  35
ATOM     35  C   UNL     1       2.377  16.110  18.779  0.00  0.00    +0.000 C 
BRANCH  35  36
ATOM     36  O   UNL     1       2.021  17.205  17.944  0.00  0.00    +0.000 OA
ATOM     37  H   UNL     1       1.238  17.632  18.332  0.00  0.00    +0.000 HD
ENDBRANCH  35  36
ENDBRANCH  26  35
ENDBRANCH  24  28
ENDBRANCH   1  24
TORSDOF 8
ENDMDL
MODEL 8
REMARK VINA RESULT:      -7.9      6.604     10.587
REMARK  Name = 
REMARK  8 active torsions:
REMARK  status: ('A' for Active; 'I' for Inactive)
REMARK    1  A    between atoms: O_1  and  C_2
REMARK    2  A    between atoms: C_2  and  C_3
REMARK    3  A    between atoms: C_5  and  N_6
REMARK    4  A    between atoms: N_6  and  C_7
REMARK    5  A    between atoms: N_10  and  C_11
REMARK    6  A    between atoms: C_19  and  C_20
REMARK    7  A    between atoms: C_29  and  O_30
REMARK    8  A    between atoms: C_31  and  O_32
REMARK                            x       y       z     vdW  Elec       q    Type
REMARK                         _______ _______ _______ _____ _____    ______ ____
ROOT
ATOM      1  C   UNL     1      -0.311  13.463  22.283  0.00  0.00    +0.000 A 
ATOM      2  N   UNL     1      -1.388  13.517  23.084  0.00  0.00    +0.000 NA
ATOM      3  C   UNL     1      -1.650  14.634  23.780  0.00  0.00    +0.000 A 
ATOM      4  N   UNL     1      -2.803  14.683  24.559  0.00  0.00    +0.000 N 
ATOM      5  N   UNL     1      -0.875  15.713  23.763  0.00  0.00    +0.000 NA
ATOM      6  C   UNL     1       0.188  15.655  22.937  0.00  0.00    +0.000 A 
ATOM      7  C   UNL     1       0.515  14.574  22.127  0.00  0.00    +0.000 A 
ATOM      8  H   UNL     1      -2.866  15.558  25.061  0.00  0.00    +0.000 HD
ENDROOT
BRANCH   7   9
ATOM      9  C   UNL     1       1.748  14.661  21.346  0.00  0.00    +0.000 A 
ATOM     10  N   UNL     1       1.819  14.259  20.091  0.00  0.00    +0.000 NA
ATOM     11  C   UNL     1       3.027  14.631  19.536  0.00  0.00    +0.000 A 
ATOM     12  C   UNL     1       3.377  14.520  18.177  0.00  0.00    +0.000 A 
ATOM     13  C   UNL     1       4.585  15.062  17.731  0.00  0.00    +0.000 A 
ATOM     14  C   UNL     1       5.468  15.650  18.632  0.00  0.00    +0.000 A 
ATOM     15  C   UNL     1       5.175  15.699  20.000  0.00  0.00    +0.000 A 
ATOM     16  C   UNL     1       3.932  15.208  20.426  0.00  0.00    +0.000 A 
ATOM     17  S   UNL     1       3.235  15.217  22.000  0.00  0.00    +0.000 S 
ENDBRANCH   7   9
BRANCH   4  18
ATOM     18  C   UNL     1      -3.994  14.000  24.316  0.00  0.00    +0.000 A 
ATOM     19  C   UNL     1      -5.080  14.612  23.721  0.00  0.00    +0.000 A 
ATOM     20  N   UNL     1      -6.287  14.026  23.536  0.00  0.00    +0.000 NA
ATOM     21  C   UNL     1      -6.389  12.766  23.972  0.00  0.00    +0.000 A 
ATOM     22  N   UNL     1      -5.420  12.041  24.550  0.00  0.00    +0.000 NA
ATOM     23  C   UNL     1      -4.239  12.695  24.705  0.00  0.00    +0.000 A 
ENDBRANCH   4  18
BRANCH   1  24
ATOM     24  N   UNL     1      -0.079  12.239  21.611  0.00  0.00    +0.000 N 
ATOM     25  H   UNL     1       0.715  12.399  20.995  0.00  0.00    +0.000 HD
BRANCH  24  28
ATOM     26  C   UNL     1      -0.803  10.628  18.639  0.00  0.00    +0.000 C 
ATOM     27  C   UNL     1      -0.835  10.361  20.154  0.00  0.00    +0.000 C 
ATOM     28  C   UNL     1      -1.232  11.690  20.851  0.00  0.00    +0.000 C 
ATOM     29  C   UNL     1      -1.623  12.620  19.664  0.00  0.00    +0.000 C 
ATOM     30  C   UNL     1      -0.702  12.143  18.532  0.00  0.00    +0.000 C 
BRANCH  29  31
ATOM     31  O   UNL     1      -3.005  12.460  19.303  0.00  0.00    +0.000 OA
ATOM     32  H   UNL     1      -3.446  13.327  19.304  0.00  0.00    +0.000 HD
ENDBRANCH  29  31
BRANCH  30  33
ATOM     33  O   UNL     1      -1.069  12.604  17.244  0.00  0.00    +0.000 OA
ATOM     34  H   UNL     1      -0.259  12.764  16.729  0.00  0.00    +0.000 HD
ENDBRANCH  30  33
BRANCH  26  35
ATOM     35  C   UNL     1       0.325   9.919  17.906  0.00  0.00    +0.000 C 
BRANCH  35  36
ATOM     36  O   UNL     1       1.444  10.788  17.782  0.00  0.00    +0.000 OA
ATOM     37  H   UNL     1       2.130  10.479  18.397  0.00  0.00    +0.000 HD
ENDBRANCH  35  36
ENDBRANCH  26  35
ENDBRANCH  24  28
ENDBRANCH   1  24
TORSDOF 8
ENDMDL
MODEL 9
REMARK VINA RESULT:      -7.8      4.791      9.805
REMARK  Name = 
REMARK  8 active torsions:
REMARK  status: ('A' for Active; 'I' for Inactive)
REMARK    1  A    between atoms: O_1  and  C_2
REMARK    2  A    between atoms: C_2  and  C_3
REMARK    3  A    between atoms: C_5  and  N_6
REMARK    4  A    between atoms: N_6  and  C_7
REMARK    5  A    between atoms: N_10  and  C_11
REMARK    6  A    between atoms: C_19  and  C_20
REMARK    7  A    between atoms: C_29  and  O_30
REMARK    8  A    between atoms: C_31  and  O_32
REMARK                            x       y       z     vdW  Elec       q    Type
REMARK                         _______ _______ _______ _____ _____    ______ ____
ROOT
ATOM      1  C   UNL     1      -0.818  11.265  19.878  0.00  0.00    +0.000 A 
ATOM      2  N   UNL     1      -1.443  12.287  20.487  0.00  0.00    +0.000 NA
ATOM      3  C   UNL     1      -1.187  12.555  21.777  0.00  0.00    +0.000 A 
ATOM      4  N   UNL     1      -1.805  13.652  22.369  0.00  0.00    +0.000 N 
ATOM      5  N   UNL     1      -0.362  11.836  22.531  0.00  0.00    +0.000 NA
ATOM      6  C   UNL     1       0.276  10.830  21.901  0.00  0.00    +0.000 A 
ATOM      7  C   UNL     1       0.132  10.506  20.557  0.00  0.00    +0.000 A 
ATOM      8  H   UNL     1      -1.562  13.724  23.347  0.00  0.00    +0.000 HD
ENDROOT
BRANCH   7   9
ATOM      9  C   UNL     1       0.854   9.335  20.061  0.00  0.00    +0.000 A 
ATOM     10  N   UNL     1       1.350   9.277  18.840  0.00  0.00    +0.000 NA
ATOM     11  C   UNL     1       2.142   8.155  18.698  0.00  0.00    +0.000 A 
ATOM     12  C   UNL     1       2.963   7.862  17.592  0.00  0.00    +0.000 A 
ATOM     13  C   UNL     1       3.816   6.756  17.642  0.00  0.00    +0.000 A 
ATOM     14  C   UNL     1       3.809   5.911  18.749  0.00  0.00    +0.000 A 
ATOM     15  C   UNL     1       2.942   6.139  19.824  0.00  0.00    +0.000 A 
ATOM     16  C   UNL     1       2.137   7.288  19.789  0.00  0.00    +0.000 A 
ATOM     17  S   UNL     1       1.057   7.900  20.982  0.00  0.00    +0.000 S 
ENDBRANCH   7   9
BRANCH   4  18
ATOM     18  C   UNL     1      -2.204  14.823  21.724  0.00  0.00    +0.000 A 
ATOM     19  C   UNL     1      -3.529  15.082  21.431  0.00  0.00    +0.000 A 
ATOM     20  N   UNL     1      -3.967  16.159  20.736  0.00  0.00    +0.000 NA
ATOM     21  C   UNL     1      -3.017  17.006  20.326  0.00  0.00    +0.000 A 
ATOM     22  N   UNL     1      -1.699  16.896  20.550  0.00  0.00    +0.000 NA
ATOM     23  C   UNL     1      -1.334  15.790  21.252  0.00  0.00    +0.000 A 
ENDBRANCH   4  18
BRANCH   1  24
ATOM     24  N   UNL     1      -1.167  11.021  18.528  0.00  0.00    +0.000 N 
ATOM     25  H   UNL     1      -1.248  11.934  18.085  0.00  0.00    +0.000 HD
BRANCH  24  28
ATOM     26  C   UNL     1      -3.322  10.052  16.005  0.00  0.00    +0.000 C 
ATOM     27  C   UNL     1      -2.305   9.432  16.979  0.00  0.00    +0.000 C 
ATOM     28  C   UNL     1      -2.400  10.221  18.312  0.00  0.00    +0.000 C 
ATOM     29  C   UNL     1      -3.642  11.138  18.104  0.00  0.00    +0.000 C 
ATOM     30  C   UNL     1      -3.613  11.424  16.596  0.00  0.00    +0.000 C 
BRANCH  29  31
ATOM     31  O   UNL     1      -4.858  10.470  18.476  0.00  0.00    +0.000 OA
ATOM     32  H   UNL     1      -4.704   9.924  19.266  0.00  0.00    +0.000 HD
ENDBRANCH  29  31
BRANCH  30  33
ATOM     33  O   UNL     1      -4.812  11.975  16.080  0.00  0.00    +0.000 OA
ATOM     34  H   UNL     1      -5.053  11.490  15.271  0.00  0.00    +0.000 HD
ENDBRANCH  30  33
BRANCH  26  35
ATOM     35  C   UNL     1      -2.836  10.133  14.566  0.00  0.00    +0.000 C 
BRANCH  35  36
ATOM     36  O   UNL     1      -3.947  10.127  13.678  0.00  0.00    +0.000 OA
ATOM     37  H   UNL     1      -4.543   9.410  13.952  0.00  0.00    +0.000 HD
ENDBRANCH  35  36
ENDBRANCH  26  35
ENDBRANCH  24  28
ENDBRANCH   1  24
TORSDOF 8
ENDMDL
