MODEL 1
REMARK VINA RESULT:      -6.8      0.000      0.000
REMARK  Name = 
REMARK  5 active torsions:
REMARK  status: ('A' for Active; 'I' for Inactive)
REMARK    1  A    between atoms: C_1  and  C_2
REMARK    2  A    between atoms: C_5  and  C_6
REMARK    3  A    between atoms: C_7  and  C_8
REMARK    4  A    between atoms: C_11  and  N_12
REMARK    5  A    between atoms: C_13  and  C_14
REMARK                            x       y       z     vdW  Elec       q    Type
REMARK                         _______ _______ _______ _____ _____    ______ ____
ROOT
ATOM      1  C   UNL     1       4.461   4.563  17.794  0.00  0.00    +0.000 A 
ATOM      2  C   UNL     1       4.103   4.180  16.514  0.00  0.00    +0.000 A 
ATOM      3  S   UNL     1       5.434   3.920  15.480  0.00  0.00    +0.000 S 
ATOM      4  C   UNL     1       6.542   4.444  16.668  0.00  0.00    +0.000 A 
ATOM      5  C   UNL     1       5.901   4.737  17.861  0.00  0.00    +0.000 A 
ENDROOT
BRANCH   1  12
ATOM      6  C   UNL     1       1.711   2.778  21.563  0.00  0.00    +0.000 C 
ATOM      7  C   UNL     1       2.108   3.946  20.709  0.00  0.00    +0.000 A 
ATOM      8  C   UNL     1       1.519   5.193  20.885  0.00  0.00    +0.000 A 
ATOM      9  C   UNL     1       1.871   6.252  20.052  0.00  0.00    +0.000 A 
ATOM     10  C   UNL     1       2.804   6.091  19.008  0.00  0.00    +0.000 A 
ATOM     11  C   UNL     1       3.056   7.300  18.144  0.00  0.00    +0.000 C 
ATOM     12  C   UNL     1       3.439   4.836  18.832  0.00  0.00    +0.000 A 
ATOM     13  C   UNL     1       3.074   3.786  19.703  0.00  0.00    +0.000 A 
ENDBRANCH   1  12
BRANCH   4  14
ATOM     14  N   UNL     1       7.857   4.527  16.358  0.00  0.00    +0.000 N 
ATOM     15  H   UNL     1       8.358   3.676  16.113  0.00  0.00    +0.000 HD
ATOM     16  H   UNL     1       8.256   5.367  15.943  0.00  0.00    +0.000 HD
ENDBRANCH   4  14
BRANCH   5  17
ATOM     17  C   UNL     1       6.641   5.192  19.004  0.00  0.00    +0.000 C 
ATOM     18  N   UNL     1       7.263   5.508  19.935  0.00  0.00    +0.000 NA
ENDBRANCH   5  17
TORSDOF 3
ENDMDL
MODEL 2
REMARK VINA RESULT:      -6.6      2.816      5.392
REMARK  Name = 
REMARK  5 active torsions:
REMARK  status: ('A' for Active; 'I' for Inactive)
REMARK    1  A    between atoms: C_1  and  C_2
REMARK    2  A    between atoms: C_5  and  C_6
REMARK    3  A    between atoms: C_7  and  C_8
REMARK    4  A    between atoms: C_11  and  N_12
REMARK    5  A    between atoms: C_13  and  C_14
REMARK                            x       y       z     vdW  Elec       q    Type
REMARK                         _______ _______ _______ _____ _____    ______ ____
ROOT
ATOM      1  C   UNL     1       3.722   3.697  18.044  0.00  0.00    +0.000 A 
ATOM      2  C   UNL     1       3.557   2.359  18.360  0.00  0.00    +0.000 A 
ATOM      3  S   UNL     1       2.150   2.039  19.268  0.00  0.00    +0.000 S 
ATOM      4  C   UNL     1       1.774   3.700  19.391  0.00  0.00    +0.000 A 
ATOM      5  C   UNL     1       2.674   4.475  18.680  0.00  0.00    +0.000 A 
ENDROOT
BRANCH   1  12
ATOM      6  C   UNL     1       6.005   3.898  13.605  0.00  0.00    +0.000 C 
ATOM      7  C   UNL     1       5.990   4.280  15.056  0.00  0.00    +0.000 A 
ATOM      8  C   UNL     1       7.034   5.011  15.613  0.00  0.00    +0.000 A 
ATOM      9  C   UNL     1       7.021   5.317  16.972  0.00  0.00    +0.000 A 
ATOM     10  C   UNL     1       5.978   4.885  17.816  0.00  0.00    +0.000 A 
ATOM     11  C   UNL     1       6.111   5.233  19.276  0.00  0.00    +0.000 C 
ATOM     12  C   UNL     1       4.890   4.167  17.260  0.00  0.00    +0.000 A 
ATOM     13  C   UNL     1       4.922   3.887  15.877  0.00  0.00    +0.000 A 
ENDBRANCH   1  12
BRANCH   4  14
ATOM     14  N   UNL     1       0.706   4.085  20.129  0.00  0.00    +0.000 N 
ATOM     15  H   UNL     1       0.289   4.995  19.950  0.00  0.00    +0.000 HD
ATOM     16  H   UNL     1       0.052   3.407  20.516  0.00  0.00    +0.000 HD
ENDBRANCH   4  14
BRANCH   5  17
ATOM     17  C   UNL     1       2.547   5.905  18.639  0.00  0.00    +0.000 C 
ATOM     18  N   UNL     1       2.487   7.065  18.567  0.00  0.00    +0.000 NA
ENDBRANCH   5  17
TORSDOF 3
ENDMDL
MODEL 3
REMARK VINA RESULT:      -6.5      0.587      2.198
REMARK  Name = 
REMARK  5 active torsions:
REMARK  status: ('A' for Active; 'I' for Inactive)
REMARK    1  A    between atoms: C_1  and  C_2
REMARK    2  A    between atoms: C_5  and  C_6
REMARK    3  A    between atoms: C_7  and  C_8
REMARK    4  A    between atoms: C_11  and  N_12
REMARK    5  A    between atoms: C_13  and  C_14
REMARK                            x       y       z     vdW  Elec       q    Type
REMARK                         _______ _______ _______ _____ _____    ______ ____
ROOT
ATOM      1  C   UNL     1       4.459   4.541  17.824  0.00  0.00    +0.000 A 
ATOM      2  C   UNL     1       4.109   4.194  16.531  0.00  0.00    +0.000 A 
ATOM      3  S   UNL     1       5.446   3.982  15.493  0.00  0.00    +0.000 S 
ATOM      4  C   UNL     1       6.544   4.481  16.701  0.00  0.00    +0.000 A 
ATOM      5  C   UNL     1       5.897   4.729  17.900  0.00  0.00    +0.000 A 
ENDROOT
BRANCH   1  12
ATOM      6  C   UNL     1       1.743   7.847  20.402  0.00  0.00    +0.000 C 
ATOM      7  C   UNL     1       2.078   6.413  20.112  0.00  0.00    +0.000 A 
ATOM      8  C   UNL     1       1.463   5.380  20.812  0.00  0.00    +0.000 A 
ATOM      9  C   UNL     1       1.821   4.059  20.557  0.00  0.00    +0.000 A 
ATOM     10  C   UNL     1       2.817   3.732  19.613  0.00  0.00    +0.000 A 
ATOM     11  C   UNL     1       3.150   2.270  19.472  0.00  0.00    +0.000 C 
ATOM     12  C   UNL     1       3.431   4.769  18.867  0.00  0.00    +0.000 A 
ATOM     13  C   UNL     1       3.035   6.098  19.135  0.00  0.00    +0.000 A 
ENDBRANCH   1  12
BRANCH   4  14
ATOM     14  N   UNL     1       7.859   4.589  16.397  0.00  0.00    +0.000 N 
ATOM     15  H   UNL     1       8.386   3.743  16.191  0.00  0.00    +0.000 HD
ATOM     16  H   UNL     1       8.238   5.422  15.952  0.00  0.00    +0.000 HD
ENDBRANCH   4  14
BRANCH   5  17
ATOM     17  C   UNL     1       6.628   5.156  19.060  0.00  0.00    +0.000 C 
ATOM     18  N   UNL     1       7.245   5.449  20.002  0.00  0.00    +0.000 NA
ENDBRANCH   5  17
TORSDOF 3
ENDMDL
MODEL 4
REMARK VINA RESULT:      -6.3      2.615      5.305
REMARK  Name = 
REMARK  5 active torsions:
REMARK  status: ('A' for Active; 'I' for Inactive)
REMARK    1  A    between atoms: C_1  and  C_2
REMARK    2  A    between atoms: C_5  and  C_6
REMARK    3  A    between atoms: C_7  and  C_8
REMARK    4  A    between atoms: C_11  and  N_12
REMARK    5  A    between atoms: C_13  and  C_14
REMARK                            x       y       z     vdW  Elec       q    Type
REMARK                         _______ _______ _______ _____ _____    ______ ____
ROOT
ATOM      1  C   UNL     1       4.096   4.998  18.741  0.00  0.00    +0.000 A 
ATOM      2  C   UNL     1       3.213   6.064  18.762  0.00  0.00    +0.000 A 
ATOM      3  S   UNL     1       2.043   5.959  19.999  0.00  0.00    +0.000 S 
ATOM      4  C   UNL     1       2.589   4.412  20.473  0.00  0.00    +0.000 A 
ATOM      5  C   UNL     1       3.699   4.023  19.741  0.00  0.00    +0.000 A 
ENDROOT
BRANCH   1  12
ATOM      6  C   UNL     1       5.383   4.013  14.016  0.00  0.00    +0.000 C 
ATOM      7  C   UNL     1       5.795   4.451  15.390  0.00  0.00    +0.000 A 
ATOM      8  C   UNL     1       7.126   4.732  15.682  0.00  0.00    +0.000 A 
ATOM      9  C   UNL     1       7.492   5.094  16.976  0.00  0.00    +0.000 A 
ATOM     10  C   UNL     1       6.546   5.166  18.019  0.00  0.00    +0.000 A 
ATOM     11  C   UNL     1       7.080   5.514  19.384  0.00  0.00    +0.000 C 
ATOM     12  C   UNL     1       5.180   4.915  17.734  0.00  0.00    +0.000 A 
ATOM     13  C   UNL     1       4.836   4.567  16.409  0.00  0.00    +0.000 A 
ENDBRANCH   1  12
BRANCH   4  14
ATOM     14  N   UNL     1       1.929   3.747  21.449  0.00  0.00    +0.000 N 
ATOM     15  H   UNL     1       0.925   3.612  21.358  0.00  0.00    +0.000 HD
ATOM     16  H   UNL     1       2.386   3.031  22.011  0.00  0.00    +0.000 HD
ENDBRANCH   4  14
BRANCH   5  17
ATOM     17  C   UNL     1       4.331   2.755  19.976  0.00  0.00    +0.000 C 
ATOM     18  N   UNL     1       4.882   1.742  20.126  0.00  0.00    +0.000 NA
ENDBRANCH   5  17
TORSDOF 3
ENDMDL
MODEL 5
REMARK VINA RESULT:      -6.2      2.798      5.267
REMARK  Name = 
REMARK  5 active torsions:
REMARK  status: ('A' for Active; 'I' for Inactive)
REMARK    1  A    between atoms: C_1  and  C_2
REMARK    2  A    between atoms: C_5  and  C_6
REMARK    3  A    between atoms: C_7  and  C_8
REMARK    4  A    between atoms: C_11  and  N_12
REMARK    5  A    between atoms: C_13  and  C_14
REMARK                            x       y       z     vdW  Elec       q    Type
REMARK                         _______ _______ _______ _____ _____    ______ ____
ROOT
ATOM      1  C   UNL     1       3.710   4.525  19.415  0.00  0.00    +0.000 A 
ATOM      2  C   UNL     1       2.600   5.349  19.477  0.00  0.00    +0.000 A 
ATOM      3  S   UNL     1       1.459   4.873  20.652  0.00  0.00    +0.000 S 
ATOM      4  C   UNL     1       2.343   3.464  21.033  0.00  0.00    +0.000 A 
ATOM      5  C   UNL     1       3.530   3.405  20.323  0.00  0.00    +0.000 A 
ENDROOT
BRANCH   1  12
ATOM      6  C   UNL     1       8.007   6.887  18.460  0.00  0.00    +0.000 C 
ATOM      7  C   UNL     1       6.942   5.931  18.007  0.00  0.00    +0.000 A 
ATOM      8  C   UNL     1       6.994   5.351  16.743  0.00  0.00    +0.000 A 
ATOM      9  C   UNL     1       5.973   4.501  16.327  0.00  0.00    +0.000 A 
ATOM     10  C   UNL     1       4.862   4.223  17.150  0.00  0.00    +0.000 A 
ATOM     11  C   UNL     1       3.799   3.333  16.559  0.00  0.00    +0.000 C 
ATOM     12  C   UNL     1       4.808   4.779  18.452  0.00  0.00    +0.000 A 
ATOM     13  C   UNL     1       5.866   5.623  18.853  0.00  0.00    +0.000 A 
ENDBRANCH   1  12
BRANCH   4  14
ATOM     14  N   UNL     1       1.835   2.585  21.930  0.00  0.00    +0.000 N 
ATOM     15  H   UNL     1       0.975   2.093  21.700  0.00  0.00    +0.000 HD
ATOM     16  H   UNL     1       2.434   2.077  22.578  0.00  0.00    +0.000 HD
ENDBRANCH   4  14
BRANCH   5  17
ATOM     17  C   UNL     1       4.438   2.305  20.491  0.00  0.00    +0.000 C 
ATOM     18  N   UNL     1       5.169   1.403  20.570  0.00  0.00    +0.000 NA
ENDBRANCH   5  17
TORSDOF 3
ENDMDL
MODEL 6
REMARK VINA RESULT:      -6.2      2.579      5.392
REMARK  Name = 
REMARK  5 active torsions:
REMARK  status: ('A' for Active; 'I' for Inactive)
REMARK    1  A    between atoms: C_1  and  C_2
REMARK    2  A    between atoms: C_5  and  C_6
REMARK    3  A    between atoms: C_7  and  C_8
REMARK    4  A    between atoms: C_11  and  N_12
REMARK    5  A    between atoms: C_13  and  C_14
REMARK                            x       y       z     vdW  Elec       q    Type
REMARK                         _______ _______ _______ _____ _____    ______ ____
ROOT
ATOM      1  C   UNL     1       4.354   5.779  17.843  0.00  0.00    +0.000 A 
ATOM      2  C   UNL     1       3.582   6.922  17.731  0.00  0.00    +0.000 A 
ATOM      3  S   UNL     1       2.516   7.160  19.040  0.00  0.00    +0.000 S 
ATOM      4  C   UNL     1       2.948   5.667  19.746  0.00  0.00    +0.000 A 
ATOM      5  C   UNL     1       3.950   5.039  19.026  0.00  0.00    +0.000 A 
ENDROOT
BRANCH   1  12
ATOM      6  C   UNL     1       5.154   3.751  13.349  0.00  0.00    +0.000 C 
ATOM      7  C   UNL     1       5.712   4.426  14.567  0.00  0.00    +0.000 A 
ATOM      8  C   UNL     1       7.079   4.655  14.694  0.00  0.00    +0.000 A 
ATOM      9  C   UNL     1       7.580   5.243  15.852  0.00  0.00    +0.000 A 
ATOM     10  C   UNL     1       6.736   5.601  16.924  0.00  0.00    +0.000 A 
ATOM     11  C   UNL     1       7.410   6.177  18.142  0.00  0.00    +0.000 C 
ATOM     12  C   UNL     1       5.338   5.406  16.799  0.00  0.00    +0.000 A 
ATOM     13  C   UNL     1       4.857   4.823  15.606  0.00  0.00    +0.000 A 
ENDBRANCH   1  12
BRANCH   4  14
ATOM     14  N   UNL     1       2.310   5.255  20.868  0.00  0.00    +0.000 N 
ATOM     15  H   UNL     1       2.633   5.598  21.769  0.00  0.00    +0.000 HD
ATOM     16  H   UNL     1       1.324   5.001  20.859  0.00  0.00    +0.000 HD
ENDBRANCH   4  14
BRANCH   5  17
ATOM     17  C   UNL     1       4.475   3.769  19.442  0.00  0.00    +0.000 C 
ATOM     18  N   UNL     1       4.851   2.716  19.762  0.00  0.00    +0.000 NA
ENDBRANCH   5  17
TORSDOF 3
ENDMDL
MODEL 7
REMARK VINA RESULT:      -6.2      1.858      2.964
REMARK  Name = 
REMARK  5 active torsions:
REMARK  status: ('A' for Active; 'I' for Inactive)
REMARK    1  A    between atoms: C_1  and  C_2
REMARK    2  A    between atoms: C_5  and  C_6
REMARK    3  A    between atoms: C_7  and  C_8
REMARK    4  A    between atoms: C_11  and  N_12
REMARK    5  A    between atoms: C_13  and  C_14
REMARK                            x       y       z     vdW  Elec       q    Type
REMARK                         _______ _______ _______ _____ _____    ______ ____
ROOT
ATOM      1  C   UNL     1       4.980   5.321  16.737  0.00  0.00    +0.000 A 
ATOM      2  C   UNL     1       4.617   4.287  15.892  0.00  0.00    +0.000 A 
ATOM      3  S   UNL     1       5.797   3.915  14.719  0.00  0.00    +0.000 S 
ATOM      4  C   UNL     1       6.787   5.216  15.209  0.00  0.00    +0.000 A 
ATOM      5  C   UNL     1       6.252   5.873  16.305  0.00  0.00    +0.000 A 
ENDROOT
BRANCH   1  12
ATOM      6  C   UNL     1       1.831   8.840  18.368  0.00  0.00    +0.000 C 
ATOM      7  C   UNL     1       2.506   7.520  18.597  0.00  0.00    +0.000 A 
ATOM      8  C   UNL     1       2.301   6.807  19.774  0.00  0.00    +0.000 A 
ATOM      9  C   UNL     1       2.972   5.605  19.985  0.00  0.00    +0.000 A 
ATOM     10  C   UNL     1       3.882   5.091  19.038  0.00  0.00    +0.000 A 
ATOM     11  C   UNL     1       4.584   3.812  19.411  0.00  0.00    +0.000 C 
ATOM     12  C   UNL     1       4.079   5.787  17.819  0.00  0.00    +0.000 A 
ATOM     13  C   UNL     1       3.371   6.993  17.626  0.00  0.00    +0.000 A 
ENDBRANCH   1  12
BRANCH   4  14
ATOM     14  N   UNL     1       7.926   5.477  14.525  0.00  0.00    +0.000 N 
ATOM     15  H   UNL     1       8.225   4.824  13.805  0.00  0.00    +0.000 HD
ATOM     16  H   UNL     1       8.250   6.430  14.370  0.00  0.00    +0.000 HD
ENDBRANCH   4  14
BRANCH   5  17
ATOM     17  C   UNL     1       6.922   6.999  16.891  0.00  0.00    +0.000 C 
ATOM     18  N   UNL     1       7.453   7.942  17.319  0.00  0.00    +0.000 NA
ENDBRANCH   5  17
TORSDOF 3
ENDMDL
MODEL 8
REMARK VINA RESULT:      -6.0      1.298      1.399
REMARK  Name = 
REMARK  5 active torsions:
REMARK  status: ('A' for Active; 'I' for Inactive)
REMARK    1  A    between atoms: C_1  and  C_2
REMARK    2  A    between atoms: C_5  and  C_6
REMARK    3  A    between atoms: C_7  and  C_8
REMARK    4  A    between atoms: C_11  and  N_12
REMARK    5  A    between atoms: C_13  and  C_14
REMARK                            x       y       z     vdW  Elec       q    Type
REMARK                         _______ _______ _______ _____ _____    ______ ____
ROOT
ATOM      1  C   UNL     1       4.937   4.859  16.816  0.00  0.00    +0.000 A 
ATOM      2  C   UNL     1       4.505   4.133  15.719  0.00  0.00    +0.000 A 
ATOM      3  S   UNL     1       5.641   4.071  14.449  0.00  0.00    +0.000 S 
ATOM      4  C   UNL     1       6.706   5.129  15.263  0.00  0.00    +0.000 A 
ATOM      5  C   UNL     1       6.227   5.457  16.520  0.00  0.00    +0.000 A 
ENDROOT
BRANCH   1  12
ATOM      6  C   UNL     1       2.921   2.749  20.871  0.00  0.00    +0.000 C 
ATOM      7  C   UNL     1       3.118   3.975  20.029  0.00  0.00    +0.000 A 
ATOM      8  C   UNL     1       2.505   5.178  20.364  0.00  0.00    +0.000 A 
ATOM      9  C   UNL     1       2.666   6.292  19.544  0.00  0.00    +0.000 A 
ATOM     10  C   UNL     1       3.425   6.232  18.357  0.00  0.00    +0.000 A 
ATOM     11  C   UNL     1       3.474   7.492  17.531  0.00  0.00    +0.000 C 
ATOM     12  C   UNL     1       4.083   5.025  18.016  0.00  0.00    +0.000 A 
ATOM     13  C   UNL     1       3.916   3.917  18.876  0.00  0.00    +0.000 A 
ENDBRANCH   1  12
BRANCH   4  14
ATOM     14  N   UNL     1       7.842   5.529  14.646  0.00  0.00    +0.000 N 
ATOM     15  H   UNL     1       7.839   5.639  13.635  0.00  0.00    +0.000 HD
ATOM     16  H   UNL     1       8.526   6.120  15.116  0.00  0.00    +0.000 HD
ENDBRANCH   4  14
BRANCH   5  17
ATOM     17  C   UNL     1       6.965   6.333  17.386  0.00  0.00    +0.000 C 
ATOM     18  N   UNL     1       7.605   7.004  18.089  0.00  0.00    +0.000 NA
ENDBRANCH   5  17
TORSDOF 3
ENDMDL
MODEL 9
REMARK VINA RESULT:      -5.8      2.125      3.700
REMARK  Name = 
REMARK  5 active torsions:
REMARK  status: ('A' for Active; 'I' for Inactive)
REMARK    1  A    between atoms: C_1  and  C_2
REMARK    2  A    between atoms: C_5  and  C_6
REMARK    3  A    between atoms: C_7  and  C_8
REMARK    4  A    between atoms: C_11  and  N_12
REMARK    5  A    between atoms: C_13  and  C_14
REMARK                            x       y       z     vdW  Elec       q    Type
REMARK                         _______ _______ _______ _____ _____    ______ ____
ROOT
ATOM      1  C   UNL     1       4.476   5.920  17.492  0.00  0.00    +0.000 A 
ATOM      2  C   UNL     1       5.737   6.445  17.271  0.00  0.00    +0.000 A 
ATOM      3  S   UNL     1       6.741   5.443  16.325  0.00  0.00    +0.000 S 
ATOM      4  C   UNL     1       5.571   4.200  16.286  0.00  0.00    +0.000 A 
ATOM      5  C   UNL     1       4.404   4.585  16.924  0.00  0.00    +0.000 A 
ENDROOT
BRANCH   1  12
ATOM      6  C   UNL     1       1.620   9.990  17.972  0.00  0.00    +0.000 C 
ATOM      7  C   UNL     1       2.042   8.652  18.503  0.00  0.00    +0.000 A 
ATOM      8  C   UNL     1       1.518   8.158  19.694  0.00  0.00    +0.000 A 
ATOM      9  C   UNL     1       1.956   6.934  20.191  0.00  0.00    +0.000 A 
ATOM     10  C   UNL     1       2.943   6.177  19.526  0.00  0.00    +0.000 A 
ATOM     11  C   UNL     1       3.370   4.897  20.197  0.00  0.00    +0.000 C 
ATOM     12  C   UNL     1       3.465   6.648  18.296  0.00  0.00    +0.000 A 
ATOM     13  C   UNL     1       2.989   7.885  17.807  0.00  0.00    +0.000 A 
ENDBRANCH   1  12
BRANCH   4  14
ATOM     14  N   UNL     1       5.872   3.026  15.682  0.00  0.00    +0.000 N 
ATOM     15  H   UNL     1       5.821   2.168  16.226  0.00  0.00    +0.000 HD
ATOM     16  H   UNL     1       5.722   2.884  14.685  0.00  0.00    +0.000 HD
ENDBRANCH   4  14
BRANCH   5  17
ATOM     17  C   UNL     1       3.280   3.696  17.007  0.00  0.00    +0.000 C 
ATOM     18  N   UNL     1       2.337   3.019  17.095  0.00  0.00    +0.000 NA
ENDBRANCH   5  17
TORSDOF 3
ENDMDL
