MODEL 1
REMARK VINA RESULT:      -8.1      0.000      0.000
REMARK  Name = 
REMARK  6 active torsions:
REMARK  status: ('A' for Active; 'I' for Inactive)
REMARK    1  A    between atoms: C_2  and  C_18
REMARK    2  A    between atoms: N_3  and  CA_4
REMARK    3  A    between atoms: CA_4  and  CB_5
REMARK    4  A    between atoms: CA_4  and  C_15
REMARK    5  A    between atoms: CB_5  and  CG_6
REMARK    6  A    between atoms: C_15  and  OXT_17
REMARK                            x       y       z     vdW  Elec       q    Type
REMARK                         _______ _______ _______ _____ _____    ______ ____
ROOT
ATOM      1  CA  TRP A   1       6.112   6.601  17.608  0.00  0.00    +0.000 C 
ENDROOT
BRANCH   1   4
ATOM      2  O   UNK A   0       7.797   4.554  16.509  0.00  0.00    +0.000 OA
ATOM      3  C   UNK A   0       6.970   5.104  15.793  0.00  0.00    +0.000 C 
ATOM      4  N   TRP A   1       6.147   6.110  16.228  0.00  0.00    +0.000 N 
ATOM      5  H   TRP A   1       5.414   6.473  15.623  0.00  0.00    +0.000 HD
BRANCH   3   6
ATOM      6  C   UNK A   0       6.754   4.669  14.394  0.00  0.00    +0.000 A 
ATOM      7  C   UNK A   0       5.725   3.804  14.009  0.00  0.00    +0.000 A 
ATOM      8  C   UNK A   0       5.684   3.338  12.698  0.00  0.00    +0.000 A 
ATOM      9  C   UNK A   0       6.662   3.771  11.813  0.00  0.00    +0.000 A 
ATOM     10  N   UNK A   0       7.635   4.650  12.141  0.00  0.00    +0.000 NA
ATOM     11  C   UNK A   0       7.655   5.087  13.425  0.00  0.00    +0.000 A 
ENDBRANCH   3   6
ENDBRANCH   1   4
BRANCH   1  12
ATOM     12  C   TRP A   1       7.496   7.232  17.868  0.00  0.00    +0.000 C 
ATOM     13  O   TRP A   1       7.922   8.208  17.261  0.00  0.00    +0.000 OA
BRANCH  12  14
ATOM     14  OXT TRP A   1       8.203   6.658  18.868  0.00  0.00    +0.000 OA
ATOM     15  HXT TRP A   1       8.270   7.185  19.683  0.00  0.00    +0.000 HD
ENDBRANCH  12  14
ENDBRANCH   1  12
BRANCH   1  16
ATOM     16  CB  TRP A   1       5.748   5.517  18.645  0.00  0.00    +0.000 C 
BRANCH  16  17
ATOM     17  CG  TRP A   1       4.270   5.371  18.834  0.00  0.00    +0.000 A 
ATOM     18  CD1 TRP A   1       3.426   6.271  19.455  0.00  0.00    +0.000 A 
ATOM     19  NE1 TRP A   1       2.201   5.674  19.598  0.00  0.00    +0.000 N 
ATOM     20  CE2 TRP A   1       2.231   4.399  19.083  0.00  0.00    +0.000 A 
ATOM     21  CZ2 TRP A   1       1.261   3.391  19.101  0.00  0.00    +0.000 A 
ATOM     22  CH2 TRP A   1       1.578   2.177  18.483  0.00  0.00    +0.000 A 
ATOM     23  CZ3 TRP A   1       2.793   1.999  17.827  0.00  0.00    +0.000 A 
ATOM     24  CE3 TRP A   1       3.747   3.020  17.815  0.00  0.00    +0.000 A 
ATOM     25  CD2 TRP A   1       3.483   4.224  18.497  0.00  0.00    +0.000 A 
ATOM     26  HE1 TRP A   1       1.404   6.085  20.063  0.00  0.00    +0.000 HD
ENDBRANCH  16  17
ENDBRANCH   1  16
TORSDOF 6
ENDMDL
MODEL 2
REMARK VINA RESULT:      -7.9      0.595      1.009
REMARK  Name = 
REMARK  6 active torsions:
REMARK  status: ('A' for Active; 'I' for Inactive)
REMARK    1  A    between atoms: C_2  and  C_18
REMARK    2  A    between atoms: N_3  and  CA_4
REMARK    3  A    between atoms: CA_4  and  CB_5
REMARK    4  A    between atoms: CA_4  and  C_15
REMARK    5  A    between atoms: CB_5  and  CG_6
REMARK    6  A    between atoms: C_15  and  OXT_17
REMARK                            x       y       z     vdW  Elec       q    Type
REMARK                         _______ _______ _______ _____ _____    ______ ____
ROOT
ATOM      1  CA  TRP A   1       6.170   6.626  17.561  0.00  0.00    +0.000 C 
ENDROOT
BRANCH   1   4
ATOM      2  O   UNK A   0       7.834   4.478  16.638  0.00  0.00    +0.000 OA
ATOM      3  C   UNK A   0       7.108   5.064  15.844  0.00  0.00    +0.000 C 
ATOM      4  N   TRP A   1       6.306   6.118  16.194  0.00  0.00    +0.000 N 
ATOM      5  H   TRP A   1       5.653   6.512  15.520  0.00  0.00    +0.000 HD
BRANCH   3   6
ATOM      6  C   UNK A   0       7.000   4.624  14.434  0.00  0.00    +0.000 A 
ATOM      7  C   UNK A   0       7.766   5.170  13.399  0.00  0.00    +0.000 A 
ATOM      8  C   UNK A   0       7.498   4.794  12.085  0.00  0.00    +0.000 A 
ATOM      9  C   UNK A   0       6.489   3.871  11.856  0.00  0.00    +0.000 A 
ATOM     10  N   UNK A   0       5.770   3.285  12.839  0.00  0.00    +0.000 NA
ATOM     11  C   UNK A   0       6.048   3.668  14.110  0.00  0.00    +0.000 A 
ENDBRANCH   3   6
ENDBRANCH   1   4
BRANCH   1  12
ATOM     12  C   TRP A   1       7.517   7.297  17.899  0.00  0.00    +0.000 C 
ATOM     13  O   TRP A   1       7.912   8.333  17.374  0.00  0.00    +0.000 OA
BRANCH  12  14
ATOM     14  OXT TRP A   1       8.229   6.683  18.871  0.00  0.00    +0.000 OA
ATOM     15  HXT TRP A   1       9.063   7.122  19.114  0.00  0.00    +0.000 HD
ENDBRANCH  12  14
ENDBRANCH   1  12
BRANCH   1  16
ATOM     16  CB  TRP A   1       5.767   5.548  18.589  0.00  0.00    +0.000 C 
BRANCH  16  17
ATOM     17  CG  TRP A   1       4.284   5.430  18.753  0.00  0.00    +0.000 A 
ATOM     18  CD1 TRP A   1       3.439   6.371  19.310  0.00  0.00    +0.000 A 
ATOM     19  NE1 TRP A   1       2.204   5.796  19.456  0.00  0.00    +0.000 N 
ATOM     20  CE2 TRP A   1       2.227   4.498  19.006  0.00  0.00    +0.000 A 
ATOM     21  CZ2 TRP A   1       1.243   3.504  19.052  0.00  0.00    +0.000 A 
ATOM     22  CH2 TRP A   1       1.556   2.256  18.501  0.00  0.00    +0.000 A 
ATOM     23  CZ3 TRP A   1       2.782   2.031  17.881  0.00  0.00    +0.000 A 
ATOM     24  CE3 TRP A   1       3.750   3.038  17.840  0.00  0.00    +0.000 A 
ATOM     25  CD2 TRP A   1       3.489   4.278  18.456  0.00  0.00    +0.000 A 
ATOM     26  HE1 TRP A   1       1.403   6.240  19.883  0.00  0.00    +0.000 HD
ENDBRANCH  16  17
ENDBRANCH   1  16
TORSDOF 6
ENDMDL
MODEL 3
REMARK VINA RESULT:      -7.9      1.625      2.456
REMARK  Name = 
REMARK  6 active torsions:
REMARK  status: ('A' for Active; 'I' for Inactive)
REMARK    1  A    between atoms: C_2  and  C_18
REMARK    2  A    between atoms: N_3  and  CA_4
REMARK    3  A    between atoms: CA_4  and  CB_5
REMARK    4  A    between atoms: CA_4  and  C_15
REMARK    5  A    between atoms: CB_5  and  CG_6
REMARK    6  A    between atoms: C_15  and  OXT_17
REMARK                            x       y       z     vdW  Elec       q    Type
REMARK                         _______ _______ _______ _____ _____    ______ ____
ROOT
ATOM      1  CA  TRP A   1       5.329   5.953  17.787  0.00  0.00    +0.000 C 
ENDROOT
BRANCH   1   4
ATOM      2  O   UNK A   0       7.623   6.356  16.111  0.00  0.00    +0.000 OA
ATOM      3  C   UNK A   0       6.699   5.658  15.712  0.00  0.00    +0.000 C 
ATOM      4  N   TRP A   1       5.556   5.438  16.435  0.00  0.00    +0.000 N 
ATOM      5  H   TRP A   1       4.856   4.778  16.101  0.00  0.00    +0.000 HD
BRANCH   3   6
ATOM      6  C   UNK A   0       6.782   4.939  14.421  0.00  0.00    +0.000 A 
ATOM      7  C   UNK A   0       7.682   5.284  13.407  0.00  0.00    +0.000 A 
ATOM      8  C   UNK A   0       7.594   4.643  12.173  0.00  0.00    +0.000 A 
ATOM      9  C   UNK A   0       6.623   3.666  12.006  0.00  0.00    +0.000 A 
ATOM     10  N   UNK A   0       5.777   3.272  12.984  0.00  0.00    +0.000 NA
ATOM     11  C   UNK A   0       5.881   3.913  14.175  0.00  0.00    +0.000 A 
ENDBRANCH   3   6
ENDBRANCH   1   4
BRANCH   1  12
ATOM     12  C   TRP A   1       6.071   4.990  18.736  0.00  0.00    +0.000 C 
ATOM     13  O   TRP A   1       6.573   5.336  19.800  0.00  0.00    +0.000 OA
BRANCH  12  14
ATOM     14  OXT TRP A   1       6.086   3.698  18.336  0.00  0.00    +0.000 OA
ATOM     15  HXT TRP A   1       5.278   3.394  17.887  0.00  0.00    +0.000 HD
ENDBRANCH  12  14
ENDBRANCH   1  12
BRANCH   1  16
ATOM     16  CB  TRP A   1       3.837   6.114  18.149  0.00  0.00    +0.000 C 
BRANCH  16  17
ATOM     17  CG  TRP A   1       3.120   4.804  18.244  0.00  0.00    +0.000 A 
ATOM     18  CD1 TRP A   1       2.655   4.041  17.190  0.00  0.00    +0.000 A 
ATOM     19  NE1 TRP A   1       1.886   3.030  17.705  0.00  0.00    +0.000 N 
ATOM     20  CE2 TRP A   1       1.839   3.121  19.076  0.00  0.00    +0.000 A 
ATOM     21  CZ2 TRP A   1       1.103   2.382  20.009  0.00  0.00    +0.000 A 
ATOM     22  CH2 TRP A   1       1.266   2.702  21.362  0.00  0.00    +0.000 A 
ATOM     23  CZ3 TRP A   1       2.168   3.682  21.765  0.00  0.00    +0.000 A 
ATOM     24  CE3 TRP A   1       2.898   4.406  20.819  0.00  0.00    +0.000 A 
ATOM     25  CD2 TRP A   1       2.695   4.156  19.447  0.00  0.00    +0.000 A 
ATOM     26  HE1 TRP A   1       1.380   2.348  17.159  0.00  0.00    +0.000 HD
ENDBRANCH  16  17
ENDBRANCH   1  16
TORSDOF 6
ENDMDL
MODEL 4
REMARK VINA RESULT:      -7.8      2.280      3.727
REMARK  Name = 
REMARK  6 active torsions:
REMARK  status: ('A' for Active; 'I' for Inactive)
REMARK    1  A    between atoms: C_2  and  C_18
REMARK    2  A    between atoms: N_3  and  CA_4
REMARK    3  A    between atoms: CA_4  and  CB_5
REMARK    4  A    between atoms: CA_4  and  C_15
REMARK    5  A    between atoms: CB_5  and  CG_6
REMARK    6  A    between atoms: C_15  and  OXT_17
REMARK                            x       y       z     vdW  Elec       q    Type
REMARK                         _______ _______ _______ _____ _____    ______ ____
ROOT
ATOM      1  CA  TRP A   1       4.442   5.102  17.662  0.00  0.00    +0.000 C 
ENDROOT
BRANCH   1   4
ATOM      2  O   UNK A   0       6.756   6.091  16.283  0.00  0.00    +0.000 OA
ATOM      3  C   UNK A   0       5.986   5.334  15.705  0.00  0.00    +0.000 C 
ATOM      4  N   TRP A   1       4.844   4.840  16.278  0.00  0.00    +0.000 N 
ATOM      5  H   TRP A   1       4.285   4.143  15.791  0.00  0.00    +0.000 HD
BRANCH   3   6
ATOM      6  C   UNK A   0       6.275   4.842  14.338  0.00  0.00    +0.000 A 
ATOM      7  C   UNK A   0       5.501   3.873  13.692  0.00  0.00    +0.000 A 
ATOM      8  C   UNK A   0       5.928   3.370  12.466  0.00  0.00    +0.000 A 
ATOM      9  C   UNK A   0       7.102   3.869  11.921  0.00  0.00    +0.000 A 
ATOM     10  N   UNK A   0       7.841   4.844  12.495  0.00  0.00    +0.000 NA
ATOM     11  C   UNK A   0       7.406   5.316  13.689  0.00  0.00    +0.000 A 
ENDBRANCH   3   6
ENDBRANCH   1   4
BRANCH   1  12
ATOM     12  C   TRP A   1       5.075   3.977  18.507  0.00  0.00    +0.000 C 
ATOM     13  O   TRP A   1       5.953   4.166  19.341  0.00  0.00    +0.000 OA
BRANCH  12  14
ATOM     14  OXT TRP A   1       4.550   2.748  18.300  0.00  0.00    +0.000 OA
ATOM     15  HXT TRP A   1       5.041   2.189  17.672  0.00  0.00    +0.000 HD
ENDBRANCH  12  14
ENDBRANCH   1  12
BRANCH   1  16
ATOM     16  CB  TRP A   1       2.914   5.205  17.857  0.00  0.00    +0.000 C 
BRANCH  16  17
ATOM     17  CG  TRP A   1       2.535   6.133  18.968  0.00  0.00    +0.000 A 
ATOM     18  CD1 TRP A   1       2.298   5.790  20.285  0.00  0.00    +0.000 A 
ATOM     19  NE1 TRP A   1       1.784   6.888  20.923  0.00  0.00    +0.000 N 
ATOM     20  CE2 TRP A   1       1.678   7.941  20.046  0.00  0.00    +0.000 A 
ATOM     21  CZ2 TRP A   1       1.117   9.212  20.218  0.00  0.00    +0.000 A 
ATOM     22  CH2 TRP A   1       1.159  10.091  19.130  0.00  0.00    +0.000 A 
ATOM     23  CZ3 TRP A   1       1.784   9.732  17.939  0.00  0.00    +0.000 A 
ATOM     24  CE3 TRP A   1       2.343   8.460  17.788  0.00  0.00    +0.000 A 
ATOM     25  CD2 TRP A   1       2.246   7.529  18.842  0.00  0.00    +0.000 A 
ATOM     26  HE1 TRP A   1       1.474   6.910  21.885  0.00  0.00    +0.000 HD
ENDBRANCH  16  17
ENDBRANCH   1  16
TORSDOF 6
ENDMDL
MODEL 5
REMARK VINA RESULT:      -7.8      1.531      2.249
REMARK  Name = 
REMARK  6 active torsions:
REMARK  status: ('A' for Active; 'I' for Inactive)
REMARK    1  A    between atoms: C_2  and  C_18
REMARK    2  A    between atoms: N_3  and  CA_4
REMARK    3  A    between atoms: CA_4  and  CB_5
REMARK    4  A    between atoms: CA_4  and  C_15
REMARK    5  A    between atoms: CB_5  and  CG_6
REMARK    6  A    between atoms: C_15  and  OXT_17
REMARK                            x       y       z     vdW  Elec       q    Type
REMARK                         _______ _______ _______ _____ _____    ______ ____
ROOT
ATOM      1  CA  TRP A   1       5.230   6.015  17.878  0.00  0.00    +0.000 C 
ENDROOT
BRANCH   1   4
ATOM      2  O   UNK A   0       7.523   6.240  16.167  0.00  0.00    +0.000 OA
ATOM      3  C   UNK A   0       6.521   5.662  15.762  0.00  0.00    +0.000 C 
ATOM      4  N   TRP A   1       5.374   5.536  16.501  0.00  0.00    +0.000 N 
ATOM      5  H   TRP A   1       4.602   4.970  16.158  0.00  0.00    +0.000 HD
BRANCH   3   6
ATOM      6  C   UNK A   0       6.502   4.994  14.441  0.00  0.00    +0.000 A 
ATOM      7  C   UNK A   0       5.541   4.046  14.075  0.00  0.00    +0.000 A 
ATOM      8  C   UNK A   0       5.682   3.367  12.867  0.00  0.00    +0.000 A 
ATOM      9  C   UNK A   0       6.767   3.676  12.060  0.00  0.00    +0.000 A 
ATOM     10  N   UNK A   0       7.681   4.625  12.361  0.00  0.00    +0.000 NA
ATOM     11  C   UNK A   0       7.523   5.271  13.543  0.00  0.00    +0.000 A 
ENDBRANCH   3   6
ENDBRANCH   1   4
BRANCH   1  12
ATOM     12  C   TRP A   1       5.984   4.999  18.760  0.00  0.00    +0.000 C 
ATOM     13  O   TRP A   1       6.530   5.291  19.818  0.00  0.00    +0.000 OA
BRANCH  12  14
ATOM     14  OXT TRP A   1       5.957   3.725  18.308  0.00  0.00    +0.000 OA
ATOM     15  HXT TRP A   1       5.078   3.395  18.051  0.00  0.00    +0.000 HD
ENDBRANCH  12  14
ENDBRANCH   1  12
BRANCH   1  16
ATOM     16  CB  TRP A   1       3.763   6.212  18.318  0.00  0.00    +0.000 C 
BRANCH  16  17
ATOM     17  CG  TRP A   1       2.995   4.928  18.359  0.00  0.00    +0.000 A 
ATOM     18  CD1 TRP A   1       2.431   4.270  17.284  0.00  0.00    +0.000 A 
ATOM     19  NE1 TRP A   1       1.650   3.254  17.771  0.00  0.00    +0.000 N 
ATOM     20  CE2 TRP A   1       1.693   3.239  19.145  0.00  0.00    +0.000 A 
ATOM     21  CZ2 TRP A   1       0.984   2.460  20.066  0.00  0.00    +0.000 A 
ATOM     22  CH2 TRP A   1       1.244   2.666  21.425  0.00  0.00    +0.000 A 
ATOM     23  CZ3 TRP A   1       2.213   3.575  21.842  0.00  0.00    +0.000 A 
ATOM     24  CE3 TRP A   1       2.915   4.340  20.906  0.00  0.00    +0.000 A 
ATOM     25  CD2 TRP A   1       2.617   4.207  19.536  0.00  0.00    +0.000 A 
ATOM     26  HE1 TRP A   1       1.081   2.638  17.209  0.00  0.00    +0.000 HD
ENDBRANCH  16  17
ENDBRANCH   1  16
TORSDOF 6
ENDMDL
MODEL 6
REMARK VINA RESULT:      -7.8      1.235      1.523
REMARK  Name = 
REMARK  6 active torsions:
REMARK  status: ('A' for Active; 'I' for Inactive)
REMARK    1  A    between atoms: C_2  and  C_18
REMARK    2  A    between atoms: N_3  and  CA_4
REMARK    3  A    between atoms: CA_4  and  CB_5
REMARK    4  A    between atoms: CA_4  and  C_15
REMARK    5  A    between atoms: CB_5  and  CG_6
REMARK    6  A    between atoms: C_15  and  OXT_17
REMARK                            x       y       z     vdW  Elec       q    Type
REMARK                         _______ _______ _______ _____ _____    ______ ____
ROOT
ATOM      1  CA  TRP A   1       6.134   6.600  17.542  0.00  0.00    +0.000 C 
ENDROOT
BRANCH   1   4
ATOM      2  O   UNK A   0       7.870   4.523  16.588  0.00  0.00    +0.000 OA
ATOM      3  C   UNK A   0       7.098   5.070  15.810  0.00  0.00    +0.000 C 
ATOM      4  N   TRP A   1       6.258   6.090  16.174  0.00  0.00    +0.000 N 
ATOM      5  H   TRP A   1       5.572   6.450  15.515  0.00  0.00    +0.000 HD
BRANCH   3   6
ATOM      6  C   UNK A   0       6.974   4.617  14.406  0.00  0.00    +0.000 A 
ATOM      7  C   UNK A   0       7.760   5.122  13.365  0.00  0.00    +0.000 A 
ATOM      8  C   UNK A   0       7.479   4.740  12.055  0.00  0.00    +0.000 A 
ATOM      9  C   UNK A   0       6.436   3.852  11.837  0.00  0.00    +0.000 A 
ATOM     10  N   UNK A   0       5.696   3.305  12.826  0.00  0.00    +0.000 NA
ATOM     11  C   UNK A   0       5.987   3.694  14.092  0.00  0.00    +0.000 A 
ENDBRANCH   3   6
ENDBRANCH   1   4
BRANCH   1  12
ATOM     12  C   TRP A   1       7.507   7.211  17.891  0.00  0.00    +0.000 C 
ATOM     13  O   TRP A   1       7.972   8.200  17.335  0.00  0.00    +0.000 OA
BRANCH  12  14
ATOM     14  OXT TRP A   1       8.155   6.604  18.911  0.00  0.00    +0.000 OA
ATOM     15  HXT TRP A   1       8.242   5.638  18.829  0.00  0.00    +0.000 HD
ENDBRANCH  12  14
ENDBRANCH   1  12
BRANCH   1  16
ATOM     16  CB  TRP A   1       5.678   5.537  18.564  0.00  0.00    +0.000 C 
BRANCH  16  17
ATOM     17  CG  TRP A   1       4.200   5.558  18.799  0.00  0.00    +0.000 A 
ATOM     18  CD1 TRP A   1       3.326   6.575  18.466  0.00  0.00    +0.000 A 
ATOM     19  NE1 TRP A   1       2.110   6.291  19.030  0.00  0.00    +0.000 N 
ATOM     20  CE2 TRP A   1       2.175   5.108  19.728  0.00  0.00    +0.000 A 
ATOM     21  CZ2 TRP A   1       1.224   4.482  20.541  0.00  0.00    +0.000 A 
ATOM     22  CH2 TRP A   1       1.576   3.261  21.127  0.00  0.00    +0.000 A 
ATOM     23  CZ3 TRP A   1       2.807   2.666  20.865  0.00  0.00    +0.000 A 
ATOM     24  CE3 TRP A   1       3.742   3.305  20.045  0.00  0.00    +0.000 A 
ATOM     25  CD2 TRP A   1       3.442   4.571  19.506  0.00  0.00    +0.000 A 
ATOM     26  HE1 TRP A   1       1.297   6.889  18.990  0.00  0.00    +0.000 HD
ENDBRANCH  16  17
ENDBRANCH   1  16
TORSDOF 6
ENDMDL
MODEL 7
REMARK VINA RESULT:      -7.6      2.184      3.510
REMARK  Name = 
REMARK  6 active torsions:
REMARK  status: ('A' for Active; 'I' for Inactive)
REMARK    1  A    between atoms: C_2  and  C_18
REMARK    2  A    between atoms: N_3  and  CA_4
REMARK    3  A    between atoms: CA_4  and  CB_5
REMARK    4  A    between atoms: CA_4  and  C_15
REMARK    5  A    between atoms: CB_5  and  CG_6
REMARK    6  A    between atoms: C_15  and  OXT_17
REMARK                            x       y       z     vdW  Elec       q    Type
REMARK                         _______ _______ _______ _____ _____    ______ ____
ROOT
ATOM      1  CA  TRP A   1       5.165   5.678  17.967  0.00  0.00    +0.000 C 
ENDROOT
BRANCH   1   4
ATOM      2  O   UNK A   0       4.950   3.363  16.286  0.00  0.00    +0.000 OA
ATOM      3  C   UNK A   0       5.559   4.347  15.884  0.00  0.00    +0.000 C 
ATOM      4  N   TRP A   1       5.734   5.481  16.632  0.00  0.00    +0.000 N 
ATOM      5  H   TRP A   1       6.168   6.305  16.222  0.00  0.00    +0.000 HD
BRANCH   3   6
ATOM      6  C   UNK A   0       6.106   4.402  14.509  0.00  0.00    +0.000 A 
ATOM      7  C   UNK A   0       5.643   3.594  13.466  0.00  0.00    +0.000 A 
ATOM      8  C   UNK A   0       6.310   3.614  12.243  0.00  0.00    +0.000 A 
ATOM      9  C   UNK A   0       7.403   4.457  12.103  0.00  0.00    +0.000 A 
ATOM     10  N   UNK A   0       7.840   5.289  13.074  0.00  0.00    +0.000 NA
ATOM     11  C   UNK A   0       7.175   5.250  14.256  0.00  0.00    +0.000 A 
ENDBRANCH   3   6
ENDBRANCH   1   4
BRANCH   1  12
ATOM     12  C   TRP A   1       5.990   4.785  18.916  0.00  0.00    +0.000 C 
ATOM     13  O   TRP A   1       7.033   5.145  19.453  0.00  0.00    +0.000 OA
BRANCH  12  14
ATOM     14  OXT TRP A   1       5.450   3.571  19.165  0.00  0.00    +0.000 OA
ATOM     15  HXT TRP A   1       6.023   2.812  18.954  0.00  0.00    +0.000 HD
ENDBRANCH  12  14
ENDBRANCH   1  12
BRANCH   1  16
ATOM     16  CB  TRP A   1       3.650   5.391  18.046  0.00  0.00    +0.000 C 
BRANCH  16  17
ATOM     17  CG  TRP A   1       2.957   6.225  19.078  0.00  0.00    +0.000 A 
ATOM     18  CD1 TRP A   1       2.574   5.821  20.343  0.00  0.00    +0.000 A 
ATOM     19  NE1 TRP A   1       1.796   6.810  20.886  0.00  0.00    +0.000 N 
ATOM     20  CE2 TRP A   1       1.662   7.851  19.997  0.00  0.00    +0.000 A 
ATOM     21  CZ2 TRP A   1       0.885   9.013  20.071  0.00  0.00    +0.000 A 
ATOM     22  CH2 TRP A   1       0.956   9.908  18.999  0.00  0.00    +0.000 A 
ATOM     23  CZ3 TRP A   1       1.810   9.678  17.924  0.00  0.00    +0.000 A 
ATOM     24  CE3 TRP A   1       2.583   8.514  17.871  0.00  0.00    +0.000 A 
ATOM     25  CD2 TRP A   1       2.472   7.559  18.900  0.00  0.00    +0.000 A 
ATOM     26  HE1 TRP A   1       1.339   6.763  21.785  0.00  0.00    +0.000 HD
ENDBRANCH  16  17
ENDBRANCH   1  16
TORSDOF 6
ENDMDL
MODEL 8
REMARK VINA RESULT:      -7.6      4.066      7.924
REMARK  Name = 
REMARK  6 active torsions:
REMARK  status: ('A' for Active; 'I' for Inactive)
REMARK    1  A    between atoms: C_2  and  C_18
REMARK    2  A    between atoms: N_3  and  CA_4
REMARK    3  A    between atoms: CA_4  and  CB_5
REMARK    4  A    between atoms: CA_4  and  C_15
REMARK    5  A    between atoms: CB_5  and  CG_6
REMARK    6  A    between atoms: C_15  and  OXT_17
REMARK                            x       y       z     vdW  Elec       q    Type
REMARK                         _______ _______ _______ _____ _____    ______ ____
ROOT
ATOM      1  CA  TRP A   1       2.084   5.356  19.995  0.00  0.00    +0.000 C 
ENDROOT
BRANCH   1   4
ATOM      2  O   UNK A   0       2.109   8.047  18.997  0.00  0.00    +0.000 OA
ATOM      3  C   UNK A   0       1.601   7.811  20.086  0.00  0.00    +0.000 C 
ATOM      4  N   TRP A   1       1.573   6.563  20.649  0.00  0.00    +0.000 N 
ATOM      5  H   TRP A   1       1.059   6.401  21.513  0.00  0.00    +0.000 HD
BRANCH   3   6
ATOM      6  C   UNK A   0       0.913   8.872  20.857  0.00  0.00    +0.000 A 
ATOM      7  C   UNK A   0       0.172   9.897  20.261  0.00  0.00    +0.000 A 
ATOM      8  C   UNK A   0      -0.321  10.929  21.055  0.00  0.00    +0.000 A 
ATOM      9  C   UNK A   0      -0.074  10.887  22.419  0.00  0.00    +0.000 A 
ATOM     10  N   UNK A   0       0.590   9.882  23.031  0.00  0.00    +0.000 NA
ATOM     11  C   UNK A   0       1.063   8.890  22.237  0.00  0.00    +0.000 A 
ENDBRANCH   3   6
ENDBRANCH   1   4
BRANCH   1  12
ATOM     12  C   TRP A   1       1.636   4.174  20.878  0.00  0.00    +0.000 C 
ATOM     13  O   TRP A   1       2.239   3.808  21.881  0.00  0.00    +0.000 OA
BRANCH  12  14
ATOM     14  OXT TRP A   1       0.480   3.586  20.496  0.00  0.00    +0.000 OA
ATOM     15  HXT TRP A   1      -0.248   4.199  20.289  0.00  0.00    +0.000 HD
ENDBRANCH  12  14
ENDBRANCH   1  12
BRANCH   1  16
ATOM     16  CB  TRP A   1       3.609   5.376  19.756  0.00  0.00    +0.000 C 
BRANCH  16  17
ATOM     17  CG  TRP A   1       4.020   4.544  18.581  0.00  0.00    +0.000 A 
ATOM     18  CD1 TRP A   1       4.116   3.166  18.540  0.00  0.00    +0.000 A 
ATOM     19  NE1 TRP A   1       4.717   2.819  17.359  0.00  0.00    +0.000 N 
ATOM     20  CE2 TRP A   1       5.017   3.944  16.629  0.00  0.00    +0.000 A 
ATOM     21  CZ2 TRP A   1       5.719   4.085  15.426  0.00  0.00    +0.000 A 
ATOM     22  CH2 TRP A   1       5.866   5.377  14.910  0.00  0.00    +0.000 A 
ATOM     23  CZ3 TRP A   1       5.289   6.474  15.543  0.00  0.00    +0.000 A 
ATOM     24  CE3 TRP A   1       4.587   6.313  16.740  0.00  0.00    +0.000 A 
ATOM     25  CD2 TRP A   1       4.490   5.033  17.321  0.00  0.00    +0.000 A 
ATOM     26  HE1 TRP A   1       4.957   1.877  17.084  0.00  0.00    +0.000 HD
ENDBRANCH  16  17
ENDBRANCH   1  16
TORSDOF 6
ENDMDL
MODEL 9
REMARK VINA RESULT:      -7.6      1.114      1.745
REMARK  Name = 
REMARK  6 active torsions:
REMARK  status: ('A' for Active; 'I' for Inactive)
REMARK    1  A    between atoms: C_2  and  C_18
REMARK    2  A    between atoms: N_3  and  CA_4
REMARK    3  A    between atoms: CA_4  and  CB_5
REMARK    4  A    between atoms: CA_4  and  C_15
REMARK    5  A    between atoms: CB_5  and  CG_6
REMARK    6  A    between atoms: C_15  and  OXT_17
REMARK                            x       y       z     vdW  Elec       q    Type
REMARK                         _______ _______ _______ _____ _____    ______ ____
ROOT
ATOM      1  CA  TRP A   1       5.877   6.054  17.633  0.00  0.00    +0.000 C 
ENDROOT
BRANCH   1   4
ATOM      2  O   UNK A   0       7.898   4.546  16.263  0.00  0.00    +0.000 OA
ATOM      3  C   UNK A   0       6.907   4.924  15.650  0.00  0.00    +0.000 C 
ATOM      4  N   TRP A   1       5.911   5.673  16.219  0.00  0.00    +0.000 N 
ATOM      5  H   TRP A   1       5.065   5.886  15.694  0.00  0.00    +0.000 HD
BRANCH   3   6
ATOM      6  C   UNK A   0       6.685   4.539  14.238  0.00  0.00    +0.000 A 
ATOM      7  C   UNK A   0       5.641   3.703  13.826  0.00  0.00    +0.000 A 
ATOM      8  C   UNK A   0       5.592   3.281  12.500  0.00  0.00    +0.000 A 
ATOM      9  C   UNK A   0       6.576   3.727  11.629  0.00  0.00    +0.000 A 
ATOM     10  N   UNK A   0       7.564   4.578  11.985  0.00  0.00    +0.000 NA
ATOM     11  C   UNK A   0       7.592   4.973  13.282  0.00  0.00    +0.000 A 
ENDBRANCH   3   6
ENDBRANCH   1   4
BRANCH   1  12
ATOM     12  C   TRP A   1       7.105   6.960  17.857  0.00  0.00    +0.000 C 
ATOM     13  O   TRP A   1       7.260   8.044  17.306  0.00  0.00    +0.000 OA
BRANCH  12  14
ATOM     14  OXT TRP A   1       7.997   6.494  18.761  0.00  0.00    +0.000 OA
ATOM     15  HXT TRP A   1       7.637   6.329  19.650  0.00  0.00    +0.000 HD
ENDBRANCH  12  14
ENDBRANCH   1  12
BRANCH   1  16
ATOM     16  CB  TRP A   1       5.840   4.852  18.600  0.00  0.00    +0.000 C 
BRANCH  16  17
ATOM     17  CG  TRP A   1       4.613   4.010  18.429  0.00  0.00    +0.000 A 
ATOM     18  CD1 TRP A   1       4.360   3.121  17.403  0.00  0.00    +0.000 A 
ATOM     19  NE1 TRP A   1       3.056   2.714  17.507  0.00  0.00    +0.000 N 
ATOM     20  CE2 TRP A   1       2.452   3.323  18.582  0.00  0.00    +0.000 A 
ATOM     21  CZ2 TRP A   1       1.121   3.295  19.011  0.00  0.00    +0.000 A 
ATOM     22  CH2 TRP A   1       0.795   4.021  20.161  0.00  0.00    +0.000 A 
ATOM     23  CZ3 TRP A   1       1.772   4.701  20.883  0.00  0.00    +0.000 A 
ATOM     24  CE3 TRP A   1       3.098   4.713  20.442  0.00  0.00    +0.000 A 
ATOM     25  CD2 TRP A   1       3.437   4.054  19.244  0.00  0.00    +0.000 A 
ATOM     26  HE1 TRP A   1       2.585   2.098  16.859  0.00  0.00    +0.000 HD
ENDBRANCH  16  17
ENDBRANCH   1  16
TORSDOF 6
ENDMDL
