MODEL 1
REMARK VINA RESULT:      -7.9      0.000      0.000
REMARK  Name = 
REMARK  10 active torsions:
REMARK  status: ('A' for Active; 'I' for Inactive)
REMARK    1  A    between atoms: C_1  and  C_2
REMARK    2  A    between atoms: C_4  and  C_5
REMARK    3  A    between atoms: N_7  and  C_8
REMARK    4  A    between atoms: C_8  and  C_9
REMARK    5  A    between atoms: C_9  and  N_10
REMARK    6  A    between atoms: N_10  and  C_11
REMARK    7  A    between atoms: N_10  and  C_12
REMARK    8  A    between atoms: C_12  and  C_13
REMARK    9  A    between atoms: C_13  and  C_14
REMARK   10  A    between atoms: C_21  and  C_22
REMARK                            x       y       z     vdW  Elec       q    Type
REMARK                         _______ _______ _______ _____ _____    ______ ____
ROOT
ATOM      1  C   UNL     1       4.825   3.680  18.435  0.00  0.00    +0.000 C 
ATOM      2  O   UNL     1       5.062   3.488  19.621  0.00  0.00    +0.000 OA
ATOM      3  N   UNL     1       3.721   3.150  17.793  0.00  0.00    +0.000 N 
ATOM      4  H   UNL     1       3.459   3.472  16.873  0.00  0.00    +0.000 HD
ENDROOT
BRANCH   1   8
ATOM      5  C   UNL     1       7.827   7.685  17.812  0.00  0.00    +0.000 C 
ATOM      6  C   UNL     1       7.149   6.441  17.327  0.00  0.00    +0.000 A 
ATOM      7  C   UNL     1       6.344   5.681  18.169  0.00  0.00    +0.000 A 
ATOM      8  C   UNL     1       5.729   4.547  17.639  0.00  0.00    +0.000 A 
ATOM      9  C   UNL     1       5.919   4.217  16.300  0.00  0.00    +0.000 A 
ATOM     10  C   UNL     1       6.743   5.019  15.526  0.00  0.00    +0.000 A 
ATOM     11  C   UNL     1       6.995   4.701  14.085  0.00  0.00    +0.000 C 
ATOM     12  N   UNL     1       7.357   6.116  16.028  0.00  0.00    +0.000 NA
ENDBRANCH   1   8
BRANCH   3  13
ATOM     13  C   UNL     1       2.778   2.324  18.532  0.00  0.00    +0.000 C 
BRANCH  13  14
ATOM     14  C   UNL     1       1.442   3.048  18.793  0.00  0.00    +0.000 C 
BRANCH  14  15
ATOM     15  N   UNL     1       1.098   3.240  20.220  0.00  0.00    +0.000 NA
ATOM     16  C   UNL     1       2.067   2.547  21.086  0.00  0.00    +0.000 C 
BRANCH  15  17
ATOM     17  C   UNL     1       1.082   4.684  20.576  0.00  0.00    +0.000 C 
BRANCH  17  18
ATOM     18  C   UNL     1       2.426   5.401  20.333  0.00  0.00    +0.000 C 
BRANCH  18  19
ATOM     19  C   UNL     1       2.274   6.708  19.590  0.00  0.00    +0.000 A 
ATOM     20  C   UNL     1       1.658   7.815  20.191  0.00  0.00    +0.000 A 
ATOM     21  C   UNL     1       1.511   9.011  19.486  0.00  0.00    +0.000 A 
ATOM     22  C   UNL     1       1.981   9.113  18.178  0.00  0.00    +0.000 A 
ATOM     23  C   UNL     1       2.609   8.023  17.578  0.00  0.00    +0.000 A 
ATOM     24  C   UNL     1       2.754   6.826  18.280  0.00  0.00    +0.000 A 
ENDBRANCH  18  19
ENDBRANCH  17  18
ENDBRANCH  15  17
ENDBRANCH  14  15
ENDBRANCH  13  14
ENDBRANCH   3  13
TORSDOF 7
ENDMDL
MODEL 2
REMARK VINA RESULT:      -7.7      0.204      2.012
REMARK  Name = 
REMARK  10 active torsions:
REMARK  status: ('A' for Active; 'I' for Inactive)
REMARK    1  A    between atoms: C_1  and  C_2
REMARK    2  A    between atoms: C_4  and  C_5
REMARK    3  A    between atoms: N_7  and  C_8
REMARK    4  A    between atoms: C_8  and  C_9
REMARK    5  A    between atoms: C_9  and  N_10
REMARK    6  A    between atoms: N_10  and  C_11
REMARK    7  A    between atoms: N_10  and  C_12
REMARK    8  A    between atoms: C_12  and  C_13
REMARK    9  A    between atoms: C_13  and  C_14
REMARK   10  A    between atoms: C_21  and  C_22
REMARK                            x       y       z     vdW  Elec       q    Type
REMARK                         _______ _______ _______ _____ _____    ______ ____
ROOT
ATOM      1  C   UNL     1       4.771   3.535  18.300  0.00  0.00    +0.000 C 
ATOM      2  O   UNL     1       5.122   3.216  19.428  0.00  0.00    +0.000 OA
ATOM      3  N   UNL     1       3.566   3.141  17.747  0.00  0.00    +0.000 N 
ATOM      4  H   UNL     1       3.228   3.566  16.896  0.00  0.00    +0.000 HD
ENDROOT
BRANCH   1   8
ATOM      5  C   UNL     1       6.992   4.921  13.988  0.00  0.00    +0.000 C 
ATOM      6  C   UNL     1       6.705   5.081  15.450  0.00  0.00    +0.000 A 
ATOM      7  C   UNL     1       5.843   4.217  16.116  0.00  0.00    +0.000 A 
ATOM      8  C   UNL     1       5.643   4.414  17.482  0.00  0.00    +0.000 A 
ATOM      9  C   UNL     1       6.311   5.445  18.138  0.00  0.00    +0.000 A 
ATOM     10  C   UNL     1       7.148   6.271  17.404  0.00  0.00    +0.000 A 
ATOM     11  C   UNL     1       7.877   7.404  18.056  0.00  0.00    +0.000 C 
ATOM     12  N   UNL     1       7.344   6.099  16.076  0.00  0.00    +0.000 NA
ENDBRANCH   1   8
BRANCH   3  13
ATOM     13  C   UNL     1       2.651   2.312  18.517  0.00  0.00    +0.000 C 
BRANCH  13  14
ATOM     14  C   UNL     1       1.370   3.069  18.922  0.00  0.00    +0.000 C 
BRANCH  14  15
ATOM     15  N   UNL     1       1.201   3.286  20.376  0.00  0.00    +0.000 NA
ATOM     16  C   UNL     1       2.274   2.616  21.130  0.00  0.00    +0.000 C 
BRANCH  15  17
ATOM     17  C   UNL     1       1.217   4.737  20.705  0.00  0.00    +0.000 C 
BRANCH  17  18
ATOM     18  C   UNL     1       2.541   5.443  20.350  0.00  0.00    +0.000 C 
BRANCH  18  19
ATOM     19  C   UNL     1       2.338   6.762  19.643  0.00  0.00    +0.000 A 
ATOM     20  C   UNL     1       2.861   6.984  18.360  0.00  0.00    +0.000 A 
ATOM     21  C   UNL     1       2.678   8.215  17.726  0.00  0.00    +0.000 A 
ATOM     22  C   UNL     1       1.969   9.230  18.364  0.00  0.00    +0.000 A 
ATOM     23  C   UNL     1       1.431   9.013  19.631  0.00  0.00    +0.000 A 
ATOM     24  C   UNL     1       1.616   7.786  20.268  0.00  0.00    +0.000 A 
ENDBRANCH  18  19
ENDBRANCH  17  18
ENDBRANCH  15  17
ENDBRANCH  14  15
ENDBRANCH  13  14
ENDBRANCH   3  13
TORSDOF 7
ENDMDL
MODEL 3
REMARK VINA RESULT:      -7.5      1.027      1.112
REMARK  Name = 
REMARK  10 active torsions:
REMARK  status: ('A' for Active; 'I' for Inactive)
REMARK    1  A    between atoms: C_1  and  C_2
REMARK    2  A    between atoms: C_4  and  C_5
REMARK    3  A    between atoms: N_7  and  C_8
REMARK    4  A    between atoms: C_8  and  C_9
REMARK    5  A    between atoms: C_9  and  N_10
REMARK    6  A    between atoms: N_10  and  C_11
REMARK    7  A    between atoms: N_10  and  C_12
REMARK    8  A    between atoms: C_12  and  C_13
REMARK    9  A    between atoms: C_13  and  C_14
REMARK   10  A    between atoms: C_21  and  C_22
REMARK                            x       y       z     vdW  Elec       q    Type
REMARK                         _______ _______ _______ _____ _____    ______ ____
ROOT
ATOM      1  C   UNL     1       4.379   3.568  17.523  0.00  0.00    +0.000 C 
ATOM      2  O   UNL     1       3.289   3.499  16.969  0.00  0.00    +0.000 OA
ATOM      3  N   UNL     1       4.691   2.848  18.662  0.00  0.00    +0.000 N 
ATOM      4  H   UNL     1       5.645   2.787  18.985  0.00  0.00    +0.000 HD
ENDROOT
BRANCH   1   8
ATOM      5  C   UNL     1       7.657   7.398  17.694  0.00  0.00    +0.000 C 
ATOM      6  C   UNL     1       6.995   6.241  17.010  0.00  0.00    +0.000 A 
ATOM      7  C   UNL     1       6.029   5.476  17.655  0.00  0.00    +0.000 A 
ATOM      8  C   UNL     1       5.441   4.429  16.947  0.00  0.00    +0.000 A 
ATOM      9  C   UNL     1       5.817   4.188  15.628  0.00  0.00    +0.000 A 
ATOM     10  C   UNL     1       6.793   4.988  15.056  0.00  0.00    +0.000 A 
ATOM     11  C   UNL     1       7.247   4.762  13.647  0.00  0.00    +0.000 C 
ATOM     12  N   UNL     1       7.382   6.001  15.734  0.00  0.00    +0.000 NA
ENDBRANCH   1   8
BRANCH   3  13
ATOM     13  C   UNL     1       3.703   1.956  19.250  0.00  0.00    +0.000 C 
BRANCH  13  14
ATOM     14  C   UNL     1       2.893   2.636  20.373  0.00  0.00    +0.000 C 
BRANCH  14  15
ATOM     15  N   UNL     1       1.755   3.465  19.915  0.00  0.00    +0.000 NA
ATOM     16  C   UNL     1       0.476   2.790  20.189  0.00  0.00    +0.000 C 
BRANCH  15  17
ATOM     17  C   UNL     1       1.755   4.791  20.590  0.00  0.00    +0.000 C 
BRANCH  17  18
ATOM     18  C   UNL     1       2.885   5.730  20.120  0.00  0.00    +0.000 C 
BRANCH  18  19
ATOM     19  C   UNL     1       2.375   7.048  19.586  0.00  0.00    +0.000 A 
ATOM     20  C   UNL     1       1.658   7.932  20.406  0.00  0.00    +0.000 A 
ATOM     21  C   UNL     1       1.180   9.140  19.894  0.00  0.00    +0.000 A 
ATOM     22  C   UNL     1       1.418   9.477  18.563  0.00  0.00    +0.000 A 
ATOM     23  C   UNL     1       2.144   8.613  17.746  0.00  0.00    +0.000 A 
ATOM     24  C   UNL     1       2.619   7.404  18.254  0.00  0.00    +0.000 A 
ENDBRANCH  18  19
ENDBRANCH  17  18
ENDBRANCH  15  17
ENDBRANCH  14  15
ENDBRANCH  13  14
ENDBRANCH   3  13
TORSDOF 7
ENDMDL
MODEL 4
REMARK VINA RESULT:      -7.1      1.016      2.102
REMARK  Name = 
REMARK  10 active torsions:
REMARK  status: ('A' for Active; 'I' for Inactive)
REMARK    1  A    between atoms: C_1  and  C_2
REMARK    2  A    between atoms: C_4  and  C_5
REMARK    3  A    between atoms: N_7  and  C_8
REMARK    4  A    between atoms: C_8  and  C_9
REMARK    5  A    between atoms: C_9  and  N_10
REMARK    6  A    between atoms: N_10  and  C_11
REMARK    7  A    between atoms: N_10  and  C_12
REMARK    8  A    between atoms: C_12  and  C_13
REMARK    9  A    between atoms: C_13  and  C_14
REMARK   10  A    between atoms: C_21  and  C_22
REMARK                            x       y       z     vdW  Elec       q    Type
REMARK                         _______ _______ _______ _____ _____    ______ ____
ROOT
ATOM      1  C   UNL     1       4.813   3.118  18.002  0.00  0.00    +0.000 C 
ATOM      2  O   UNL     1       4.113   2.278  17.452  0.00  0.00    +0.000 OA
ATOM      3  N   UNL     1       4.925   3.220  19.377  0.00  0.00    +0.000 N 
ATOM      4  H   UNL     1       5.643   3.795  19.792  0.00  0.00    +0.000 HD
ENDROOT
BRANCH   1   8
ATOM      5  C   UNL     1       6.905   4.656  13.678  0.00  0.00    +0.000 C 
ATOM      6  C   UNL     1       6.617   4.795  15.141  0.00  0.00    +0.000 A 
ATOM      7  C   UNL     1       5.822   3.873  15.813  0.00  0.00    +0.000 A 
ATOM      8  C   UNL     1       5.617   4.055  17.180  0.00  0.00    +0.000 A 
ATOM      9  C   UNL     1       6.215   5.131  17.832  0.00  0.00    +0.000 A 
ATOM     10  C   UNL     1       6.987   6.013  17.093  0.00  0.00    +0.000 A 
ATOM     11  C   UNL     1       7.639   7.195  17.741  0.00  0.00    +0.000 C 
ATOM     12  N   UNL     1       7.186   5.856  15.764  0.00  0.00    +0.000 NA
ENDBRANCH   1   8
BRANCH   3  13
ATOM     13  C   UNL     1       4.191   2.302  20.235  0.00  0.00    +0.000 C 
BRANCH  13  14
ATOM     14  C   UNL     1       2.925   2.945  20.838  0.00  0.00    +0.000 C 
BRANCH  14  15
ATOM     15  N   UNL     1       2.069   3.672  19.873  0.00  0.00    +0.000 NA
ATOM     16  C   UNL     1       0.960   2.818  19.416  0.00  0.00    +0.000 C 
BRANCH  15  17
ATOM     17  C   UNL     1       1.507   4.906  20.484  0.00  0.00    +0.000 C 
BRANCH  17  18
ATOM     18  C   UNL     1       2.531   6.049  20.638  0.00  0.00    +0.000 C 
BRANCH  18  19
ATOM     19  C   UNL     1       2.242   7.228  19.738  0.00  0.00    +0.000 A 
ATOM     20  C   UNL     1       1.481   8.315  20.192  0.00  0.00    +0.000 A 
ATOM     21  C   UNL     1       1.209   9.390  19.343  0.00  0.00    +0.000 A 
ATOM     22  C   UNL     1       1.699   9.391  18.039  0.00  0.00    +0.000 A 
ATOM     23  C   UNL     1       2.471   8.323  17.584  0.00  0.00    +0.000 A 
ATOM     24  C   UNL     1       2.740   7.246  18.429  0.00  0.00    +0.000 A 
ENDBRANCH  18  19
ENDBRANCH  17  18
ENDBRANCH  15  17
ENDBRANCH  14  15
ENDBRANCH  13  14
ENDBRANCH   3  13
TORSDOF 7
ENDMDL
MODEL 5
REMARK VINA RESULT:      -7.0      0.887      2.066
REMARK  Name = 
REMARK  10 active torsions:
REMARK  status: ('A' for Active; 'I' for Inactive)
REMARK    1  A    between atoms: C_1  and  C_2
REMARK    2  A    between atoms: C_4  and  C_5
REMARK    3  A    between atoms: N_7  and  C_8
REMARK    4  A    between atoms: C_8  and  C_9
REMARK    5  A    between atoms: C_9  and  N_10
REMARK    6  A    between atoms: N_10  and  C_11
REMARK    7  A    between atoms: N_10  and  C_12
REMARK    8  A    between atoms: C_12  and  C_13
REMARK    9  A    between atoms: C_13  and  C_14
REMARK   10  A    between atoms: C_21  and  C_22
REMARK                            x       y       z     vdW  Elec       q    Type
REMARK                         _______ _______ _______ _____ _____    ______ ____
ROOT
ATOM      1  C   UNL     1       5.418   4.210  19.121  0.00  0.00    +0.000 C 
ATOM      2  O   UNL     1       5.272   4.771  20.200  0.00  0.00    +0.000 OA
ATOM      3  N   UNL     1       4.945   2.936  18.867  0.00  0.00    +0.000 N 
ATOM      4  H   UNL     1       4.920   2.577  17.924  0.00  0.00    +0.000 HD
ENDROOT
BRANCH   1   8
ATOM      5  C   UNL     1       7.020   4.635  14.358  0.00  0.00    +0.000 C 
ATOM      6  C   UNL     1       6.865   5.137  15.760  0.00  0.00    +0.000 A 
ATOM      7  C   UNL     1       6.180   4.401  16.720  0.00  0.00    +0.000 A 
ATOM      8  C   UNL     1       6.096   4.923  18.011  0.00  0.00    +0.000 A 
ATOM      9  C   UNL     1       6.702   6.142  18.306  0.00  0.00    +0.000 A 
ATOM     10  C   UNL     1       7.359   6.822  17.292  0.00  0.00    +0.000 A 
ATOM     11  C   UNL     1       8.013   8.144  17.550  0.00  0.00    +0.000 C 
ATOM     12  N   UNL     1       7.440   6.334  16.032  0.00  0.00    +0.000 NA
ENDBRANCH   1   8
BRANCH   3  13
ATOM     13  C   UNL     1       4.237   2.203  19.905  0.00  0.00    +0.000 C 
BRANCH  13  14
ATOM     14  C   UNL     1       2.717   2.143  19.650  0.00  0.00    +0.000 C 
BRANCH  14  15
ATOM     15  N   UNL     1       2.110   3.403  19.165  0.00  0.00    +0.000 NA
ATOM     16  C   UNL     1       1.135   3.132  18.096  0.00  0.00    +0.000 C 
BRANCH  15  17
ATOM     17  C   UNL     1       1.426   4.126  20.270  0.00  0.00    +0.000 C 
BRANCH  17  18
ATOM     18  C   UNL     1       2.249   5.291  20.857  0.00  0.00    +0.000 C 
BRANCH  18  19
ATOM     19  C   UNL     1       2.096   6.576  20.077  0.00  0.00    +0.000 A 
ATOM     20  C   UNL     1       1.440   7.685  20.632  0.00  0.00    +0.000 A 
ATOM     21  C   UNL     1       1.293   8.861  19.893  0.00  0.00    +0.000 A 
ATOM     22  C   UNL     1       1.802   8.940  18.598  0.00  0.00    +0.000 A 
ATOM     23  C   UNL     1       2.470   7.849  18.045  0.00  0.00    +0.000 A 
ATOM     24  C   UNL     1       2.615   6.672  18.780  0.00  0.00    +0.000 A 
ENDBRANCH  18  19
ENDBRANCH  17  18
ENDBRANCH  15  17
ENDBRANCH  14  15
ENDBRANCH  13  14
ENDBRANCH   3  13
TORSDOF 7
ENDMDL
MODEL 6
REMARK VINA RESULT:      -7.0      1.085      1.110
REMARK  Name = 
REMARK  10 active torsions:
REMARK  status: ('A' for Active; 'I' for Inactive)
REMARK    1  A    between atoms: C_1  and  C_2
REMARK    2  A    between atoms: C_4  and  C_5
REMARK    3  A    between atoms: N_7  and  C_8
REMARK    4  A    between atoms: C_8  and  C_9
REMARK    5  A    between atoms: C_9  and  N_10
REMARK    6  A    between atoms: N_10  and  C_11
REMARK    7  A    between atoms: N_10  and  C_12
REMARK    8  A    between atoms: C_12  and  C_13
REMARK    9  A    between atoms: C_13  and  C_14
REMARK   10  A    between atoms: C_21  and  C_22
REMARK                            x       y       z     vdW  Elec       q    Type
REMARK                         _______ _______ _______ _____ _____    ______ ____
ROOT
ATOM      1  C   UNL     1       3.908   3.288  17.255  0.00  0.00    +0.000 C 
ATOM      2  O   UNL     1       2.925   3.387  16.531  0.00  0.00    +0.000 OA
ATOM      3  N   UNL     1       3.959   2.430  18.339  0.00  0.00    +0.000 N 
ATOM      4  H   UNL     1       4.836   2.239  18.801  0.00  0.00    +0.000 HD
ENDROOT
BRANCH   1   8
ATOM      5  C   UNL     1       7.744   6.301  18.537  0.00  0.00    +0.000 C 
ATOM      6  C   UNL     1       6.941   5.516  17.546  0.00  0.00    +0.000 A 
ATOM      7  C   UNL     1       5.833   4.773  17.939  0.00  0.00    +0.000 A 
ATOM      8  C   UNL     1       5.122   4.086  16.956  0.00  0.00    +0.000 A 
ATOM      9  C   UNL     1       5.522   4.170  15.625  0.00  0.00    +0.000 A 
ATOM     10  C   UNL     1       6.643   4.924  15.312  0.00  0.00    +0.000 A 
ATOM     11  C   UNL     1       7.127   5.035  13.899  0.00  0.00    +0.000 C 
ATOM     12  N   UNL     1       7.350   5.588  16.256  0.00  0.00    +0.000 NA
ENDBRANCH   1   8
BRANCH   3  13
ATOM     13  C   UNL     1       2.812   1.594  18.658  0.00  0.00    +0.000 C 
BRANCH  13  14
ATOM     14  C   UNL     1       1.565   2.422  19.028  0.00  0.00    +0.000 C 
BRANCH  14  15
ATOM     15  N   UNL     1       1.461   2.800  20.455  0.00  0.00    +0.000 NA
ATOM     16  C   UNL     1       2.749   2.602  21.140  0.00  0.00    +0.000 C 
BRANCH  15  17
ATOM     17  C   UNL     1       1.051   4.222  20.602  0.00  0.00    +0.000 C 
BRANCH  17  18
ATOM     18  C   UNL     1       2.227   5.188  20.849  0.00  0.00    +0.000 C 
BRANCH  18  19
ATOM     19  C   UNL     1       2.104   6.481  20.076  0.00  0.00    +0.000 A 
ATOM     20  C   UNL     1       1.541   7.624  20.663  0.00  0.00    +0.000 A 
ATOM     21  C   UNL     1       1.420   8.807  19.931  0.00  0.00    +0.000 A 
ATOM     22  C   UNL     1       1.862   8.859  18.611  0.00  0.00    +0.000 A 
ATOM     23  C   UNL     1       2.438   7.733  18.025  0.00  0.00    +0.000 A 
ATOM     24  C   UNL     1       2.556   6.550  18.753  0.00  0.00    +0.000 A 
ENDBRANCH  18  19
ENDBRANCH  17  18
ENDBRANCH  15  17
ENDBRANCH  14  15
ENDBRANCH  13  14
ENDBRANCH   3  13
TORSDOF 7
ENDMDL
MODEL 7
REMARK VINA RESULT:      -6.8      1.054      1.509
REMARK  Name = 
REMARK  10 active torsions:
REMARK  status: ('A' for Active; 'I' for Inactive)
REMARK    1  A    between atoms: C_1  and  C_2
REMARK    2  A    between atoms: C_4  and  C_5
REMARK    3  A    between atoms: N_7  and  C_8
REMARK    4  A    between atoms: C_8  and  C_9
REMARK    5  A    between atoms: C_9  and  N_10
REMARK    6  A    between atoms: N_10  and  C_11
REMARK    7  A    between atoms: N_10  and  C_12
REMARK    8  A    between atoms: C_12  and  C_13
REMARK    9  A    between atoms: C_13  and  C_14
REMARK   10  A    between atoms: C_21  and  C_22
REMARK                            x       y       z     vdW  Elec       q    Type
REMARK                         _______ _______ _______ _____ _____    ______ ____
ROOT
ATOM      1  C   UNL     1       3.796   3.054  17.618  0.00  0.00    +0.000 C 
ATOM      2  O   UNL     1       3.847   1.830  17.629  0.00  0.00    +0.000 OA
ATOM      3  N   UNL     1       2.649   3.762  17.926  0.00  0.00    +0.000 N 
ATOM      4  H   UNL     1       2.688   4.758  18.085  0.00  0.00    +0.000 HD
ENDROOT
BRANCH   1   8
ATOM      5  C   UNL     1       7.721   5.975  18.844  0.00  0.00    +0.000 C 
ATOM      6  C   UNL     1       6.877   5.221  17.862  0.00  0.00    +0.000 A 
ATOM      7  C   UNL     1       5.767   4.492  18.273  0.00  0.00    +0.000 A 
ATOM      8  C   UNL     1       5.017   3.834  17.299  0.00  0.00    +0.000 A 
ATOM      9  C   UNL     1       5.382   3.934  15.959  0.00  0.00    +0.000 A 
ATOM     10  C   UNL     1       6.508   4.673  15.628  0.00  0.00    +0.000 A 
ATOM     11  C   UNL     1       6.955   4.799  14.204  0.00  0.00    +0.000 C 
ATOM     12  N   UNL     1       7.253   5.307  16.563  0.00  0.00    +0.000 NA
ENDBRANCH   1   8
BRANCH   3  13
ATOM     13  C   UNL     1       1.431   3.051  18.286  0.00  0.00    +0.000 C 
BRANCH  13  14
ATOM     14  C   UNL     1       1.501   2.446  19.703  0.00  0.00    +0.000 C 
BRANCH  14  15
ATOM     15  N   UNL     1       1.203   3.390  20.805  0.00  0.00    +0.000 NA
ATOM     16  C   UNL     1       2.322   3.446  21.759  0.00  0.00    +0.000 C 
BRANCH  15  17
ATOM     17  C   UNL     1       0.947   4.758  20.281  0.00  0.00    +0.000 C 
BRANCH  17  18
ATOM     18  C   UNL     1       2.037   5.783  20.657  0.00  0.00    +0.000 C 
BRANCH  18  19
ATOM     19  C   UNL     1       1.978   7.042  19.825  0.00  0.00    +0.000 A 
ATOM     20  C   UNL     1       2.561   7.095  18.550  0.00  0.00    +0.000 A 
ATOM     21  C   UNL     1       2.511   8.272  17.799  0.00  0.00    +0.000 A 
ATOM     22  C   UNL     1       1.877   9.401  18.312  0.00  0.00    +0.000 A 
ATOM     23  C   UNL     1       1.281   9.353  19.570  0.00  0.00    +0.000 A 
ATOM     24  C   UNL     1       1.332   8.180  20.324  0.00  0.00    +0.000 A 
ENDBRANCH  18  19
ENDBRANCH  17  18
ENDBRANCH  15  17
ENDBRANCH  14  15
ENDBRANCH  13  14
ENDBRANCH   3  13
TORSDOF 7
ENDMDL
MODEL 8
REMARK VINA RESULT:      -6.8      1.289      2.470
REMARK  Name = 
REMARK  10 active torsions:
REMARK  status: ('A' for Active; 'I' for Inactive)
REMARK    1  A    between atoms: C_1  and  C_2
REMARK    2  A    between atoms: C_4  and  C_5
REMARK    3  A    between atoms: N_7  and  C_8
REMARK    4  A    between atoms: C_8  and  C_9
REMARK    5  A    between atoms: C_9  and  N_10
REMARK    6  A    between atoms: N_10  and  C_11
REMARK    7  A    between atoms: N_10  and  C_12
REMARK    8  A    between atoms: C_12  and  C_13
REMARK    9  A    between atoms: C_13  and  C_14
REMARK   10  A    between atoms: C_21  and  C_22
REMARK                            x       y       z     vdW  Elec       q    Type
REMARK                         _______ _______ _______ _____ _____    ______ ____
ROOT
ATOM      1  C   UNL     1       4.958   3.204  17.941  0.00  0.00    +0.000 C 
ATOM      2  O   UNL     1       4.048   2.602  17.385  0.00  0.00    +0.000 OA
ATOM      3  N   UNL     1       5.301   2.994  19.264  0.00  0.00    +0.000 N 
ATOM      4  H   UNL     1       6.162   3.366  19.636  0.00  0.00    +0.000 HD
ENDROOT
BRANCH   1   8
ATOM      5  C   UNL     1       7.181   4.891  13.739  0.00  0.00    +0.000 C 
ATOM      6  C   UNL     1       6.829   4.991  15.192  0.00  0.00    +0.000 A 
ATOM      7  C   UNL     1       6.034   4.032  15.811  0.00  0.00    +0.000 A 
ATOM      8  C   UNL     1       5.767   4.181  17.171  0.00  0.00    +0.000 A 
ATOM      9  C   UNL     1       6.307   5.258  17.870  0.00  0.00    +0.000 A 
ATOM     10  C   UNL     1       7.082   6.177  17.181  0.00  0.00    +0.000 A 
ATOM     11  C   UNL     1       7.673   7.363  17.879  0.00  0.00    +0.000 C 
ATOM     12  N   UNL     1       7.341   6.054  15.858  0.00  0.00    +0.000 NA
ENDBRANCH   1   8
BRANCH   3  13
ATOM     13  C   UNL     1       4.568   2.019  20.058  0.00  0.00    +0.000 C 
BRANCH  13  14
ATOM     14  C   UNL     1       3.557   2.681  21.016  0.00  0.00    +0.000 C 
BRANCH  14  15
ATOM     15  N   UNL     1       2.197   2.097  20.997  0.00  0.00    +0.000 NA
ATOM     16  C   UNL     1       1.368   2.676  22.067  0.00  0.00    +0.000 C 
BRANCH  15  17
ATOM     17  C   UNL     1       1.531   2.335  19.689  0.00  0.00    +0.000 C 
BRANCH  17  18
ATOM     18  C   UNL     1       0.652   3.602  19.659  0.00  0.00    +0.000 C 
BRANCH  18  19
ATOM     19  C   UNL     1       1.429   4.855  19.330  0.00  0.00    +0.000 A 
ATOM     20  C   UNL     1       1.647   5.847  20.297  0.00  0.00    +0.000 A 
ATOM     21  C   UNL     1       2.355   7.006  19.973  0.00  0.00    +0.000 A 
ATOM     22  C   UNL     1       2.854   7.182  18.684  0.00  0.00    +0.000 A 
ATOM     23  C   UNL     1       2.657   6.195  17.721  0.00  0.00    +0.000 A 
ATOM     24  C   UNL     1       1.947   5.037  18.042  0.00  0.00    +0.000 A 
ENDBRANCH  18  19
ENDBRANCH  17  18
ENDBRANCH  15  17
ENDBRANCH  14  15
ENDBRANCH  13  14
ENDBRANCH   3  13
TORSDOF 7
ENDMDL
MODEL 9
REMARK VINA RESULT:      -6.7      0.728      2.073
REMARK  Name = 
REMARK  10 active torsions:
REMARK  status: ('A' for Active; 'I' for Inactive)
REMARK    1  A    between atoms: C_1  and  C_2
REMARK    2  A    between atoms: C_4  and  C_5
REMARK    3  A    between atoms: N_7  and  C_8
REMARK    4  A    between atoms: C_8  and  C_9
REMARK    5  A    between atoms: C_9  and  N_10
REMARK    6  A    between atoms: N_10  and  C_11
REMARK    7  A    between atoms: N_10  and  C_12
REMARK    8  A    between atoms: C_12  and  C_13
REMARK    9  A    between atoms: C_13  and  C_14
REMARK   10  A    between atoms: C_21  and  C_22
REMARK                            x       y       z     vdW  Elec       q    Type
REMARK                         _______ _______ _______ _____ _____    ______ ____
ROOT
ATOM      1  C   UNL     1       5.125   3.481  18.533  0.00  0.00    +0.000 C 
ATOM      2  O   UNL     1       5.578   3.351  19.663  0.00  0.00    +0.000 OA
ATOM      3  N   UNL     1       3.961   2.863  18.113  0.00  0.00    +0.000 N 
ATOM      4  H   UNL     1       3.522   3.133  17.246  0.00  0.00    +0.000 HD
ENDROOT
BRANCH   1   8
ATOM      5  C   UNL     1       6.813   4.670  13.931  0.00  0.00    +0.000 C 
ATOM      6  C   UNL     1       6.627   4.941  15.392  0.00  0.00    +0.000 A 
ATOM      7  C   UNL     1       5.931   4.057  16.209  0.00  0.00    +0.000 A 
ATOM      8  C   UNL     1       5.818   4.366  17.564  0.00  0.00    +0.000 A 
ATOM      9  C   UNL     1       6.408   5.525  18.062  0.00  0.00    +0.000 A 
ATOM     10  C   UNL     1       7.078   6.362  17.183  0.00  0.00    +0.000 A 
ATOM     11  C   UNL     1       7.716   7.629  17.662  0.00  0.00    +0.000 C 
ATOM     12  N   UNL     1       7.187   6.082  15.863  0.00  0.00    +0.000 NA
ENDBRANCH   1   8
BRANCH   3  13
ATOM     13  C   UNL     1       3.217   2.015  19.032  0.00  0.00    +0.000 C 
BRANCH  13  14
ATOM     14  C   UNL     1       2.505   2.826  20.133  0.00  0.00    +0.000 C 
BRANCH  14  15
ATOM     15  N   UNL     1       1.931   4.118  19.693  0.00  0.00    +0.000 NA
ATOM     16  C   UNL     1       0.553   4.271  20.188  0.00  0.00    +0.000 C 
BRANCH  15  17
ATOM     17  C   UNL     1       2.749   5.260  20.182  0.00  0.00    +0.000 C 
BRANCH  17  18
ATOM     18  C   UNL     1       3.149   6.259  19.077  0.00  0.00    +0.000 C 
BRANCH  18  19
ATOM     19  C   UNL     1       2.317   7.520  19.090  0.00  0.00    +0.000 A 
ATOM     20  C   UNL     1       1.747   7.999  20.279  0.00  0.00    +0.000 A 
ATOM     21  C   UNL     1       0.968   9.158  20.272  0.00  0.00    +0.000 A 
ATOM     22  C   UNL     1       0.755   9.848  19.081  0.00  0.00    +0.000 A 
ATOM     23  C   UNL     1       1.330   9.390  17.898  0.00  0.00    +0.000 A 
ATOM     24  C   UNL     1       2.106   8.230  17.902  0.00  0.00    +0.000 A 
ENDBRANCH  18  19
ENDBRANCH  17  18
ENDBRANCH  15  17
ENDBRANCH  14  15
ENDBRANCH  13  14
ENDBRANCH   3  13
TORSDOF 7
ENDMDL
