MODEL 1
REMARK VINA RESULT:      -5.8      0.000      0.000
REMARK  Name = 
REMARK  14 active torsions:
REMARK  status: ('A' for Active; 'I' for Inactive)
REMARK    1  A    between atoms: N_1  and  C_2
REMARK    2  A    between atoms: C_2  and  C_3
REMARK    3  A    between atoms: C_3  and  C_4
REMARK    4  A    between atoms: C_4  and  C_5
REMARK    5  A    between atoms: C_5  and  C_6
REMARK    6  A    between atoms: C_6  and  C_7
REMARK    7  A    between atoms: C_7  and  C_8
REMARK    8  A    between atoms: C_8  and  C_9
REMARK    9  A    between atoms: C_9  and  C_10
REMARK   10  A    between atoms: C_13  and  C_14
REMARK   11  A    between atoms: C_14  and  C_15
REMARK   12  A    between atoms: C_15  and  C_16
REMARK   13  A    between atoms: C_16  and  C_17
REMARK   14  A    between atoms: C_17  and  N_18
REMARK                            x       y       z     vdW  Elec       q    Type
REMARK                         _______ _______ _______ _____ _____    ______ ____
ROOT
ATOM      1  C   UNL     1       2.438   6.852  19.498  0.00  0.00    +0.000 A 
ATOM      2  C   UNL     1       2.196   7.971  18.733  0.00  0.00    +0.000 A 
ATOM      3  C   UNL     1       3.069   8.054  17.615  0.00  0.00    +0.000 A 
ATOM      4  C   UNL     1       3.970   7.009  17.575  0.00  0.00    +0.000 A 
ATOM      5  S   UNL     1       3.736   5.928  18.879  0.00  0.00    +0.000 S 
ENDROOT
BRANCH   1   6
ATOM      6  C   UNL     1       1.710   6.411  20.727  0.00  0.00    +0.000 C 
BRANCH   6   7
ATOM      7  C   UNL     1       1.892   4.916  20.978  0.00  0.00    +0.000 C 
BRANCH   7   8
ATOM      8  C   UNL     1       0.785   4.126  20.289  0.00  0.00    +0.000 C 
BRANCH   8   9
ATOM      9  C   UNL     1       1.131   2.644  20.238  0.00  0.00    +0.000 C 
BRANCH   9  10
ATOM     10  C   UNL     1       1.051   2.123  18.808  0.00  0.00    +0.000 C 
BRANCH  10  11
ATOM     11  C   UNL     1       2.292   2.527  18.020  0.00  0.00    +0.000 C 
BRANCH  11  12
ATOM     12  C   UNL     1       3.492   1.677  18.426  0.00  0.00    +0.000 C 
BRANCH  12  13
ATOM     13  C   UNL     1       4.484   2.497  19.243  0.00  0.00    +0.000 C 
BRANCH  13  14
ATOM     14  N   UNL     1       5.084   1.665  20.282  0.00  0.00    +0.000 NA
ATOM     15  H   UNL     1       4.675   0.736  20.245  0.00  0.00    +0.000 HD
ATOM     16  H   UNL     1       4.854   2.047  21.198  0.00  0.00    +0.000 HD
ENDBRANCH  13  14
ENDBRANCH  12  13
ENDBRANCH  11  12
ENDBRANCH  10  11
ENDBRANCH   9  10
ENDBRANCH   8   9
ENDBRANCH   7   8
ENDBRANCH   6   7
ENDBRANCH   1   6
BRANCH   4  17
ATOM     17  C   UNL     1       5.064   6.769  16.578  0.00  0.00    +0.000 C 
BRANCH  17  18
ATOM     18  C   UNL     1       6.439   7.161  17.127  0.00  0.00    +0.000 C 
BRANCH  18  19
ATOM     19  C   UNL     1       7.295   5.947  17.508  0.00  0.00    +0.000 C 
BRANCH  19  20
ATOM     20  C   UNL     1       7.910   6.135  18.890  0.00  0.00    +0.000 C 
BRANCH  20  21
ATOM     21  N   UNL     1       7.200   5.324  19.871  0.00  0.00    +0.000 NA
ATOM     22  H   UNL     1       7.381   5.688  20.808  0.00  0.00    +0.000 HD
ATOM     23  H   UNL     1       7.569   4.375  19.857  0.00  0.00    +0.000 HD
ENDBRANCH  20  21
ENDBRANCH  19  20
ENDBRANCH  18  19
ENDBRANCH  17  18
ENDBRANCH   4  17
TORSDOF 14
ENDMDL
MODEL 2
REMARK VINA RESULT:      -5.8      3.019      3.702
REMARK  Name = 
REMARK  14 active torsions:
REMARK  status: ('A' for Active; 'I' for Inactive)
REMARK    1  A    between atoms: N_1  and  C_2
REMARK    2  A    between atoms: C_2  and  C_3
REMARK    3  A    between atoms: C_3  and  C_4
REMARK    4  A    between atoms: C_4  and  C_5
REMARK    5  A    between atoms: C_5  and  C_6
REMARK    6  A    between atoms: C_6  and  C_7
REMARK    7  A    between atoms: C_7  and  C_8
REMARK    8  A    between atoms: C_8  and  C_9
REMARK    9  A    between atoms: C_9  and  C_10
REMARK   10  A    between atoms: C_13  and  C_14
REMARK   11  A    between atoms: C_14  and  C_15
REMARK   12  A    between atoms: C_15  and  C_16
REMARK   13  A    between atoms: C_16  and  C_17
REMARK   14  A    between atoms: C_17  and  N_18
REMARK                            x       y       z     vdW  Elec       q    Type
REMARK                         _______ _______ _______ _____ _____    ______ ____
ROOT
ATOM      1  C   UNL     1       3.693   5.828  17.614  0.00  0.00    +0.000 A 
ATOM      2  C   UNL     1       4.271   7.039  17.302  0.00  0.00    +0.000 A 
ATOM      3  C   UNL     1       5.396   6.890  16.447  0.00  0.00    +0.000 A 
ATOM      4  C   UNL     1       5.659   5.567  16.153  0.00  0.00    +0.000 A 
ATOM      5  S   UNL     1       4.529   4.522  16.898  0.00  0.00    +0.000 S 
ENDROOT
BRANCH   1   6
ATOM      6  C   UNL     1       2.482   5.585  18.457  0.00  0.00    +0.000 C 
BRANCH   6   7
ATOM      7  C   UNL     1       2.701   6.048  19.895  0.00  0.00    +0.000 C 
BRANCH   7   8
ATOM      8  C   UNL     1       2.201   4.989  20.872  0.00  0.00    +0.000 C 
BRANCH   8   9
ATOM      9  C   UNL     1       0.949   4.308  20.335  0.00  0.00    +0.000 C 
BRANCH   9  10
ATOM     10  C   UNL     1       1.141   2.797  20.283  0.00  0.00    +0.000 C 
BRANCH  10  11
ATOM     11  C   UNL     1       0.820   2.263  18.892  0.00  0.00    +0.000 C 
BRANCH  11  12
ATOM     12  C   UNL     1       2.093   2.107  18.065  0.00  0.00    +0.000 C 
BRANCH  12  13
ATOM     13  C   UNL     1       3.282   1.781  18.961  0.00  0.00    +0.000 C 
BRANCH  13  14
ATOM     14  N   UNL     1       4.096   0.734  18.349  0.00  0.00    +0.000 NA
ATOM     15  H   UNL     1       4.472   1.073  17.469  0.00  0.00    +0.000 HD
ATOM     16  H   UNL     1       3.506  -0.066  18.123  0.00  0.00    +0.000 HD
ENDBRANCH  13  14
ENDBRANCH  12  13
ENDBRANCH  11  12
ENDBRANCH  10  11
ENDBRANCH   9  10
ENDBRANCH   8   9
ENDBRANCH   7   8
ENDBRANCH   6   7
ENDBRANCH   1   6
BRANCH   4  17
ATOM     17  C   UNL     1       6.774   5.010  15.320  0.00  0.00    +0.000 C 
BRANCH  17  18
ATOM     18  C   UNL     1       6.327   3.801  14.492  0.00  0.00    +0.000 C 
BRANCH  18  19
ATOM     19  C   UNL     1       5.489   4.196  13.270  0.00  0.00    +0.000 C 
BRANCH  19  20
ATOM     20  C   UNL     1       5.597   3.136  12.179  0.00  0.00    +0.000 C 
BRANCH  20  21
ATOM     21  N   UNL     1       4.377   3.110  11.382  0.00  0.00    +0.000 NA
ATOM     22  H   UNL     1       3.856   2.257  11.588  0.00  0.00    +0.000 HD
ATOM     23  H   UNL     1       4.619   3.067  10.394  0.00  0.00    +0.000 HD
ENDBRANCH  20  21
ENDBRANCH  19  20
ENDBRANCH  18  19
ENDBRANCH  17  18
ENDBRANCH   4  17
TORSDOF 14
ENDMDL
MODEL 3
REMARK VINA RESULT:      -5.7      3.292      6.129
REMARK  Name = 
REMARK  14 active torsions:
REMARK  status: ('A' for Active; 'I' for Inactive)
REMARK    1  A    between atoms: N_1  and  C_2
REMARK    2  A    between atoms: C_2  and  C_3
REMARK    3  A    between atoms: C_3  and  C_4
REMARK    4  A    between atoms: C_4  and  C_5
REMARK    5  A    between atoms: C_5  and  C_6
REMARK    6  A    between atoms: C_6  and  C_7
REMARK    7  A    between atoms: C_7  and  C_8
REMARK    8  A    between atoms: C_8  and  C_9
REMARK    9  A    between atoms: C_9  and  C_10
REMARK   10  A    between atoms: C_13  and  C_14
REMARK   11  A    between atoms: C_14  and  C_15
REMARK   12  A    between atoms: C_15  and  C_16
REMARK   13  A    between atoms: C_16  and  C_17
REMARK   14  A    between atoms: C_17  and  N_18
REMARK                            x       y       z     vdW  Elec       q    Type
REMARK                         _______ _______ _______ _____ _____    ______ ____
ROOT
ATOM      1  C   UNL     1       4.937   4.916  18.619  0.00  0.00    +0.000 A 
ATOM      2  C   UNL     1       4.022   5.783  18.064  0.00  0.00    +0.000 A 
ATOM      3  C   UNL     1       2.742   5.186  17.913  0.00  0.00    +0.000 A 
ATOM      4  C   UNL     1       2.724   3.871  18.333  0.00  0.00    +0.000 A 
ATOM      5  S   UNL     1       4.252   3.381  18.925  0.00  0.00    +0.000 S 
ENDROOT
BRANCH   1   6
ATOM      6  C   UNL     1       6.367   5.190  18.956  0.00  0.00    +0.000 C 
BRANCH   6   7
ATOM      7  C   UNL     1       7.292   4.843  17.792  0.00  0.00    +0.000 C 
BRANCH   7   8
ATOM      8  C   UNL     1       7.269   5.957  16.750  0.00  0.00    +0.000 C 
BRANCH   8   9
ATOM      9  C   UNL     1       7.197   5.378  15.343  0.00  0.00    +0.000 C 
BRANCH   9  10
ATOM     10  C   UNL     1       5.751   5.100  14.952  0.00  0.00    +0.000 C 
BRANCH  10  11
ATOM     11  C   UNL     1       5.634   3.751  14.251  0.00  0.00    +0.000 C 
BRANCH  11  12
ATOM     12  C   UNL     1       6.342   3.780  12.900  0.00  0.00    +0.000 C 
BRANCH  12  13
ATOM     13  C   UNL     1       5.544   3.009  11.854  0.00  0.00    +0.000 C 
BRANCH  13  14
ATOM     14  N   UNL     1       6.084   1.661  11.708  0.00  0.00    +0.000 NA
ATOM     15  H   UNL     1       6.358   1.309  12.621  0.00  0.00    +0.000 HD
ATOM     16  H   UNL     1       6.931   1.693  11.144  0.00  0.00    +0.000 HD
ENDBRANCH  13  14
ENDBRANCH  12  13
ENDBRANCH  11  12
ENDBRANCH  10  11
ENDBRANCH   9  10
ENDBRANCH   8   9
ENDBRANCH   7   8
ENDBRANCH   6   7
ENDBRANCH   1   6
BRANCH   4  17
ATOM     17  C   UNL     1       1.579   2.905  18.298  0.00  0.00    +0.000 C 
BRANCH  17  18
ATOM     18  C   UNL     1       0.857   2.818  19.647  0.00  0.00    +0.000 C 
BRANCH  18  19
ATOM     19  C   UNL     1       1.050   4.073  20.506  0.00  0.00    +0.000 C 
BRANCH  19  20
ATOM     20  C   UNL     1       1.976   3.782  21.683  0.00  0.00    +0.000 C 
BRANCH  20  21
ATOM     21  N   UNL     1       1.806   2.403  22.125  0.00  0.00    +0.000 NA
ATOM     22  H   UNL     1       2.243   1.774  21.450  0.00  0.00    +0.000 HD
ATOM     23  H   UNL     1       0.815   2.170  22.135  0.00  0.00    +0.000 HD
ENDBRANCH  20  21
ENDBRANCH  19  20
ENDBRANCH  18  19
ENDBRANCH  17  18
ENDBRANCH   4  17
TORSDOF 14
ENDMDL
MODEL 4
REMARK VINA RESULT:      -5.7      4.339      6.723
REMARK  Name = 
REMARK  14 active torsions:
REMARK  status: ('A' for Active; 'I' for Inactive)
REMARK    1  A    between atoms: N_1  and  C_2
REMARK    2  A    between atoms: C_2  and  C_3
REMARK    3  A    between atoms: C_3  and  C_4
REMARK    4  A    between atoms: C_4  and  C_5
REMARK    5  A    between atoms: C_5  and  C_6
REMARK    6  A    between atoms: C_6  and  C_7
REMARK    7  A    between atoms: C_7  and  C_8
REMARK    8  A    between atoms: C_8  and  C_9
REMARK    9  A    between atoms: C_9  and  C_10
REMARK   10  A    between atoms: C_13  and  C_14
REMARK   11  A    between atoms: C_14  and  C_15
REMARK   12  A    between atoms: C_15  and  C_16
REMARK   13  A    between atoms: C_16  and  C_17
REMARK   14  A    between atoms: C_17  and  N_18
REMARK                            x       y       z     vdW  Elec       q    Type
REMARK                         _______ _______ _______ _____ _____    ______ ____
ROOT
ATOM      1  C   UNL     1       4.950   5.074  17.742  0.00  0.00    +0.000 A 
ATOM      2  C   UNL     1       3.880   5.675  17.116  0.00  0.00    +0.000 A 
ATOM      3  C   UNL     1       2.812   5.937  18.016  0.00  0.00    +0.000 A 
ATOM      4  C   UNL     1       3.089   5.504  19.297  0.00  0.00    +0.000 A 
ATOM      5  S   UNL     1       4.646   4.804  19.402  0.00  0.00    +0.000 S 
ENDROOT
BRANCH   1   6
ATOM      6  C   UNL     1       6.257   4.677  17.135  0.00  0.00    +0.000 C 
BRANCH   6   7
ATOM      7  C   UNL     1       6.059   3.751  15.938  0.00  0.00    +0.000 C 
BRANCH   7   8
ATOM      8  C   UNL     1       6.648   4.381  14.680  0.00  0.00    +0.000 C 
BRANCH   8   9
ATOM      9  C   UNL     1       5.703   4.212  13.498  0.00  0.00    +0.000 C 
BRANCH   9  10
ATOM     10  C   UNL     1       6.386   3.446  12.371  0.00  0.00    +0.000 C 
BRANCH  10  11
ATOM     11  C   UNL     1       5.360   2.677  11.546  0.00  0.00    +0.000 C 
BRANCH  11  12
ATOM     12  C   UNL     1       4.018   3.404  11.536  0.00  0.00    +0.000 C 
BRANCH  12  13
ATOM     13  C   UNL     1       3.266   3.135  10.238  0.00  0.00    +0.000 C 
BRANCH  13  14
ATOM     14  N   UNL     1       2.880   4.396   9.613  0.00  0.00    +0.000 NA
ATOM     15  H   UNL     1       2.315   4.933  10.264  0.00  0.00    +0.000 HD
ATOM     16  H   UNL     1       2.290   4.208   8.804  0.00  0.00    +0.000 HD
ENDBRANCH  13  14
ENDBRANCH  12  13
ENDBRANCH  11  12
ENDBRANCH  10  11
ENDBRANCH   9  10
ENDBRANCH   8   9
ENDBRANCH   7   8
ENDBRANCH   6   7
ENDBRANCH   1   6
BRANCH   4  17
ATOM     17  C   UNL     1       2.204   5.570  20.505  0.00  0.00    +0.000 C 
BRANCH  17  18
ATOM     18  C   UNL     1       1.037   4.581  20.419  0.00  0.00    +0.000 C 
BRANCH  18  19
ATOM     19  C   UNL     1       1.498   3.120  20.369  0.00  0.00    +0.000 C 
BRANCH  19  20
ATOM     20  C   UNL     1       1.080   2.469  19.055  0.00  0.00    +0.000 C 
BRANCH  20  21
ATOM     21  N   UNL     1       2.076   1.488  18.641  0.00  0.00    +0.000 NA
ATOM     22  H   UNL     1       1.608   0.689  18.213  0.00  0.00    +0.000 HD
ATOM     23  H   UNL     1       2.560   1.130  19.463  0.00  0.00    +0.000 HD
ENDBRANCH  20  21
ENDBRANCH  19  20
ENDBRANCH  18  19
ENDBRANCH  17  18
ENDBRANCH   4  17
TORSDOF 14
ENDMDL
MODEL 5
REMARK VINA RESULT:      -5.6      4.628      8.942
REMARK  Name = 
REMARK  14 active torsions:
REMARK  status: ('A' for Active; 'I' for Inactive)
REMARK    1  A    between atoms: N_1  and  C_2
REMARK    2  A    between atoms: C_2  and  C_3
REMARK    3  A    between atoms: C_3  and  C_4
REMARK    4  A    between atoms: C_4  and  C_5
REMARK    5  A    between atoms: C_5  and  C_6
REMARK    6  A    between atoms: C_6  and  C_7
REMARK    7  A    between atoms: C_7  and  C_8
REMARK    8  A    between atoms: C_8  and  C_9
REMARK    9  A    between atoms: C_9  and  C_10
REMARK   10  A    between atoms: C_13  and  C_14
REMARK   11  A    between atoms: C_14  and  C_15
REMARK   12  A    between atoms: C_15  and  C_16
REMARK   13  A    between atoms: C_16  and  C_17
REMARK   14  A    between atoms: C_17  and  N_18
REMARK                            x       y       z     vdW  Elec       q    Type
REMARK                         _______ _______ _______ _____ _____    ______ ____
ROOT
ATOM      1  C   UNL     1       6.911   6.753  17.606  0.00  0.00    +0.000 A 
ATOM      2  C   UNL     1       7.405   5.648  18.264  0.00  0.00    +0.000 A 
ATOM      3  C   UNL     1       6.452   4.598  18.335  0.00  0.00    +0.000 A 
ATOM      4  C   UNL     1       5.249   4.940  17.752  0.00  0.00    +0.000 A 
ATOM      5  S   UNL     1       5.293   6.524  17.107  0.00  0.00    +0.000 S 
ENDROOT
BRANCH   1   6
ATOM      6  C   UNL     1       7.623   8.034  17.310  0.00  0.00    +0.000 C 
BRANCH   6   7
ATOM      7  C   UNL     1       8.424   8.519  18.515  0.00  0.00    +0.000 C 
BRANCH   7   8
ATOM      8  C   UNL     1       8.732  10.007  18.380  0.00  0.00    +0.000 C 
BRANCH   8   9
ATOM      9  C   UNL     1       9.553  10.497  19.565  0.00  0.00    +0.000 C 
BRANCH   9  10
ATOM     10  C   UNL     1      10.640  11.460  19.103  0.00  0.00    +0.000 C 
BRANCH  10  11
ATOM     11  C   UNL     1      10.248  12.120  17.786  0.00  0.00    +0.000 C 
BRANCH  11  12
ATOM     12  C   UNL     1      10.062  13.623  17.968  0.00  0.00    +0.000 C 
BRANCH  12  13
ATOM     13  C   UNL     1      11.106  14.398  17.172  0.00  0.00    +0.000 C 
BRANCH  13  14
ATOM     14  N   UNL     1      11.403  13.700  15.925  0.00  0.00    +0.000 NA
ATOM     15  H   UNL     1      12.152  13.033  16.084  0.00  0.00    +0.000 HD
ATOM     16  H   UNL     1      11.749  14.366  15.237  0.00  0.00    +0.000 HD
ENDBRANCH  13  14
ENDBRANCH  12  13
ENDBRANCH  11  12
ENDBRANCH  10  11
ENDBRANCH   9  10
ENDBRANCH   8   9
ENDBRANCH   7   8
ENDBRANCH   6   7
ENDBRANCH   1   6
BRANCH   4  17
ATOM     17  C   UNL     1       3.998   4.119  17.662  0.00  0.00    +0.000 C 
BRANCH  17  18
ATOM     18  C   UNL     1       2.775   4.870  18.198  0.00  0.00    +0.000 C 
BRANCH  18  19
ATOM     19  C   UNL     1       1.454   4.169  17.863  0.00  0.00    +0.000 C 
BRANCH  19  20
ATOM     20  C   UNL     1       1.228   2.977  18.788  0.00  0.00    +0.000 C 
BRANCH  20  21
ATOM     21  N   UNL     1       0.669   3.426  20.057  0.00  0.00    +0.000 NA
ATOM     22  H   UNL     1       0.685   4.446  20.094  0.00  0.00    +0.000 HD
ATOM     23  H   UNL     1       1.261   3.103  20.821  0.00  0.00    +0.000 HD
ENDBRANCH  20  21
ENDBRANCH  19  20
ENDBRANCH  18  19
ENDBRANCH  17  18
ENDBRANCH   4  17
TORSDOF 14
ENDMDL
MODEL 6
REMARK VINA RESULT:      -5.6      3.275      3.938
REMARK  Name = 
REMARK  14 active torsions:
REMARK  status: ('A' for Active; 'I' for Inactive)
REMARK    1  A    between atoms: N_1  and  C_2
REMARK    2  A    between atoms: C_2  and  C_3
REMARK    3  A    between atoms: C_3  and  C_4
REMARK    4  A    between atoms: C_4  and  C_5
REMARK    5  A    between atoms: C_5  and  C_6
REMARK    6  A    between atoms: C_6  and  C_7
REMARK    7  A    between atoms: C_7  and  C_8
REMARK    8  A    between atoms: C_8  and  C_9
REMARK    9  A    between atoms: C_9  and  C_10
REMARK   10  A    between atoms: C_13  and  C_14
REMARK   11  A    between atoms: C_14  and  C_15
REMARK   12  A    between atoms: C_15  and  C_16
REMARK   13  A    between atoms: C_16  and  C_17
REMARK   14  A    between atoms: C_17  and  N_18
REMARK                            x       y       z     vdW  Elec       q    Type
REMARK                         _______ _______ _______ _____ _____    ______ ____
ROOT
ATOM      1  C   UNL     1       3.598   5.616  17.512  0.00  0.00    +0.000 A 
ATOM      2  C   UNL     1       4.586   6.538  17.243  0.00  0.00    +0.000 A 
ATOM      3  C   UNL     1       5.596   6.007  16.397  0.00  0.00    +0.000 A 
ATOM      4  C   UNL     1       5.363   4.688  16.066  0.00  0.00    +0.000 A 
ATOM      5  S   UNL     1       3.914   4.111  16.767  0.00  0.00    +0.000 S 
ENDROOT
BRANCH   1   6
ATOM      6  C   UNL     1       2.365   5.813  18.334  0.00  0.00    +0.000 C 
BRANCH   6   7
ATOM      7  C   UNL     1       2.708   6.119  19.790  0.00  0.00    +0.000 C 
BRANCH   7   8
ATOM      8  C   UNL     1       1.653   5.525  20.717  0.00  0.00    +0.000 C 
BRANCH   8   9
ATOM      9  C   UNL     1       1.040   4.272  20.104  0.00  0.00    +0.000 C 
BRANCH   9  10
ATOM     10  C   UNL     1       1.044   3.127  21.109  0.00  0.00    +0.000 C 
BRANCH  10  11
ATOM     11  C   UNL     1       2.461   2.608  21.327  0.00  0.00    +0.000 C 
BRANCH  11  12
ATOM     12  C   UNL     1       3.128   2.281  19.995  0.00  0.00    +0.000 C 
BRANCH  12  13
ATOM     13  C   UNL     1       4.630   2.089  20.175  0.00  0.00    +0.000 C 
BRANCH  13  14
ATOM     14  N   UNL     1       5.355   3.157  19.495  0.00  0.00    +0.000 NA
ATOM     15  H   UNL     1       4.948   3.308  18.577  0.00  0.00    +0.000 HD
ATOM     16  H   UNL     1       6.320   2.867  19.340  0.00  0.00    +0.000 HD
ENDBRANCH  13  14
ENDBRANCH  12  13
ENDBRANCH  11  12
ENDBRANCH  10  11
ENDBRANCH   9  10
ENDBRANCH   8   9
ENDBRANCH   7   8
ENDBRANCH   6   7
ENDBRANCH   1   6
BRANCH   4  17
ATOM     17  C   UNL     1       6.215   3.780  15.229  0.00  0.00    +0.000 C 
BRANCH  17  18
ATOM     18  C   UNL     1       6.454   4.347  13.826  0.00  0.00    +0.000 C 
BRANCH  18  19
ATOM     19  C   UNL     1       5.797   3.505  12.726  0.00  0.00    +0.000 C 
BRANCH  19  20
ATOM     20  C   UNL     1       6.828   3.083  11.684  0.00  0.00    +0.000 C 
BRANCH  20  21
ATOM     21  N   UNL     1       6.773   1.641  11.479  0.00  0.00    +0.000 NA
ATOM     22  H   UNL     1       6.636   1.443  10.487  0.00  0.00    +0.000 HD
ATOM     23  H   UNL     1       5.960   1.261  11.961  0.00  0.00    +0.000 HD
ENDBRANCH  20  21
ENDBRANCH  19  20
ENDBRANCH  18  19
ENDBRANCH  17  18
ENDBRANCH   4  17
TORSDOF 14
ENDMDL
MODEL 7
REMARK VINA RESULT:      -5.6      2.863      3.489
REMARK  Name = 
REMARK  14 active torsions:
REMARK  status: ('A' for Active; 'I' for Inactive)
REMARK    1  A    between atoms: N_1  and  C_2
REMARK    2  A    between atoms: C_2  and  C_3
REMARK    3  A    between atoms: C_3  and  C_4
REMARK    4  A    between atoms: C_4  and  C_5
REMARK    5  A    between atoms: C_5  and  C_6
REMARK    6  A    between atoms: C_6  and  C_7
REMARK    7  A    between atoms: C_7  and  C_8
REMARK    8  A    between atoms: C_8  and  C_9
REMARK    9  A    between atoms: C_9  and  C_10
REMARK   10  A    between atoms: C_13  and  C_14
REMARK   11  A    between atoms: C_14  and  C_15
REMARK   12  A    between atoms: C_15  and  C_16
REMARK   13  A    between atoms: C_16  and  C_17
REMARK   14  A    between atoms: C_17  and  N_18
REMARK                            x       y       z     vdW  Elec       q    Type
REMARK                         _______ _______ _______ _____ _____    ______ ____
ROOT
ATOM      1  C   UNL     1       4.150   5.671  18.677  0.00  0.00    +0.000 A 
ATOM      2  C   UNL     1       5.200   5.036  19.303  0.00  0.00    +0.000 A 
ATOM      3  C   UNL     1       6.236   4.692  18.394  0.00  0.00    +0.000 A 
ATOM      4  C   UNL     1       5.935   5.052  17.096  0.00  0.00    +0.000 A 
ATOM      5  S   UNL     1       4.410   5.820  16.995  0.00  0.00    +0.000 S 
ENDROOT
BRANCH   1   6
ATOM      6  C   UNL     1       2.902   6.206  19.303  0.00  0.00    +0.000 C 
BRANCH   6   7
ATOM      7  C   UNL     1       2.515   5.408  20.546  0.00  0.00    +0.000 C 
BRANCH   7   8
ATOM      8  C   UNL     1       1.049   4.995  20.472  0.00  0.00    +0.000 C 
BRANCH   8   9
ATOM      9  C   UNL     1       0.921   3.520  20.116  0.00  0.00    +0.000 C 
BRANCH   9  10
ATOM     10  C   UNL     1       0.805   3.340  18.608  0.00  0.00    +0.000 C 
BRANCH  10  11
ATOM     11  C   UNL     1       1.983   2.535  18.071  0.00  0.00    +0.000 C 
BRANCH  11  12
ATOM     12  C   UNL     1       2.780   1.914  19.214  0.00  0.00    +0.000 C 
BRANCH  12  13
ATOM     13  C   UNL     1       4.167   1.493  18.741  0.00  0.00    +0.000 C 
BRANCH  13  14
ATOM     14  N   UNL     1       5.095   1.476  19.867  0.00  0.00    +0.000 NA
ATOM     15  H   UNL     1       5.276   2.429  20.167  0.00  0.00    +0.000 HD
ATOM     16  H   UNL     1       5.990   1.093  19.564  0.00  0.00    +0.000 HD
ENDBRANCH  13  14
ENDBRANCH  12  13
ENDBRANCH  11  12
ENDBRANCH  10  11
ENDBRANCH   9  10
ENDBRANCH   8   9
ENDBRANCH   7   8
ENDBRANCH   6   7
ENDBRANCH   1   6
BRANCH   4  17
ATOM     17  C   UNL     1       6.754   4.826  15.861  0.00  0.00    +0.000 C 
BRANCH  17  18
ATOM     18  C   UNL     1       6.220   3.661  15.021  0.00  0.00    +0.000 C 
BRANCH  18  19
ATOM     19  C   UNL     1       5.596   4.120  13.698  0.00  0.00    +0.000 C 
BRANCH  19  20
ATOM     20  C   UNL     1       6.460   3.690  12.518  0.00  0.00    +0.000 C 
BRANCH  20  21
ATOM     21  N   UNL     1       6.084   2.351  12.082  0.00  0.00    +0.000 NA
ATOM     22  H   UNL     1       5.378   1.973  12.716  0.00  0.00    +0.000 HD
ATOM     23  H   UNL     1       6.891   1.733  12.152  0.00  0.00    +0.000 HD
ENDBRANCH  20  21
ENDBRANCH  19  20
ENDBRANCH  18  19
ENDBRANCH  17  18
ENDBRANCH   4  17
TORSDOF 14
ENDMDL
MODEL 8
REMARK VINA RESULT:      -5.6      2.436      2.836
REMARK  Name = 
REMARK  14 active torsions:
REMARK  status: ('A' for Active; 'I' for Inactive)
REMARK    1  A    between atoms: N_1  and  C_2
REMARK    2  A    between atoms: C_2  and  C_3
REMARK    3  A    between atoms: C_3  and  C_4
REMARK    4  A    between atoms: C_4  and  C_5
REMARK    5  A    between atoms: C_5  and  C_6
REMARK    6  A    between atoms: C_6  and  C_7
REMARK    7  A    between atoms: C_7  and  C_8
REMARK    8  A    between atoms: C_8  and  C_9
REMARK    9  A    between atoms: C_9  and  C_10
REMARK   10  A    between atoms: C_13  and  C_14
REMARK   11  A    between atoms: C_14  and  C_15
REMARK   12  A    between atoms: C_15  and  C_16
REMARK   13  A    between atoms: C_16  and  C_17
REMARK   14  A    between atoms: C_17  and  N_18
REMARK                            x       y       z     vdW  Elec       q    Type
REMARK                         _______ _______ _______ _____ _____    ______ ____
ROOT
ATOM      1  C   UNL     1       3.540   5.859  19.190  0.00  0.00    +0.000 A 
ATOM      2  C   UNL     1       4.752   5.282  19.497  0.00  0.00    +0.000 A 
ATOM      3  C   UNL     1       5.675   5.373  18.421  0.00  0.00    +0.000 A 
ATOM      4  C   UNL     1       5.131   5.994  17.315  0.00  0.00    +0.000 A 
ATOM      5  S   UNL     1       3.515   6.478  17.598  0.00  0.00    +0.000 S 
ENDROOT
BRANCH   1   6
ATOM      6  C   UNL     1       2.339   5.984  20.072  0.00  0.00    +0.000 C 
BRANCH   6   7
ATOM      7  C   UNL     1       2.145   4.738  20.932  0.00  0.00    +0.000 C 
BRANCH   7   8
ATOM      8  C   UNL     1       0.817   4.067  20.598  0.00  0.00    +0.000 C 
BRANCH   8   9
ATOM      9  C   UNL     1       0.816   3.557  19.163  0.00  0.00    +0.000 C 
BRANCH   9  10
ATOM     10  C   UNL     1       1.527   2.212  19.071  0.00  0.00    +0.000 C 
BRANCH  10  11
ATOM     11  C   UNL     1       2.568   2.230  17.957  0.00  0.00    +0.000 C 
BRANCH  11  12
ATOM     12  C   UNL     1       3.882   1.618  18.434  0.00  0.00    +0.000 C 
BRANCH  12  13
ATOM     13  C   UNL     1       4.222   2.098  19.841  0.00  0.00    +0.000 C 
BRANCH  13  14
ATOM     14  N   UNL     1       5.304   1.290  20.396  0.00  0.00    +0.000 NA
ATOM     15  H   UNL     1       6.190   1.764  20.241  0.00  0.00    +0.000 HD
ATOM     16  H   UNL     1       5.358   0.405  19.895  0.00  0.00    +0.000 HD
ENDBRANCH  13  14
ENDBRANCH  12  13
ENDBRANCH  11  12
ENDBRANCH  10  11
ENDBRANCH   9  10
ENDBRANCH   8   9
ENDBRANCH   7   8
ENDBRANCH   6   7
ENDBRANCH   1   6
BRANCH   4  17
ATOM     17  C   UNL     1       5.775   6.242  15.984  0.00  0.00    +0.000 C 
BRANCH  17  18
ATOM     18  C   UNL     1       6.892   5.236  15.688  0.00  0.00    +0.000 C 
BRANCH  18  19
ATOM     19  C   UNL     1       6.995   4.885  14.199  0.00  0.00    +0.000 C 
BRANCH  19  20
ATOM     20  C   UNL     1       5.893   3.909  13.800  0.00  0.00    +0.000 C 
BRANCH  20  21
ATOM     21  N   UNL     1       6.294   3.155  12.618  0.00  0.00    +0.000 NA
ATOM     22  H   UNL     1       5.886   3.585  11.787  0.00  0.00    +0.000 HD
ATOM     23  H   UNL     1       5.911   2.213  12.670  0.00  0.00    +0.000 HD
ENDBRANCH  20  21
ENDBRANCH  19  20
ENDBRANCH  18  19
ENDBRANCH  17  18
ENDBRANCH   4  17
TORSDOF 14
ENDMDL
MODEL 9
REMARK VINA RESULT:      -5.6      1.934      2.183
REMARK  Name = 
REMARK  14 active torsions:
REMARK  status: ('A' for Active; 'I' for Inactive)
REMARK    1  A    between atoms: N_1  and  C_2
REMARK    2  A    between atoms: C_2  and  C_3
REMARK    3  A    between atoms: C_3  and  C_4
REMARK    4  A    between atoms: C_4  and  C_5
REMARK    5  A    between atoms: C_5  and  C_6
REMARK    6  A    between atoms: C_6  and  C_7
REMARK    7  A    between atoms: C_7  and  C_8
REMARK    8  A    between atoms: C_8  and  C_9
REMARK    9  A    between atoms: C_9  and  C_10
REMARK   10  A    between atoms: C_13  and  C_14
REMARK   11  A    between atoms: C_14  and  C_15
REMARK   12  A    between atoms: C_15  and  C_16
REMARK   13  A    between atoms: C_16  and  C_17
REMARK   14  A    between atoms: C_17  and  N_18
REMARK                            x       y       z     vdW  Elec       q    Type
REMARK                         _______ _______ _______ _____ _____    ______ ____
ROOT
ATOM      1  C   UNL     1       2.485   6.413  19.467  0.00  0.00    +0.000 A 
ATOM      2  C   UNL     1       2.186   7.499  18.675  0.00  0.00    +0.000 A 
ATOM      3  C   UNL     1       3.187   7.740  17.696  0.00  0.00    +0.000 A 
ATOM      4  C   UNL     1       4.234   6.846  17.788  0.00  0.00    +0.000 A 
ATOM      5  S   UNL     1       3.985   5.712  19.044  0.00  0.00    +0.000 S 
ENDROOT
BRANCH   1   6
ATOM      6  C   UNL     1       1.665   5.838  20.577  0.00  0.00    +0.000 C 
BRANCH   6   7
ATOM      7  C   UNL     1       2.349   4.628  21.208  0.00  0.00    +0.000 C 
BRANCH   7   8
ATOM      8  C   UNL     1       1.497   3.378  21.012  0.00  0.00    +0.000 C 
BRANCH   8   9
ATOM      9  C   UNL     1       0.592   3.528  19.796  0.00  0.00    +0.000 C 
BRANCH   9  10
ATOM     10  C   UNL     1       1.222   2.872  18.574  0.00  0.00    +0.000 C 
BRANCH  10  11
ATOM     11  C   UNL     1       2.122   1.714  18.990  0.00  0.00    +0.000 C 
BRANCH  11  12
ATOM     12  C   UNL     1       3.418   1.720  18.186  0.00  0.00    +0.000 C 
BRANCH  12  13
ATOM     13  C   UNL     1       4.491   2.539  18.895  0.00  0.00    +0.000 C 
BRANCH  13  14
ATOM     14  N   UNL     1       4.935   1.845  20.099  0.00  0.00    +0.000 NA
ATOM     15  H   UNL     1       5.067   2.521  20.846  0.00  0.00    +0.000 HD
ATOM     16  H   UNL     1       5.844   1.419  19.930  0.00  0.00    +0.000 HD
ENDBRANCH  13  14
ENDBRANCH  12  13
ENDBRANCH  11  12
ENDBRANCH  10  11
ENDBRANCH   9  10
ENDBRANCH   8   9
ENDBRANCH   7   8
ENDBRANCH   6   7
ENDBRANCH   1   6
BRANCH   4  17
ATOM     17  C   UNL     1       5.484   6.799  16.961  0.00  0.00    +0.000 C 
BRANCH  17  18
ATOM     18  C   UNL     1       5.248   6.146  15.596  0.00  0.00    +0.000 C 
BRANCH  18  19
ATOM     19  C   UNL     1       5.488   4.631  15.612  0.00  0.00    +0.000 C 
BRANCH  19  20
ATOM     20  C   UNL     1       6.566   4.246  14.605  0.00  0.00    +0.000 C 
BRANCH  20  21
ATOM     21  N   UNL     1       5.953   3.741  13.383  0.00  0.00    +0.000 NA
ATOM     22  H   UNL     1       6.423   4.149  12.573  0.00  0.00    +0.000 HD
ATOM     23  H   UNL     1       4.983   4.051  13.337  0.00  0.00    +0.000 HD
ENDBRANCH  20  21
ENDBRANCH  19  20
ENDBRANCH  18  19
ENDBRANCH  17  18
ENDBRANCH   4  17
TORSDOF 14
ENDMDL
