MODEL 1
REMARK VINA RESULT:      -7.2      0.000      0.000
REMARK  Name = 
REMARK  3 active torsions:
REMARK  status: ('A' for Active; 'I' for Inactive)
REMARK    1  A    between atoms: C_5  and  C_6
REMARK    2  A    between atoms: N_19  and  C_20
REMARK    3  A    between atoms: C_20  and  C_21
REMARK                            x       y       z     vdW  Elec       q    Type
REMARK                         _______ _______ _______ _____ _____    ______ ____
ROOT
ATOM      1  O   UNL     1      -7.809  11.151  22.943  0.00  0.00    +0.000 OA
ATOM      2  C   UNL     1      -7.752  11.729  21.850  0.00  0.00    +0.000 C 
ATOM      3  C   UNL     1      -7.912  10.947  20.562  0.00  0.00    +0.000 C 
ATOM      4  N   UNL     1      -6.622  10.795  19.907  0.00  0.00    +0.000 NA
ATOM      5  C   UNL     1      -6.098  11.836  19.355  0.00  0.00    +0.000 C 
ATOM      6  C   UNL     1      -6.747  13.193  19.349  0.00  0.00    +0.000 A 
ATOM      7  C   UNL     1      -6.677  13.889  18.122  0.00  0.00    +0.000 A 
ATOM      8  C   UNL     1      -7.171  15.179  18.006  0.00  0.00    +0.000 A 
ATOM      9 CL   UNL     1      -7.034  16.025  16.518  0.00  0.00    +0.000 Cl
ATOM     10  C   UNL     1      -7.771  15.786  19.095  0.00  0.00    +0.000 A 
ATOM     11  C   UNL     1      -7.881  15.095  20.305  0.00  0.00    +0.000 A 
ATOM     12  C   UNL     1      -7.393  13.782  20.471  0.00  0.00    +0.000 A 
ATOM     13  N   UNL     1      -7.614  13.117  21.738  0.00  0.00    +0.000 N 
ENDROOT
BRANCH   5  14
ATOM     14  C   UNL     1      -4.787  11.635  18.632  0.00  0.00    +0.000 A 
ATOM     15  C   UNL     1      -4.790  11.056  17.355  0.00  0.00    +0.000 A 
ATOM     16  C   UNL     1      -3.593  10.886  16.648  0.00  0.00    +0.000 A 
ATOM     17  C   UNL     1      -2.389  11.294  17.212  0.00  0.00    +0.000 A 
ATOM     18  C   UNL     1      -2.374  11.861  18.487  0.00  0.00    +0.000 A 
ATOM     19  C   UNL     1      -3.566  12.024  19.202  0.00  0.00    +0.000 A 
ENDBRANCH   5  14
BRANCH  13  20
ATOM     20  C   UNL     1      -7.763  13.883  22.989  0.00  0.00    +0.000 C 
BRANCH  20  21
ATOM     21  C   UNL     1      -6.454  14.348  23.617  0.00  0.00    +0.000 A 
ATOM     22  C   UNL     1      -6.231  15.639  23.908  0.00  0.00    +0.000 A 
ATOM     23  C   UNL     1      -4.868  16.014  24.285  0.00  0.00    +0.000 A 
ATOM     24  O   UNL     1      -4.650  17.002  24.981  0.00  0.00    +0.000 OA
ATOM     25  N   UNL     1      -3.930  15.158  23.768  0.00  0.00    +0.000 N 
ATOM     26  C   UNL     1      -2.741  15.625  23.242  0.00  0.00    +0.000 A 
ATOM     27  C   UNL     1      -1.785  14.770  22.870  0.00  0.00    +0.000 A 
ATOM     28  C   UNL     1      -1.887  13.387  23.283  0.00  0.00    +0.000 A 
ATOM     29  C   UNL     1      -3.051  12.901  23.750  0.00  0.00    +0.000 A 
ATOM     30  C   UNL     1      -4.240  13.812  23.766  0.00  0.00    +0.000 A 
ATOM     31  N   UNL     1      -5.466  13.378  23.775  0.00  0.00    +0.000 NA
ENDBRANCH  20  21
ENDBRANCH  13  20
TORSDOF 3
ENDMDL
MODEL 2
REMARK VINA RESULT:      -7.1      7.715     10.940
REMARK  Name = 
REMARK  3 active torsions:
REMARK  status: ('A' for Active; 'I' for Inactive)
REMARK    1  A    between atoms: C_5  and  C_6
REMARK    2  A    between atoms: N_19  and  C_20
REMARK    3  A    between atoms: C_20  and  C_21
REMARK                            x       y       z     vdW  Elec       q    Type
REMARK                         _______ _______ _______ _____ _____    ______ ____
ROOT
ATOM      1  O   UNL     1       2.696   8.043  17.475  0.00  0.00    +0.000 OA
ATOM      2  C   UNL     1       1.874   8.584  18.225  0.00  0.00    +0.000 C 
ATOM      3  C   UNL     1       0.762   9.439  17.651  0.00  0.00    +0.000 C 
ATOM      4  N   UNL     1       1.045  10.847  17.881  0.00  0.00    +0.000 NA
ATOM      5  C   UNL     1       0.939  11.296  19.085  0.00  0.00    +0.000 C 
ATOM      6  C   UNL     1       0.536  10.448  20.260  0.00  0.00    +0.000 A 
ATOM      7  C   UNL     1      -0.383  11.049  21.149  0.00  0.00    +0.000 A 
ATOM      8  C   UNL     1      -0.777  10.401  22.310  0.00  0.00    +0.000 A 
ATOM      9 CL   UNL     1      -1.859  11.167  23.401  0.00  0.00    +0.000 Cl
ATOM     10  C   UNL     1      -0.292   9.135  22.590  0.00  0.00    +0.000 A 
ATOM     11  C   UNL     1       0.589   8.514  21.700  0.00  0.00    +0.000 A 
ATOM     12  C   UNL     1       1.018   9.133  20.508  0.00  0.00    +0.000 A 
ATOM     13  N   UNL     1       1.875   8.387  19.610  0.00  0.00    +0.000 N 
ENDROOT
BRANCH   5  14
ATOM     14  C   UNL     1       1.183  12.774  19.283  0.00  0.00    +0.000 A 
ATOM     15  C   UNL     1       2.301  13.192  20.021  0.00  0.00    +0.000 A 
ATOM     16  C   UNL     1       2.569  14.555  20.193  0.00  0.00    +0.000 A 
ATOM     17  C   UNL     1       1.725  15.507  19.631  0.00  0.00    +0.000 A 
ATOM     18  C   UNL     1       0.605  15.102  18.906  0.00  0.00    +0.000 A 
ATOM     19  C   UNL     1       0.325  13.741  18.738  0.00  0.00    +0.000 A 
ENDBRANCH   5  14
BRANCH  13  20
ATOM     20  C   UNL     1       2.767   7.325  20.109  0.00  0.00    +0.000 C 
BRANCH  20  21
ATOM     21  C   UNL     1       2.245   5.905  19.917  0.00  0.00    +0.000 A 
ATOM     22  C   UNL     1       1.910   5.129  20.960  0.00  0.00    +0.000 A 
ATOM     23  C   UNL     1       1.648   3.716  20.684  0.00  0.00    +0.000 A 
ATOM     24  O   UNL     1       0.926   3.049  21.421  0.00  0.00    +0.000 OA
ATOM     25  N   UNL     1       2.296   3.274  19.560  0.00  0.00    +0.000 N 
ATOM     26  C   UNL     1       2.908   2.037  19.522  0.00  0.00    +0.000 A 
ATOM     27  C   UNL     1       3.415   1.570  18.378  0.00  0.00    +0.000 A 
ATOM     28  C   UNL     1       3.065   2.230  17.139  0.00  0.00    +0.000 A 
ATOM     29  C   UNL     1       2.514   3.458  17.155  0.00  0.00    +0.000 A 
ATOM     30  C   UNL     1       2.337   4.134  18.479  0.00  0.00    +0.000 A 
ATOM     31  N   UNL     1       2.232   5.424  18.609  0.00  0.00    +0.000 NA
ENDBRANCH  20  21
ENDBRANCH  13  20
TORSDOF 3
ENDMDL
MODEL 3
REMARK VINA RESULT:      -7.1      3.136      5.879
REMARK  Name = 
REMARK  3 active torsions:
REMARK  status: ('A' for Active; 'I' for Inactive)
REMARK    1  A    between atoms: C_5  and  C_6
REMARK    2  A    between atoms: N_19  and  C_20
REMARK    3  A    between atoms: C_20  and  C_21
REMARK                            x       y       z     vdW  Elec       q    Type
REMARK                         _______ _______ _______ _____ _____    ______ ____
ROOT
ATOM      1  O   UNL     1      -2.627  15.533  21.470  0.00  0.00    +0.000 OA
ATOM      2  C   UNL     1      -2.025  14.455  21.380  0.00  0.00    +0.000 C 
ATOM      3  C   UNL     1      -0.916  14.281  20.361  0.00  0.00    +0.000 C 
ATOM      4  N   UNL     1      -1.382  13.462  19.253  0.00  0.00    +0.000 NA
ATOM      5  C   UNL     1      -1.555  12.201  19.464  0.00  0.00    +0.000 C 
ATOM      6  C   UNL     1      -1.301  11.534  20.787  0.00  0.00    +0.000 A 
ATOM      7  C   UNL     1      -0.636  10.290  20.715  0.00  0.00    +0.000 A 
ATOM      8  C   UNL     1      -0.409   9.538  21.858  0.00  0.00    +0.000 A 
ATOM      9 CL   UNL     1       0.359   8.007  21.745  0.00  0.00    +0.000 Cl
ATOM     10  C   UNL     1      -0.806  10.024  23.092  0.00  0.00    +0.000 A 
ATOM     11  C   UNL     1      -1.431  11.272  23.181  0.00  0.00    +0.000 A 
ATOM     12  C   UNL     1      -1.684  12.071  22.047  0.00  0.00    +0.000 A 
ATOM     13  N   UNL     1      -2.271  13.380  22.241  0.00  0.00    +0.000 N 
ENDROOT
BRANCH   5  14
ATOM     14  C   UNL     1      -1.983  11.367  18.279  0.00  0.00    +0.000 A 
ATOM     15  C   UNL     1      -3.230  11.610  17.684  0.00  0.00    +0.000 A 
ATOM     16  C   UNL     1      -3.639  10.874  16.565  0.00  0.00    +0.000 A 
ATOM     17  C   UNL     1      -2.806   9.893  16.035  0.00  0.00    +0.000 A 
ATOM     18  C   UNL     1      -1.570   9.636  16.628  0.00  0.00    +0.000 A 
ATOM     19  C   UNL     1      -1.159  10.362  17.752  0.00  0.00    +0.000 A 
ENDBRANCH   5  14
BRANCH  13  20
ATOM     20  C   UNL     1      -3.129  13.670  23.405  0.00  0.00    +0.000 C 
BRANCH  20  21
ATOM     21  C   UNL     1      -4.625  13.528  23.151  0.00  0.00    +0.000 A 
ATOM     22  C   UNL     1      -5.494  13.315  24.152  0.00  0.00    +0.000 A 
ATOM     23  C   UNL     1      -6.864  12.959  23.783  0.00  0.00    +0.000 A 
ATOM     24  O   UNL     1      -7.804  13.183  24.542  0.00  0.00    +0.000 OA
ATOM     25  N   UNL     1      -6.936  12.366  22.549  0.00  0.00    +0.000 N 
ATOM     26  C   UNL     1      -7.758  11.281  22.319  0.00  0.00    +0.000 A 
ATOM     27  C   UNL     1      -7.917  10.804  21.082  0.00  0.00    +0.000 A 
ATOM     28  C   UNL     1      -7.457  11.600  19.964  0.00  0.00    +0.000 A 
ATOM     29  C   UNL     1      -6.615  12.630  20.163  0.00  0.00    +0.000 A 
ATOM     30  C   UNL     1      -6.125  12.881  21.556  0.00  0.00    +0.000 A 
ATOM     31  N   UNL     1      -5.028  13.528  21.816  0.00  0.00    +0.000 NA
ENDBRANCH  20  21
ENDBRANCH  13  20
TORSDOF 3
ENDMDL
MODEL 4
REMARK VINA RESULT:      -7.0      3.215      5.970
REMARK  Name = 
REMARK  3 active torsions:
REMARK  status: ('A' for Active; 'I' for Inactive)
REMARK    1  A    between atoms: C_5  and  C_6
REMARK    2  A    between atoms: N_19  and  C_20
REMARK    3  A    between atoms: C_20  and  C_21
REMARK                            x       y       z     vdW  Elec       q    Type
REMARK                         _______ _______ _______ _____ _____    ______ ____
ROOT
ATOM      1  O   UNL     1      -1.560  15.746  21.283  0.00  0.00    +0.000 OA
ATOM      2  C   UNL     1      -1.161  14.580  21.170  0.00  0.00    +0.000 C 
ATOM      3  C   UNL     1      -0.274  14.183  20.008  0.00  0.00    +0.000 C 
ATOM      4  N   UNL     1      -1.037  13.415  19.036  0.00  0.00    +0.000 NA
ATOM      5  C   UNL     1      -1.375  12.211  19.350  0.00  0.00    +0.000 C 
ATOM      6  C   UNL     1      -1.024  11.559  20.658  0.00  0.00    +0.000 A 
ATOM      7  C   UNL     1      -0.589  10.218  20.565  0.00  0.00    +0.000 A 
ATOM      8  C   UNL     1      -0.306   9.481  21.705  0.00  0.00    +0.000 A 
ATOM      9 CL   UNL     1       0.176   7.838  21.572  0.00  0.00    +0.000 Cl
ATOM     10  C   UNL     1      -0.417  10.072  22.951  0.00  0.00    +0.000 A 
ATOM     11  C   UNL     1      -0.809  11.410  23.056  0.00  0.00    +0.000 A 
ATOM     12  C   UNL     1      -1.108  12.198  21.926  0.00  0.00    +0.000 A 
ATOM     13  N   UNL     1      -1.437  13.594  22.125  0.00  0.00    +0.000 N 
ENDROOT
BRANCH   5  14
ATOM     14  C   UNL     1      -2.116  11.418  18.299  0.00  0.00    +0.000 A 
ATOM     15  C   UNL     1      -1.397  10.563  17.450  0.00  0.00    +0.000 A 
ATOM     16  C   UNL     1      -2.061   9.793  16.488  0.00  0.00    +0.000 A 
ATOM     17  C   UNL     1      -3.445   9.870  16.368  0.00  0.00    +0.000 A 
ATOM     18  C   UNL     1      -4.167  10.727  17.199  0.00  0.00    +0.000 A 
ATOM     19  C   UNL     1      -3.509  11.507  18.156  0.00  0.00    +0.000 A 
ENDBRANCH   5  14
BRANCH  13  20
ATOM     20  C   UNL     1      -2.039  14.068  23.384  0.00  0.00    +0.000 C 
BRANCH  20  21
ATOM     21  C   UNL     1      -3.550  13.887  23.482  0.00  0.00    +0.000 A 
ATOM     22  C   UNL     1      -4.096  12.764  23.974  0.00  0.00    +0.000 A 
ATOM     23  C   UNL     1      -5.540  12.595  23.807  0.00  0.00    +0.000 A 
ATOM     24  O   UNL     1      -6.188  11.884  24.571  0.00  0.00    +0.000 OA
ATOM     25  N   UNL     1      -6.027  13.293  22.732  0.00  0.00    +0.000 N 
ATOM     26  C   UNL     1      -6.972  12.746  21.887  0.00  0.00    +0.000 A 
ATOM     27  C   UNL     1      -7.532  13.489  20.929  0.00  0.00    +0.000 A 
ATOM     28  C   UNL     1      -7.359  14.925  20.970  0.00  0.00    +0.000 A 
ATOM     29  C   UNL     1      -6.409  15.474  21.750  0.00  0.00    +0.000 A 
ATOM     30  C   UNL     1      -5.507  14.554  22.514  0.00  0.00    +0.000 A 
ATOM     31  N   UNL     1      -4.330  14.907  22.939  0.00  0.00    +0.000 NA
ENDBRANCH  20  21
ENDBRANCH  13  20
TORSDOF 3
ENDMDL
MODEL 5
REMARK VINA RESULT:      -6.9      5.176      7.164
REMARK  Name = 
REMARK  3 active torsions:
REMARK  status: ('A' for Active; 'I' for Inactive)
REMARK    1  A    between atoms: C_5  and  C_6
REMARK    2  A    between atoms: N_19  and  C_20
REMARK    3  A    between atoms: C_20  and  C_21
REMARK                            x       y       z     vdW  Elec       q    Type
REMARK                         _______ _______ _______ _____ _____    ______ ____
ROOT
ATOM      1  O   UNL     1      -0.186  12.625  23.126  0.00  0.00    +0.000 OA
ATOM      2  C   UNL     1      -0.637  11.978  22.172  0.00  0.00    +0.000 C 
ATOM      3  C   UNL     1      -0.873  10.487  22.303  0.00  0.00    +0.000 C 
ATOM      4  N   UNL     1       0.154   9.754  21.579  0.00  0.00    +0.000 NA
ATOM      5  C   UNL     1       0.115   9.773  20.290  0.00  0.00    +0.000 C 
ATOM      6  C   UNL     1      -0.932  10.507  19.497  0.00  0.00    +0.000 A 
ATOM      7  C   UNL     1      -1.448   9.803  18.386  0.00  0.00    +0.000 A 
ATOM      8  C   UNL     1      -2.364  10.398  17.532  0.00  0.00    +0.000 A 
ATOM      9 CL   UNL     1      -2.945   9.543  16.160  0.00  0.00    +0.000 Cl
ATOM     10  C   UNL     1      -2.807  11.684  17.784  0.00  0.00    +0.000 A 
ATOM     11  C   UNL     1      -2.332  12.378  18.901  0.00  0.00    +0.000 A 
ATOM     12  C   UNL     1      -1.400  11.816  19.798  0.00  0.00    +0.000 A 
ATOM     13  N   UNL     1      -1.018  12.579  20.967  0.00  0.00    +0.000 N 
ENDROOT
BRANCH   5  14
ATOM     14  C   UNL     1       1.159   8.956  19.566  0.00  0.00    +0.000 A 
ATOM     15  C   UNL     1       1.636   7.776  20.156  0.00  0.00    +0.000 A 
ATOM     16  C   UNL     1       2.581   6.981  19.495  0.00  0.00    +0.000 A 
ATOM     17  C   UNL     1       3.052   7.360  18.242  0.00  0.00    +0.000 A 
ATOM     18  C   UNL     1       2.593   8.537  17.652  0.00  0.00    +0.000 A 
ATOM     19  C   UNL     1       1.656   9.341  18.313  0.00  0.00    +0.000 A 
ENDBRANCH   5  14
BRANCH  13  20
ATOM     20  C   UNL     1      -1.064  14.052  20.969  0.00  0.00    +0.000 C 
BRANCH  20  21
ATOM     21  C   UNL     1       0.282  14.737  20.763  0.00  0.00    +0.000 A 
ATOM     22  C   UNL     1       0.552  15.939  21.297  0.00  0.00    +0.000 A 
ATOM     23  C   UNL     1       1.773  16.610  20.849  0.00  0.00    +0.000 A 
ATOM     24  O   UNL     1       2.336  17.441  21.558  0.00  0.00    +0.000 OA
ATOM     25  N   UNL     1       2.161  16.208  19.597  0.00  0.00    +0.000 N 
ATOM     26  C   UNL     1       2.632  17.112  18.665  0.00  0.00    +0.000 A 
ATOM     27  C   UNL     1       3.131  16.684  17.503  0.00  0.00    +0.000 A 
ATOM     28  C   UNL     1       3.439  15.278  17.351  0.00  0.00    +0.000 A 
ATOM     29  C   UNL     1       2.947  14.377  18.221  0.00  0.00    +0.000 A 
ATOM     30  C   UNL     1       2.030  14.865  19.300  0.00  0.00    +0.000 A 
ATOM     31  N   UNL     1       1.177  14.095  19.909  0.00  0.00    +0.000 NA
ENDBRANCH  20  21
ENDBRANCH  13  20
TORSDOF 3
ENDMDL
MODEL 6
REMARK VINA RESULT:      -6.8      3.235      5.810
REMARK  Name = 
REMARK  3 active torsions:
REMARK  status: ('A' for Active; 'I' for Inactive)
REMARK    1  A    between atoms: C_5  and  C_6
REMARK    2  A    between atoms: N_19  and  C_20
REMARK    3  A    between atoms: C_20  and  C_21
REMARK                            x       y       z     vdW  Elec       q    Type
REMARK                         _______ _______ _______ _____ _____    ______ ____
ROOT
ATOM      1  O   UNL     1      -1.451  15.821  20.949  0.00  0.00    +0.000 OA
ATOM      2  C   UNL     1      -1.087  14.639  20.901  0.00  0.00    +0.000 C 
ATOM      3  C   UNL     1      -0.169  14.165  19.792  0.00  0.00    +0.000 C 
ATOM      4  N   UNL     1      -0.920  13.380  18.824  0.00  0.00    +0.000 NA
ATOM      5  C   UNL     1      -1.310  12.202  19.174  0.00  0.00    +0.000 C 
ATOM      6  C   UNL     1      -1.030  11.596  20.521  0.00  0.00    +0.000 A 
ATOM      7  C   UNL     1      -0.637  10.239  20.501  0.00  0.00    +0.000 A 
ATOM      8  C   UNL     1      -0.422   9.543  21.681  0.00  0.00    +0.000 A 
ATOM      9 CL   UNL     1       0.010   7.882  21.636  0.00  0.00    +0.000 Cl
ATOM     10  C   UNL     1      -0.560  10.190  22.896  0.00  0.00    +0.000 A 
ATOM     11  C   UNL     1      -0.912  11.543  22.930  0.00  0.00    +0.000 A 
ATOM     12  C   UNL     1      -1.142  12.291  21.757  0.00  0.00    +0.000 A 
ATOM     13  N   UNL     1      -1.432  13.704  21.884  0.00  0.00    +0.000 N 
ENDROOT
BRANCH   5  14
ATOM     14  C   UNL     1      -2.036  11.389  18.128  0.00  0.00    +0.000 A 
ATOM     15  C   UNL     1      -1.318  10.457  17.363  0.00  0.00    +0.000 A 
ATOM     16  C   UNL     1      -1.970   9.667  16.409  0.00  0.00    +0.000 A 
ATOM     17  C   UNL     1      -3.341   9.801  16.214  0.00  0.00    +0.000 A 
ATOM     18  C   UNL     1      -4.061  10.734  16.961  0.00  0.00    +0.000 A 
ATOM     19  C   UNL     1      -3.414  11.533  17.910  0.00  0.00    +0.000 A 
ENDBRANCH   5  14
BRANCH  13  20
ATOM     20  C   UNL     1      -2.065  14.250  23.098  0.00  0.00    +0.000 C 
BRANCH  20  21
ATOM     21  C   UNL     1      -3.567  14.488  22.987  0.00  0.00    +0.000 A 
ATOM     22  C   UNL     1      -4.205  15.356  23.788  0.00  0.00    +0.000 A 
ATOM     23  C   UNL     1      -5.668  15.338  23.762  0.00  0.00    +0.000 A 
ATOM     24  O   UNL     1      -6.320  16.332  24.074  0.00  0.00    +0.000 OA
ATOM     25  N   UNL     1      -6.168  14.122  23.374  0.00  0.00    +0.000 N 
ATOM     26  C   UNL     1      -7.265  13.563  24.000  0.00  0.00    +0.000 A 
ATOM     27  C   UNL     1      -7.819  12.447  23.520  0.00  0.00    +0.000 A 
ATOM     28  C   UNL     1      -7.448  11.998  22.196  0.00  0.00    +0.000 A 
ATOM     29  C   UNL     1      -6.354  12.494  21.591  0.00  0.00    +0.000 A 
ATOM     30  C   UNL     1      -5.508  13.468  22.352  0.00  0.00    +0.000 A 
ATOM     31  N   UNL     1      -4.254  13.683  22.080  0.00  0.00    +0.000 NA
ENDBRANCH  20  21
ENDBRANCH  13  20
TORSDOF 3
ENDMDL
MODEL 7
REMARK VINA RESULT:      -6.8      0.830      1.252
REMARK  Name = 
REMARK  3 active torsions:
REMARK  status: ('A' for Active; 'I' for Inactive)
REMARK    1  A    between atoms: C_5  and  C_6
REMARK    2  A    between atoms: N_19  and  C_20
REMARK    3  A    between atoms: C_20  and  C_21
REMARK                            x       y       z     vdW  Elec       q    Type
REMARK                         _______ _______ _______ _____ _____    ______ ____
ROOT
ATOM      1  O   UNL     1      -7.318  11.743  23.737  0.00  0.00    +0.000 OA
ATOM      2  C   UNL     1      -7.357  12.293  22.629  0.00  0.00    +0.000 C 
ATOM      3  C   UNL     1      -7.786  11.514  21.402  0.00  0.00    +0.000 C 
ATOM      4  N   UNL     1      -6.629  11.208  20.576  0.00  0.00    +0.000 NA
ATOM      5  C   UNL     1      -6.080  12.175  19.922  0.00  0.00    +0.000 C 
ATOM      6  C   UNL     1      -6.571  13.596  19.966  0.00  0.00    +0.000 A 
ATOM      7  C   UNL     1      -6.603  14.260  18.720  0.00  0.00    +0.000 A 
ATOM      8  C   UNL     1      -6.964  15.596  18.635  0.00  0.00    +0.000 A 
ATOM      9 CL   UNL     1      -6.953  16.398  17.116  0.00  0.00    +0.000 Cl
ATOM     10  C   UNL     1      -7.331  16.284  19.778  0.00  0.00    +0.000 A 
ATOM     11  C   UNL     1      -7.340  15.628  21.013  0.00  0.00    +0.000 A 
ATOM     12  C   UNL     1      -6.979  14.272  21.149  0.00  0.00    +0.000 A 
ATOM     13  N   UNL     1      -7.086  13.655  22.455  0.00  0.00    +0.000 N 
ENDROOT
BRANCH   5  14
ATOM     14  C   UNL     1      -4.917  11.816  19.028  0.00  0.00    +0.000 A 
ATOM     15  C   UNL     1      -3.615  12.152  19.427  0.00  0.00    +0.000 A 
ATOM     16  C   UNL     1      -2.515  11.804  18.634  0.00  0.00    +0.000 A 
ATOM     17  C   UNL     1      -2.709  11.119  17.439  0.00  0.00    +0.000 A 
ATOM     18  C   UNL     1      -4.001  10.791  17.027  0.00  0.00    +0.000 A 
ATOM     19  C   UNL     1      -5.105  11.144  17.811  0.00  0.00    +0.000 A 
ENDBRANCH   5  14
BRANCH  13  20
ATOM     20  C   UNL     1      -6.968  14.452  23.690  0.00  0.00    +0.000 C 
BRANCH  20  21
ATOM     21  C   UNL     1      -5.547  14.866  24.053  0.00  0.00    +0.000 A 
ATOM     22  C   UNL     1      -5.229  16.143  24.316  0.00  0.00    +0.000 A 
ATOM     23  C   UNL     1      -3.807  16.470  24.421  0.00  0.00    +0.000 A 
ATOM     24  O   UNL     1      -3.424  17.437  25.077  0.00  0.00    +0.000 OA
ATOM     25  N   UNL     1      -3.017  15.600  23.714  0.00  0.00    +0.000 N 
ATOM     26  C   UNL     1      -1.942  16.046  22.972  0.00  0.00    +0.000 A 
ATOM     27  C   UNL     1      -1.106  15.173  22.403  0.00  0.00    +0.000 A 
ATOM     28  C   UNL     1      -1.169  13.785  22.805  0.00  0.00    +0.000 A 
ATOM     29  C   UNL     1      -2.233  13.321  23.485  0.00  0.00    +0.000 A 
ATOM     30  C   UNL     1      -3.365  14.264  23.752  0.00  0.00    +0.000 A 
ATOM     31  N   UNL     1      -4.578  13.865  23.997  0.00  0.00    +0.000 NA
ENDBRANCH  20  21
ENDBRANCH  13  20
TORSDOF 3
ENDMDL
MODEL 8
REMARK VINA RESULT:      -6.8      4.249      6.285
REMARK  Name = 
REMARK  3 active torsions:
REMARK  status: ('A' for Active; 'I' for Inactive)
REMARK    1  A    between atoms: C_5  and  C_6
REMARK    2  A    between atoms: N_19  and  C_20
REMARK    3  A    between atoms: C_20  and  C_21
REMARK                            x       y       z     vdW  Elec       q    Type
REMARK                         _______ _______ _______ _____ _____    ______ ____
ROOT
ATOM      1  O   UNL     1       0.046  10.434  23.830  0.00  0.00    +0.000 OA
ATOM      2  C   UNL     1      -0.345  10.222  22.675  0.00  0.00    +0.000 C 
ATOM      3  C   UNL     1      -0.632   8.808  22.212  0.00  0.00    +0.000 C 
ATOM      4  N   UNL     1       0.429   8.346  21.331  0.00  0.00    +0.000 NA
ATOM      5  C   UNL     1       0.494   8.852  20.146  0.00  0.00    +0.000 C 
ATOM      6  C   UNL     1      -0.464   9.889  19.628  0.00  0.00    +0.000 A 
ATOM      7  C   UNL     1      -0.909   9.687  18.302  0.00  0.00    +0.000 A 
ATOM      8  C   UNL     1      -1.736  10.611  17.682  0.00  0.00    +0.000 A 
ATOM      9 CL   UNL     1      -2.229  10.371  16.054  0.00  0.00    +0.000 Cl
ATOM     10  C   UNL     1      -2.162  11.730  18.376  0.00  0.00    +0.000 A 
ATOM     11  C   UNL     1      -1.760  11.922  19.701  0.00  0.00    +0.000 A 
ATOM     12  C   UNL     1      -0.918  11.011  20.374  0.00  0.00    +0.000 A 
ATOM     13  N   UNL     1      -0.611  11.254  21.768  0.00  0.00    +0.000 N 
ENDROOT
BRANCH   5  14
ATOM     14  C   UNL     1       1.570   8.312  19.235  0.00  0.00    +0.000 A 
ATOM     15  C   UNL     1       2.027   9.101  18.169  0.00  0.00    +0.000 A 
ATOM     16  C   UNL     1       3.046   8.639  17.327  0.00  0.00    +0.000 A 
ATOM     17  C   UNL     1       3.614   7.388  17.544  0.00  0.00    +0.000 A 
ATOM     18  C   UNL     1       3.158   6.590  18.594  0.00  0.00    +0.000 A 
ATOM     19  C   UNL     1       2.133   7.042  19.433  0.00  0.00    +0.000 A 
ENDBRANCH   5  14
BRANCH  13  20
ATOM     20  C   UNL     1      -0.616  12.618  22.327  0.00  0.00    +0.000 C 
BRANCH  20  21
ATOM     21  C   UNL     1      -1.798  12.934  23.237  0.00  0.00    +0.000 A 
ATOM     22  C   UNL     1      -2.930  12.215  23.199  0.00  0.00    +0.000 A 
ATOM     23  C   UNL     1      -4.081  12.740  23.935  0.00  0.00    +0.000 A 
ATOM     24  O   UNL     1      -4.970  11.994  24.338  0.00  0.00    +0.000 OA
ATOM     25  N   UNL     1      -4.027  14.101  24.086  0.00  0.00    +0.000 N 
ATOM     26  C   UNL     1      -5.153  14.887  23.936  0.00  0.00    +0.000 A 
ATOM     27  C   UNL     1      -5.109  16.191  24.221  0.00  0.00    +0.000 A 
ATOM     28  C   UNL     1      -3.971  16.707  24.951  0.00  0.00    +0.000 A 
ATOM     29  C   UNL     1      -2.847  15.976  25.063  0.00  0.00    +0.000 A 
ATOM     30  C   UNL     1      -2.792  14.655  24.361  0.00  0.00    +0.000 A 
ATOM     31  N   UNL     1      -1.676  14.072  24.034  0.00  0.00    +0.000 NA
ENDBRANCH  20  21
ENDBRANCH  13  20
TORSDOF 3
ENDMDL
MODEL 9
REMARK VINA RESULT:      -6.8      3.771      7.524
REMARK  Name = 
REMARK  3 active torsions:
REMARK  status: ('A' for Active; 'I' for Inactive)
REMARK    1  A    between atoms: C_5  and  C_6
REMARK    2  A    between atoms: N_19  and  C_20
REMARK    3  A    between atoms: C_20  and  C_21
REMARK                            x       y       z     vdW  Elec       q    Type
REMARK                         _______ _______ _______ _____ _____    ______ ____
ROOT
ATOM      1  O   UNL     1      -0.427   8.734  20.722  0.00  0.00    +0.000 OA
ATOM      2  C   UNL     1      -0.386   9.971  20.753  0.00  0.00    +0.000 C 
ATOM      3  C   UNL     1      -0.055  10.694  22.043  0.00  0.00    +0.000 C 
ATOM      4  N   UNL     1      -1.258  11.287  22.605  0.00  0.00    +0.000 NA
ATOM      5  C   UNL     1      -1.758  12.317  22.011  0.00  0.00    +0.000 C 
ATOM      6  C   UNL     1      -1.166  12.937  20.776  0.00  0.00    +0.000 A 
ATOM      7  C   UNL     1      -1.128  14.349  20.771  0.00  0.00    +0.000 A 
ATOM      8  C   UNL     1      -0.675  15.044  19.660  0.00  0.00    +0.000 A 
ATOM      9 CL   UNL     1      -0.680  16.761  19.655  0.00  0.00    +0.000 Cl
ATOM     10  C   UNL     1      -0.221  14.351  18.552  0.00  0.00    +0.000 A 
ATOM     11  C   UNL     1      -0.218  12.952  18.558  0.00  0.00    +0.000 A 
ATOM     12  C   UNL     1      -0.670  12.202  19.663  0.00  0.00    +0.000 A 
ATOM     13  N   UNL     1      -0.564  10.759  19.610  0.00  0.00    +0.000 N 
ENDROOT
BRANCH   5  14
ATOM     14  C   UNL     1      -2.974  12.946  22.650  0.00  0.00    +0.000 A 
ATOM     15  C   UNL     1      -4.233  12.759  22.061  0.00  0.00    +0.000 A 
ATOM     16  C   UNL     1      -5.381  13.304  22.649  0.00  0.00    +0.000 A 
ATOM     17  C   UNL     1      -5.279  14.036  23.827  0.00  0.00    +0.000 A 
ATOM     18  C   UNL     1      -4.030  14.239  24.414  0.00  0.00    +0.000 A 
ATOM     19  C   UNL     1      -2.877  13.705  23.826  0.00  0.00    +0.000 A 
ENDBRANCH   5  14
BRANCH  13  20
ATOM     20  C   UNL     1      -0.583  10.037  18.325  0.00  0.00    +0.000 C 
BRANCH  20  21
ATOM     21  C   UNL     1      -1.900  10.118  17.562  0.00  0.00    +0.000 A 
ATOM     22  C   UNL     1      -1.953  10.539  16.289  0.00  0.00    +0.000 A 
ATOM     23  C   UNL     1      -3.278  10.804  15.727  0.00  0.00    +0.000 A 
ATOM     24  O   UNL     1      -3.477  10.746  14.516  0.00  0.00    +0.000 OA
ATOM     25  N   UNL     1      -4.200  11.119  16.692  0.00  0.00    +0.000 N 
ATOM     26  C   UNL     1      -5.124  12.128  16.502  0.00  0.00    +0.000 A 
ATOM     27  C   UNL     1      -6.098  12.327  17.393  0.00  0.00    +0.000 A 
ATOM     28  C   UNL     1      -6.347  11.312  18.393  0.00  0.00    +0.000 A 
ATOM     29  C   UNL     1      -5.436  10.350  18.627  0.00  0.00    +0.000 A 
ATOM     30  C   UNL     1      -4.143  10.405  17.873  0.00  0.00    +0.000 A 
ATOM     31  N   UNL     1      -3.054   9.831  18.290  0.00  0.00    +0.000 NA
ENDBRANCH  20  21
ENDBRANCH  13  20
TORSDOF 3
ENDMDL
