MODEL 1
REMARK VINA RESULT:      -9.1      0.000      0.000
REMARK  Name = 
REMARK  4 active torsions:
REMARK  status: ('A' for Active; 'I' for Inactive)
REMARK    1  A    between atoms: C_1  and  C_2
REMARK    2  A    between atoms: C_6  and  C_7
REMARK    3  A    between atoms: C_11  and  C_12
REMARK    4  A    between atoms: C_16  and  C_17
REMARK                            x       y       z     vdW  Elec       q    Type
REMARK                         _______ _______ _______ _____ _____    ______ ____
ROOT
ATOM      1  C   UNL     1      -2.206  12.902  21.978  0.00  0.00    +0.000 A 
ATOM      2  N   UNL     1      -1.667  12.362  20.901  0.00  0.00    +0.000 NA
ATOM      3  C   UNL     1      -0.970  11.268  21.344  0.00  0.00    +0.000 A 
ATOM      4  C   UNL     1      -0.199  10.355  20.617  0.00  0.00    +0.000 A 
ATOM      5  C   UNL     1       0.413   9.290  21.298  0.00  0.00    +0.000 A 
ATOM      6  C   UNL     1       0.241   9.154  22.686  0.00  0.00    +0.000 A 
ATOM      7  C   UNL     1      -0.517  10.066  23.430  0.00  0.00    +0.000 A 
ATOM      8  C   UNL     1      -1.103  11.107  22.714  0.00  0.00    +0.000 A 
ATOM      9  N   UNL     1      -1.898  12.155  23.093  0.00  0.00    +0.000 N 
ATOM     10  H   UNL     1      -2.224  12.342  24.028  0.00  0.00    +0.000 HD
ENDROOT
BRANCH   1  16
ATOM     11  C   UNL     1      -6.115  18.559  24.570  0.00  0.00    +0.000 C 
ATOM     12  C   UNL     1      -5.390  17.503  23.828  0.00  0.00    +0.000 A 
ATOM     13  N   UNL     1      -4.678  16.527  24.346  0.00  0.00    +0.000 NA
ATOM     14  C   UNL     1      -4.205  15.811  23.275  0.00  0.00    +0.000 A 
ATOM     15  C   UNL     1      -3.394  14.670  23.261  0.00  0.00    +0.000 A 
ATOM     16  C   UNL     1      -3.039  14.101  22.026  0.00  0.00    +0.000 A 
ATOM     17  C   UNL     1      -3.482  14.691  20.830  0.00  0.00    +0.000 A 
ATOM     18  C   UNL     1      -4.297  15.833  20.827  0.00  0.00    +0.000 A 
ATOM     19  C   UNL     1      -4.636  16.357  22.076  0.00  0.00    +0.000 A 
ATOM     20  N   UNL     1      -5.393  17.435  22.455  0.00  0.00    +0.000 N 
ATOM     21  H   UNL     1      -5.866  18.074  21.834  0.00  0.00    +0.000 HD
ENDBRANCH   1  16
BRANCH   5  22
ATOM     22  C   UNL     1       1.219   8.312  20.573  0.00  0.00    +0.000 A 
ATOM     23  N   UNL     1       1.800   8.483  19.400  0.00  0.00    +0.000 NA
ATOM     24  C   UNL     1       2.457   7.308  19.133  0.00  0.00    +0.000 A 
ATOM     25  C   UNL     1       3.245   6.950  18.030  0.00  0.00    +0.000 A 
ATOM     26  C   UNL     1       3.818   5.661  17.956  0.00  0.00    +0.000 A 
ATOM     27  C   UNL     1       3.576   4.769  19.023  0.00  0.00    +0.000 A 
ATOM     28  C   UNL     1       2.787   5.101  20.134  0.00  0.00    +0.000 A 
ATOM     29  C   UNL     1       2.252   6.383  20.145  0.00  0.00    +0.000 A 
ATOM     30  N   UNL     1       1.458   7.040  21.041  0.00  0.00    +0.000 N 
ATOM     31  H   UNL     1       1.091   6.657  21.899  0.00  0.00    +0.000 HD
BRANCH  26  32
ATOM     32  C   UNL     1       4.633   5.258  16.784  0.00  0.00    +0.000 A 
ATOM     33  C   UNL     1       4.956   3.910  16.542  0.00  0.00    +0.000 A 
ATOM     34  C   UNL     1       5.752   3.533  15.455  0.00  0.00    +0.000 A 
ATOM     35  C   UNL     1       6.229   4.496  14.572  0.00  0.00    +0.000 A 
ATOM     36  C   UNL     1       5.915   5.835  14.779  0.00  0.00    +0.000 A 
ATOM     37  C   UNL     1       5.133   6.210  15.876  0.00  0.00    +0.000 A 
ENDBRANCH  26  32
ENDBRANCH   5  22
TORSDOF 3
ENDMDL
MODEL 2
REMARK VINA RESULT:      -9.0      1.218      1.297
REMARK  Name = 
REMARK  4 active torsions:
REMARK  status: ('A' for Active; 'I' for Inactive)
REMARK    1  A    between atoms: C_1  and  C_2
REMARK    2  A    between atoms: C_6  and  C_7
REMARK    3  A    between atoms: C_11  and  C_12
REMARK    4  A    between atoms: C_16  and  C_17
REMARK                            x       y       z     vdW  Elec       q    Type
REMARK                         _______ _______ _______ _____ _____    ______ ____
ROOT
ATOM      1  C   UNL     1      -1.880  12.274  21.541  0.00  0.00    +0.000 A 
ATOM      2  N   UNL     1      -1.344  11.754  20.452  0.00  0.00    +0.000 NA
ATOM      3  C   UNL     1      -0.555  10.720  20.885  0.00  0.00    +0.000 A 
ATOM      4  C   UNL     1       0.251   9.850  20.143  0.00  0.00    +0.000 A 
ATOM      5  C   UNL     1       0.962   8.843  20.816  0.00  0.00    +0.000 A 
ATOM      6  C   UNL     1       0.852   8.721  22.212  0.00  0.00    +0.000 A 
ATOM      7  C   UNL     1       0.059   9.591  22.971  0.00  0.00    +0.000 A 
ATOM      8  C   UNL     1      -0.625  10.575  22.262  0.00  0.00    +0.000 A 
ATOM      9  N   UNL     1      -1.478  11.571  22.654  0.00  0.00    +0.000 N 
ATOM     10  H   UNL     1      -1.781  11.752  23.599  0.00  0.00    +0.000 HD
ENDROOT
BRANCH   1  16
ATOM     11  C   UNL     1      -7.637  16.488  23.300  0.00  0.00    +0.000 C 
ATOM     12  C   UNL     1      -6.406  15.828  22.810  0.00  0.00    +0.000 A 
ATOM     13  N   UNL     1      -5.981  14.624  23.125  0.00  0.00    +0.000 NA
ATOM     14  C   UNL     1      -4.810  14.457  22.431  0.00  0.00    +0.000 A 
ATOM     15  C   UNL     1      -3.945  13.356  22.404  0.00  0.00    +0.000 A 
ATOM     16  C   UNL     1      -2.793  13.413  21.602  0.00  0.00    +0.000 A 
ATOM     17  C   UNL     1      -2.512  14.573  20.861  0.00  0.00    +0.000 A 
ATOM     18  C   UNL     1      -3.369  15.684  20.875  0.00  0.00    +0.000 A 
ATOM     19  C   UNL     1      -4.508  15.579  21.674  0.00  0.00    +0.000 A 
ATOM     20  N   UNL     1      -5.544  16.440  21.931  0.00  0.00    +0.000 N 
ATOM     21  H   UNL     1      -5.653  17.366  21.547  0.00  0.00    +0.000 HD
ENDBRANCH   1  16
BRANCH   5  22
ATOM     22  C   UNL     1       1.808   7.912  20.076  0.00  0.00    +0.000 A 
ATOM     23  N   UNL     1       2.350   8.111  18.890  0.00  0.00    +0.000 NA
ATOM     24  C   UNL     1       3.069   6.975  18.612  0.00  0.00    +0.000 A 
ATOM     25  C   UNL     1       3.851   6.660  17.492  0.00  0.00    +0.000 A 
ATOM     26  C   UNL     1       4.499   5.407  17.409  0.00  0.00    +0.000 A 
ATOM     27  C   UNL     1       4.335   4.507  18.485  0.00  0.00    +0.000 A 
ATOM     28  C   UNL     1       3.554   4.797  19.612  0.00  0.00    +0.000 A 
ATOM     29  C   UNL     1       2.944   6.045  19.632  0.00  0.00    +0.000 A 
ATOM     30  N   UNL     1       2.133   6.658  20.543  0.00  0.00    +0.000 N 
ATOM     31  H   UNL     1       1.810   6.259  21.411  0.00  0.00    +0.000 HD
BRANCH  26  32
ATOM     32  C   UNL     1       5.309   5.047  16.219  0.00  0.00    +0.000 A 
ATOM     33  C   UNL     1       4.730   4.428  15.096  0.00  0.00    +0.000 A 
ATOM     34  C   UNL     1       5.499   4.060  13.987  0.00  0.00    +0.000 A 
ATOM     35  C   UNL     1       6.865   4.318  13.968  0.00  0.00    +0.000 A 
ATOM     36  C   UNL     1       7.462   4.941  15.059  0.00  0.00    +0.000 A 
ATOM     37  C   UNL     1       6.693   5.293  16.172  0.00  0.00    +0.000 A 
ENDBRANCH  26  32
ENDBRANCH   5  22
TORSDOF 3
ENDMDL
MODEL 3
REMARK VINA RESULT:      -8.9      1.539      2.595
REMARK  Name = 
REMARK  4 active torsions:
REMARK  status: ('A' for Active; 'I' for Inactive)
REMARK    1  A    between atoms: C_1  and  C_2
REMARK    2  A    between atoms: C_6  and  C_7
REMARK    3  A    between atoms: C_11  and  C_12
REMARK    4  A    between atoms: C_16  and  C_17
REMARK                            x       y       z     vdW  Elec       q    Type
REMARK                         _______ _______ _______ _____ _____    ______ ____
ROOT
ATOM      1  C   UNL     1      -0.540  11.592  21.098  0.00  0.00    +0.000 A 
ATOM      2  N   UNL     1       0.027  11.254  19.954  0.00  0.00    +0.000 NA
ATOM      3  C   UNL     1       0.618  10.039  20.178  0.00  0.00    +0.000 A 
ATOM      4  C   UNL     1       1.368   9.244  19.304  0.00  0.00    +0.000 A 
ATOM      5  C   UNL     1       1.864   8.012  19.763  0.00  0.00    +0.000 A 
ATOM      6  C   UNL     1       1.598   7.596  21.078  0.00  0.00    +0.000 A 
ATOM      7  C   UNL     1       0.860   8.385  21.969  0.00  0.00    +0.000 A 
ATOM      8  C   UNL     1       0.392   9.599  21.473  0.00  0.00    +0.000 A 
ATOM      9  N   UNL     1      -0.352  10.601  22.035  0.00  0.00    +0.000 N 
ATOM     10  H   UNL     1      -0.721  10.608  22.973  0.00  0.00    +0.000 HD
ENDROOT
BRANCH   1  16
ATOM     11  C   UNL     1      -4.958  16.460  24.380  0.00  0.00    +0.000 C 
ATOM     12  C   UNL     1      -4.039  15.650  23.548  0.00  0.00    +0.000 A 
ATOM     13  N   UNL     1      -3.609  14.436  23.809  0.00  0.00    +0.000 NA
ATOM     14  C   UNL     1      -2.788  14.107  22.759  0.00  0.00    +0.000 A 
ATOM     15  C   UNL     1      -2.068  12.928  22.534  0.00  0.00    +0.000 A 
ATOM     16  C   UNL     1      -1.290  12.816  21.369  0.00  0.00    +0.000 A 
ATOM     17  C   UNL     1      -1.226  13.888  20.464  0.00  0.00    +0.000 A 
ATOM     18  C   UNL     1      -1.943  15.076  20.674  0.00  0.00    +0.000 A 
ATOM     19  C   UNL     1      -2.713  15.139  21.836  0.00  0.00    +0.000 A 
ATOM     20  N   UNL     1      -3.523  16.113  22.361  0.00  0.00    +0.000 N 
ATOM     21  H   UNL     1      -3.705  17.016  21.951  0.00  0.00    +0.000 HD
ENDBRANCH   1  16
BRANCH   5  22
ATOM     22  C   UNL     1       2.644   7.152  18.878  0.00  0.00    +0.000 A 
ATOM     23  N   UNL     1       3.224   7.503  17.747  0.00  0.00    +0.000 NA
ATOM     24  C   UNL     1       3.852   6.374  17.282  0.00  0.00    +0.000 A 
ATOM     25  C   UNL     1       4.628   6.189  16.129  0.00  0.00    +0.000 A 
ATOM     26  C   UNL     1       5.170   4.918  15.836  0.00  0.00    +0.000 A 
ATOM     27  C   UNL     1       4.911   3.865  16.741  0.00  0.00    +0.000 A 
ATOM     28  C   UNL     1       4.134   4.025  17.897  0.00  0.00    +0.000 A 
ATOM     29  C   UNL     1       3.629   5.298  18.126  0.00  0.00    +0.000 A 
ATOM     30  N   UNL     1       2.855   5.814  19.126  0.00  0.00    +0.000 N 
ATOM     31  H   UNL     1       2.482   5.301  19.910  0.00  0.00    +0.000 HD
BRANCH  26  32
ATOM     32  C   UNL     1       5.971   4.699  14.607  0.00  0.00    +0.000 A 
ATOM     33  C   UNL     1       7.182   5.382  14.387  0.00  0.00    +0.000 A 
ATOM     34  C   UNL     1       7.921   5.200  13.214  0.00  0.00    +0.000 A 
ATOM     35  C   UNL     1       7.476   4.314  12.238  0.00  0.00    +0.000 A 
ATOM     36  C   UNL     1       6.290   3.615  12.434  0.00  0.00    +0.000 A 
ATOM     37  C   UNL     1       5.545   3.812  13.601  0.00  0.00    +0.000 A 
ENDBRANCH  26  32
ENDBRANCH   5  22
TORSDOF 3
ENDMDL
MODEL 4
REMARK VINA RESULT:      -8.9      1.024      1.674
REMARK  Name = 
REMARK  4 active torsions:
REMARK  status: ('A' for Active; 'I' for Inactive)
REMARK    1  A    between atoms: C_1  and  C_2
REMARK    2  A    between atoms: C_6  and  C_7
REMARK    3  A    between atoms: C_11  and  C_12
REMARK    4  A    between atoms: C_16  and  C_17
REMARK                            x       y       z     vdW  Elec       q    Type
REMARK                         _______ _______ _______ _____ _____    ______ ____
ROOT
ATOM      1  C   UNL     1      -2.202  12.416  22.022  0.00  0.00    +0.000 A 
ATOM      2  N   UNL     1      -1.734  11.849  20.925  0.00  0.00    +0.000 NA
ATOM      3  C   UNL     1      -0.899  10.850  21.352  0.00  0.00    +0.000 A 
ATOM      4  C   UNL     1      -0.131   9.955  20.599  0.00  0.00    +0.000 A 
ATOM      5  C   UNL     1       0.643   8.994  21.269  0.00  0.00    +0.000 A 
ATOM      6  C   UNL     1       0.633   8.940  22.673  0.00  0.00    +0.000 A 
ATOM      7  C   UNL     1      -0.121   9.836  23.442  0.00  0.00    +0.000 A 
ATOM      8  C   UNL     1      -0.870  10.774  22.735  0.00  0.00    +0.000 A 
ATOM      9  N   UNL     1      -1.711  11.776  23.137  0.00  0.00    +0.000 N 
ATOM     10  H   UNL     1      -1.951  12.000  24.091  0.00  0.00    +0.000 HD
ENDROOT
BRANCH   1  16
ATOM     11  C   UNL     1      -5.739  18.631  20.329  0.00  0.00    +0.000 C 
ATOM     12  C   UNL     1      -5.169  17.374  20.866  0.00  0.00    +0.000 A 
ATOM     13  N   UNL     1      -4.223  16.644  20.320  0.00  0.00    +0.000 NA
ATOM     14  C   UNL     1      -4.036  15.588  21.176  0.00  0.00    +0.000 A 
ATOM     15  C   UNL     1      -3.146  14.512  21.075  0.00  0.00    +0.000 A 
ATOM     16  C   UNL     1      -3.129  13.543  22.091  0.00  0.00    +0.000 A 
ATOM     17  C   UNL     1      -4.013  13.652  23.178  0.00  0.00    +0.000 A 
ATOM     18  C   UNL     1      -4.909  14.726  23.296  0.00  0.00    +0.000 A 
ATOM     19  C   UNL     1      -4.883  15.672  22.270  0.00  0.00    +0.000 A 
ATOM     20  N   UNL     1      -5.595  16.822  22.051  0.00  0.00    +0.000 N 
ATOM     21  H   UNL     1      -6.314  17.197  22.651  0.00  0.00    +0.000 HD
ENDBRANCH   1  16
BRANCH   5  22
ATOM     22  C   UNL     1       1.451   8.038  20.518  0.00  0.00    +0.000 A 
ATOM     23  N   UNL     1       2.007   8.232  19.336  0.00  0.00    +0.000 NA
ATOM     24  C   UNL     1       2.678   7.071  19.044  0.00  0.00    +0.000 A 
ATOM     25  C   UNL     1       3.451   6.739  17.922  0.00  0.00    +0.000 A 
ATOM     26  C   UNL     1       4.045   5.461  17.823  0.00  0.00    +0.000 A 
ATOM     27  C   UNL     1       3.839   4.553  18.884  0.00  0.00    +0.000 A 
ATOM     28  C   UNL     1       3.066   4.859  20.013  0.00  0.00    +0.000 A 
ATOM     29  C   UNL     1       2.509   6.132  20.049  0.00  0.00    +0.000 A 
ATOM     30  N   UNL     1       1.721   6.766  20.967  0.00  0.00    +0.000 N 
ATOM     31  H   UNL     1       1.378   6.367  21.827  0.00  0.00    +0.000 HD
BRANCH  26  32
ATOM     32  C   UNL     1       4.844   5.085  16.631  0.00  0.00    +0.000 A 
ATOM     33  C   UNL     1       5.329   6.056  15.734  0.00  0.00    +0.000 A 
ATOM     34  C   UNL     1       6.054   5.700  14.593  0.00  0.00    +0.000 A 
ATOM     35  C   UNL     1       6.328   4.362  14.330  0.00  0.00    +0.000 A 
ATOM     36  C   UNL     1       5.874   3.381  15.205  0.00  0.00    +0.000 A 
ATOM     37  C   UNL     1       5.134   3.740  16.336  0.00  0.00    +0.000 A 
ENDBRANCH  26  32
ENDBRANCH   5  22
TORSDOF 3
ENDMDL
MODEL 5
REMARK VINA RESULT:      -8.8      2.018     12.760
REMARK  Name = 
REMARK  4 active torsions:
REMARK  status: ('A' for Active; 'I' for Inactive)
REMARK    1  A    between atoms: C_1  and  C_2
REMARK    2  A    between atoms: C_6  and  C_7
REMARK    3  A    between atoms: C_11  and  C_12
REMARK    4  A    between atoms: C_16  and  C_17
REMARK                            x       y       z     vdW  Elec       q    Type
REMARK                         _______ _______ _______ _____ _____    ______ ____
ROOT
ATOM      1  C   UNL     1       2.579   7.178  18.957  0.00  0.00    +0.000 A 
ATOM      2  N   UNL     1       2.222   8.418  18.677  0.00  0.00    +0.000 NA
ATOM      3  C   UNL     1       1.504   8.850  19.761  0.00  0.00    +0.000 A 
ATOM      4  C   UNL     1       0.878  10.083  19.974  0.00  0.00    +0.000 A 
ATOM      5  C   UNL     1       0.207  10.303  21.189  0.00  0.00    +0.000 A 
ATOM      6  C   UNL     1       0.178   9.293  22.166  0.00  0.00    +0.000 A 
ATOM      7  C   UNL     1       0.788   8.049  21.963  0.00  0.00    +0.000 A 
ATOM      8  C   UNL     1       1.438   7.875  20.744  0.00  0.00    +0.000 A 
ATOM      9  N   UNL     1       2.135   6.824  20.211  0.00  0.00    +0.000 N 
ATOM     10  H   UNL     1       2.313   5.942  20.665  0.00  0.00    +0.000 HD
ENDROOT
BRANCH   1  16
ATOM     11  C   UNL     1       7.266   4.783  13.829  0.00  0.00    +0.000 C 
ATOM     12  C   UNL     1       6.279   5.030  14.904  0.00  0.00    +0.000 A 
ATOM     13  N   UNL     1       5.896   6.199  15.365  0.00  0.00    +0.000 NA
ATOM     14  C   UNL     1       4.978   5.923  16.347  0.00  0.00    +0.000 A 
ATOM     15  C   UNL     1       4.257   6.805  17.160  0.00  0.00    +0.000 A 
ATOM     16  C   UNL     1       3.357   6.283  18.103  0.00  0.00    +0.000 A 
ATOM     17  C   UNL     1       3.207   4.892  18.233  0.00  0.00    +0.000 A 
ATOM     18  C   UNL     1       3.919   3.994  17.423  0.00  0.00    +0.000 A 
ATOM     19  C   UNL     1       4.793   4.557  16.492  0.00  0.00    +0.000 A 
ATOM     20  N   UNL     1       5.633   4.007  15.558  0.00  0.00    +0.000 N 
ATOM     21  H   UNL     1       5.761   3.022  15.384  0.00  0.00    +0.000 HD
ENDBRANCH   1  16
BRANCH   5  22
ATOM     22  C   UNL     1      -0.451  11.579  21.452  0.00  0.00    +0.000 A 
ATOM     23  N   UNL     1      -1.007  11.961  22.585  0.00  0.00    +0.000 NA
ATOM     24  C   UNL     1      -1.475  13.232  22.363  0.00  0.00    +0.000 A 
ATOM     25  C   UNL     1      -2.136  14.111  23.233  0.00  0.00    +0.000 A 
ATOM     26  C   UNL     1      -2.547  15.383  22.779  0.00  0.00    +0.000 A 
ATOM     27  C   UNL     1      -2.262  15.730  21.440  0.00  0.00    +0.000 A 
ATOM     28  C   UNL     1      -1.608  14.867  20.549  0.00  0.00    +0.000 A 
ATOM     29  C   UNL     1      -1.231  13.631  21.058  0.00  0.00    +0.000 A 
ATOM     30  N   UNL     1      -0.588  12.563  20.499  0.00  0.00    +0.000 N 
ATOM     31  H   UNL     1      -0.278  12.495  19.542  0.00  0.00    +0.000 HD
BRANCH  26  32
ATOM     32  C   UNL     1      -3.270  16.315  23.679  0.00  0.00    +0.000 A 
ATOM     33  C   UNL     1      -2.581  17.211  24.517  0.00  0.00    +0.000 A 
ATOM     34  C   UNL     1      -3.261  18.066  25.390  0.00  0.00    +0.000 A 
ATOM     35  C   UNL     1      -4.651  18.058  25.432  0.00  0.00    +0.000 A 
ATOM     36  C   UNL     1      -5.360  17.193  24.605  0.00  0.00    +0.000 A 
ATOM     37  C   UNL     1      -4.676  16.328  23.746  0.00  0.00    +0.000 A 
ENDBRANCH  26  32
ENDBRANCH   5  22
TORSDOF 3
ENDMDL
MODEL 6
REMARK VINA RESULT:      -8.7      1.503      2.339
REMARK  Name = 
REMARK  4 active torsions:
REMARK  status: ('A' for Active; 'I' for Inactive)
REMARK    1  A    between atoms: C_1  and  C_2
REMARK    2  A    between atoms: C_6  and  C_7
REMARK    3  A    between atoms: C_11  and  C_12
REMARK    4  A    between atoms: C_16  and  C_17
REMARK                            x       y       z     vdW  Elec       q    Type
REMARK                         _______ _______ _______ _____ _____    ______ ____
ROOT
ATOM      1  C   UNL     1      -0.973  11.578  21.121  0.00  0.00    +0.000 A 
ATOM      2  N   UNL     1      -0.526  11.138  19.959  0.00  0.00    +0.000 NA
ATOM      3  C   UNL     1       0.272  10.063  20.253  0.00  0.00    +0.000 A 
ATOM      4  C   UNL     1       1.007   9.244  19.389  0.00  0.00    +0.000 A 
ATOM      5  C   UNL     1       1.747   8.179  19.929  0.00  0.00    +0.000 A 
ATOM      6  C   UNL     1       1.734   7.949  21.315  0.00  0.00    +0.000 A 
ATOM      7  C   UNL     1       1.014   8.767  22.195  0.00  0.00    +0.000 A 
ATOM      8  C   UNL     1       0.299   9.812  21.615  0.00  0.00    +0.000 A 
ATOM      9  N   UNL     1      -0.506  10.785  22.145  0.00  0.00    +0.000 N 
ATOM     10  H   UNL     1      -0.737  10.895  23.120  0.00  0.00    +0.000 HD
ENDROOT
BRANCH   1  16
ATOM     11  C   UNL     1      -6.596  15.671  23.494  0.00  0.00    +0.000 C 
ATOM     12  C   UNL     1      -5.391  15.048  22.901  0.00  0.00    +0.000 A 
ATOM     13  N   UNL     1      -4.987  13.808  23.063  0.00  0.00    +0.000 NA
ATOM     14  C   UNL     1      -3.834  13.699  22.328  0.00  0.00    +0.000 A 
ATOM     15  C   UNL     1      -2.996  12.592  22.152  0.00  0.00    +0.000 A 
ATOM     16  C   UNL     1      -1.859  12.720  21.336  0.00  0.00    +0.000 A 
ATOM     17  C   UNL     1      -1.567  13.953  20.730  0.00  0.00    +0.000 A 
ATOM     18  C   UNL     1      -2.398  15.072  20.894  0.00  0.00    +0.000 A 
ATOM     19  C   UNL     1      -3.523  14.896  21.701  0.00  0.00    +0.000 A 
ATOM     20  N   UNL     1      -4.533  15.742  22.081  0.00  0.00    +0.000 N 
ATOM     21  H   UNL     1      -4.629  16.709  21.811  0.00  0.00    +0.000 HD
ENDBRANCH   1  16
BRANCH   5  22
ATOM     22  C   UNL     1       2.520   7.298  19.060  0.00  0.00    +0.000 A 
ATOM     23  N   UNL     1       3.069   7.615  17.902  0.00  0.00    +0.000 NA
ATOM     24  C   UNL     1       3.704   6.479  17.466  0.00  0.00    +0.000 A 
ATOM     25  C   UNL     1       4.456   6.262  16.302  0.00  0.00    +0.000 A 
ATOM     26  C   UNL     1       5.012   4.989  16.045  0.00  0.00    +0.000 A 
ATOM     27  C   UNL     1       4.790   3.967  16.994  0.00  0.00    +0.000 A 
ATOM     28  C   UNL     1       4.037   4.158  18.161  0.00  0.00    +0.000 A 
ATOM     29  C   UNL     1       3.517   5.432  18.355  0.00  0.00    +0.000 A 
ATOM     30  N   UNL     1       2.757   5.974  19.352  0.00  0.00    +0.000 N 
ATOM     31  H   UNL     1       2.411   5.485  20.163  0.00  0.00    +0.000 HD
BRANCH  26  32
ATOM     32  C   UNL     1       5.788   4.735  14.807  0.00  0.00    +0.000 A 
ATOM     33  C   UNL     1       5.300   3.889  13.793  0.00  0.00    +0.000 A 
ATOM     34  C   UNL     1       6.045   3.624  12.640  0.00  0.00    +0.000 A 
ATOM     35  C   UNL     1       7.292   4.215  12.464  0.00  0.00    +0.000 A 
ATOM     36  C   UNL     1       7.795   5.066  13.442  0.00  0.00    +0.000 A 
ATOM     37  C   UNL     1       7.054   5.315  14.602  0.00  0.00    +0.000 A 
ENDBRANCH  26  32
ENDBRANCH   5  22
TORSDOF 3
ENDMDL
MODEL 7
REMARK VINA RESULT:      -8.7      1.971     12.759
REMARK  Name = 
REMARK  4 active torsions:
REMARK  status: ('A' for Active; 'I' for Inactive)
REMARK    1  A    between atoms: C_1  and  C_2
REMARK    2  A    between atoms: C_6  and  C_7
REMARK    3  A    between atoms: C_11  and  C_12
REMARK    4  A    between atoms: C_16  and  C_17
REMARK                            x       y       z     vdW  Elec       q    Type
REMARK                         _______ _______ _______ _____ _____    ______ ____
ROOT
ATOM      1  C   UNL     1       2.616   7.242  18.784  0.00  0.00    +0.000 A 
ATOM      2  N   UNL     1       2.135   8.412  18.407  0.00  0.00    +0.000 NA
ATOM      3  C   UNL     1       1.471   8.909  19.499  0.00  0.00    +0.000 A 
ATOM      4  C   UNL     1       0.763  10.108  19.634  0.00  0.00    +0.000 A 
ATOM      5  C   UNL     1       0.174  10.412  20.873  0.00  0.00    +0.000 A 
ATOM      6  C   UNL     1       0.308   9.519  21.950  0.00  0.00    +0.000 A 
ATOM      7  C   UNL     1       1.002   8.309  21.827  0.00  0.00    +0.000 A 
ATOM      8  C   UNL     1       1.566   8.048  20.581  0.00  0.00    +0.000 A 
ATOM      9  N   UNL     1       2.304   6.999  20.103  0.00  0.00    +0.000 N 
ATOM     10  H   UNL     1       2.591   6.190  20.630  0.00  0.00    +0.000 HD
ENDROOT
BRANCH   1  16
ATOM     11  C   UNL     1       7.297   4.665  13.740  0.00  0.00    +0.000 C 
ATOM     12  C   UNL     1       6.313   4.950  14.809  0.00  0.00    +0.000 A 
ATOM     13  N   UNL     1       5.925   6.136  15.222  0.00  0.00    +0.000 NA
ATOM     14  C   UNL     1       5.012   5.895  16.218  0.00  0.00    +0.000 A 
ATOM     15  C   UNL     1       4.289   6.806  16.998  0.00  0.00    +0.000 A 
ATOM     16  C   UNL     1       3.395   6.317  17.965  0.00  0.00    +0.000 A 
ATOM     17  C   UNL     1       3.254   4.931  18.152  0.00  0.00    +0.000 A 
ATOM     18  C   UNL     1       3.969   4.005  17.377  0.00  0.00    +0.000 A 
ATOM     19  C   UNL     1       4.836   4.534  16.420  0.00  0.00    +0.000 A 
ATOM     20  N   UNL     1       5.676   3.952  15.506  0.00  0.00    +0.000 N 
ATOM     21  H   UNL     1       5.809   2.961  15.372  0.00  0.00    +0.000 HD
ENDBRANCH   1  16
BRANCH   5  22
ATOM     22  C   UNL     1      -0.565  11.657  21.056  0.00  0.00    +0.000 A 
ATOM     23  N   UNL     1      -1.490  11.898  21.966  0.00  0.00    +0.000 NA
ATOM     24  C   UNL     1      -1.884  13.198  21.764  0.00  0.00    +0.000 A 
ATOM     25  C   UNL     1      -2.828  13.968  22.457  0.00  0.00    +0.000 A 
ATOM     26  C   UNL     1      -3.087  15.299  22.060  0.00  0.00    +0.000 A 
ATOM     27  C   UNL     1      -2.363  15.813  20.962  0.00  0.00    +0.000 A 
ATOM     28  C   UNL     1      -1.419  15.061  20.249  0.00  0.00    +0.000 A 
ATOM     29  C   UNL     1      -1.211  13.759  20.690  0.00  0.00    +0.000 A 
ATOM     30  N   UNL     1      -0.388  12.761  20.254  0.00  0.00    +0.000 N 
ATOM     31  H   UNL     1       0.238  12.813  19.465  0.00  0.00    +0.000 HD
BRANCH  26  32
ATOM     32  C   UNL     1      -4.101  16.119  22.767  0.00  0.00    +0.000 A 
ATOM     33  C   UNL     1      -5.333  15.574  23.174  0.00  0.00    +0.000 A 
ATOM     34  C   UNL     1      -6.303  16.354  23.811  0.00  0.00    +0.000 A 
ATOM     35  C   UNL     1      -6.056  17.698  24.073  0.00  0.00    +0.000 A 
ATOM     36  C   UNL     1      -4.842  18.261  23.694  0.00  0.00    +0.000 A 
ATOM     37  C   UNL     1      -3.881  17.481  23.043  0.00  0.00    +0.000 A 
ENDBRANCH  26  32
ENDBRANCH   5  22
TORSDOF 3
ENDMDL
MODEL 8
REMARK VINA RESULT:      -8.7      1.895     12.753
REMARK  Name = 
REMARK  4 active torsions:
REMARK  status: ('A' for Active; 'I' for Inactive)
REMARK    1  A    between atoms: C_1  and  C_2
REMARK    2  A    between atoms: C_6  and  C_7
REMARK    3  A    between atoms: C_11  and  C_12
REMARK    4  A    between atoms: C_16  and  C_17
REMARK                            x       y       z     vdW  Elec       q    Type
REMARK                         _______ _______ _______ _____ _____    ______ ____
ROOT
ATOM      1  C   UNL     1       2.265   7.585  19.073  0.00  0.00    +0.000 A 
ATOM      2  N   UNL     1       1.663   8.675  18.635  0.00  0.00    +0.000 NA
ATOM      3  C   UNL     1       1.083   9.246  19.738  0.00  0.00    +0.000 A 
ATOM      4  C   UNL     1       0.307  10.407  19.830  0.00  0.00    +0.000 A 
ATOM      5  C   UNL     1      -0.169  10.808  21.089  0.00  0.00    +0.000 A 
ATOM      6  C   UNL     1       0.141  10.048  22.230  0.00  0.00    +0.000 A 
ATOM      7  C   UNL     1       0.906   8.877  22.154  0.00  0.00    +0.000 A 
ATOM      8  C   UNL     1       1.353   8.516  20.885  0.00  0.00    +0.000 A 
ATOM      9  N   UNL     1       2.112   7.469  20.437  0.00  0.00    +0.000 N 
ATOM     10  H   UNL     1       2.511   6.741  21.009  0.00  0.00    +0.000 HD
ENDROOT
BRANCH   1  16
ATOM     11  C   UNL     1       7.097   4.791  14.294  0.00  0.00    +0.000 C 
ATOM     12  C   UNL     1       6.055   5.123  15.292  0.00  0.00    +0.000 A 
ATOM     13  N   UNL     1       5.749   6.321  15.738  0.00  0.00    +0.000 NA
ATOM     14  C   UNL     1       4.734   6.126  16.641  0.00  0.00    +0.000 A 
ATOM     15  C   UNL     1       4.037   7.067  17.409  0.00  0.00    +0.000 A 
ATOM     16  C   UNL     1       3.020   6.626  18.271  0.00  0.00    +0.000 A 
ATOM     17  C   UNL     1       2.731   5.254  18.368  0.00  0.00    +0.000 A 
ATOM     18  C   UNL     1       3.418   4.298  17.605  0.00  0.00    +0.000 A 
ATOM     19  C   UNL     1       4.411   4.782  16.752  0.00  0.00    +0.000 A 
ATOM     20  N   UNL     1       5.267   4.162  15.879  0.00  0.00    +0.000 N 
ATOM     21  H   UNL     1       5.316   3.170  15.701  0.00  0.00    +0.000 HD
ENDBRANCH   1  16
BRANCH   5  22
ATOM     22  C   UNL     1      -0.975  12.017  21.226  0.00  0.00    +0.000 A 
ATOM     23  N   UNL     1      -2.139  12.124  21.838  0.00  0.00    +0.000 NA
ATOM     24  C   UNL     1      -2.500  13.444  21.726  0.00  0.00    +0.000 A 
ATOM     25  C   UNL     1      -3.637  14.107  22.209  0.00  0.00    +0.000 A 
ATOM     26  C   UNL     1      -3.813  15.486  21.959  0.00  0.00    +0.000 A 
ATOM     27  C   UNL     1      -2.811  16.157  21.224  0.00  0.00    +0.000 A 
ATOM     28  C   UNL     1      -1.669  15.514  20.726  0.00  0.00    +0.000 A 
ATOM     29  C   UNL     1      -1.556  14.158  21.005  0.00  0.00    +0.000 A 
ATOM     30  N   UNL     1      -0.604  13.231  20.693  0.00  0.00    +0.000 N 
ATOM     31  H   UNL     1       0.228  13.398  20.148  0.00  0.00    +0.000 HD
BRANCH  26  32
ATOM     32  C   UNL     1      -5.022  16.198  22.441  0.00  0.00    +0.000 A 
ATOM     33  C   UNL     1      -4.927  17.388  23.186  0.00  0.00    +0.000 A 
ATOM     34  C   UNL     1      -6.065  18.042  23.668  0.00  0.00    +0.000 A 
ATOM     35  C   UNL     1      -7.330  17.529  23.401  0.00  0.00    +0.000 A 
ATOM     36  C   UNL     1      -7.456  16.362  22.655  0.00  0.00    +0.000 A 
ATOM     37  C   UNL     1      -6.315  15.702  22.189  0.00  0.00    +0.000 A 
ENDBRANCH  26  32
ENDBRANCH   5  22
TORSDOF 3
ENDMDL
MODEL 9
REMARK VINA RESULT:      -8.6      0.890      1.070
REMARK  Name = 
REMARK  4 active torsions:
REMARK  status: ('A' for Active; 'I' for Inactive)
REMARK    1  A    between atoms: C_1  and  C_2
REMARK    2  A    between atoms: C_6  and  C_7
REMARK    3  A    between atoms: C_11  and  C_12
REMARK    4  A    between atoms: C_16  and  C_17
REMARK                            x       y       z     vdW  Elec       q    Type
REMARK                         _______ _______ _______ _____ _____    ______ ____
ROOT
ATOM      1  C   UNL     1      -1.736  12.462  21.853  0.00  0.00    +0.000 A 
ATOM      2  N   UNL     1      -1.082  12.040  20.785  0.00  0.00    +0.000 NA
ATOM      3  C   UNL     1      -0.504  10.853  21.150  0.00  0.00    +0.000 A 
ATOM      4  C   UNL     1       0.315  10.000  20.402  0.00  0.00    +0.000 A 
ATOM      5  C   UNL     1       0.780   8.813  20.994  0.00  0.00    +0.000 A 
ATOM      6  C   UNL     1       0.416   8.500  22.314  0.00  0.00    +0.000 A 
ATOM      7  C   UNL     1      -0.392   9.349  23.081  0.00  0.00    +0.000 A 
ATOM      8  C   UNL     1      -0.826  10.514  22.455  0.00  0.00    +0.000 A 
ATOM      9  N   UNL     1      -1.615  11.550  22.878  0.00  0.00    +0.000 N 
ATOM     10  H   UNL     1      -2.055  11.628  23.782  0.00  0.00    +0.000 HD
ENDROOT
BRANCH   1  16
ATOM     11  C   UNL     1      -4.627  18.631  24.606  0.00  0.00    +0.000 C 
ATOM     12  C   UNL     1      -4.173  17.440  23.852  0.00  0.00    +0.000 A 
ATOM     13  N   UNL     1      -3.334  16.519  24.270  0.00  0.00    +0.000 NA
ATOM     14  C   UNL     1      -3.223  15.628  23.232  0.00  0.00    +0.000 A 
ATOM     15  C   UNL     1      -2.458  14.459  23.145  0.00  0.00    +0.000 A 
ATOM     16  C   UNL     1      -2.511  13.694  21.968  0.00  0.00    +0.000 A 
ATOM     17  C   UNL     1      -3.308  14.120  20.892  0.00  0.00    +0.000 A 
ATOM     18  C   UNL     1      -4.082  15.288  20.963  0.00  0.00    +0.000 A 
ATOM     19  C   UNL     1      -4.009  16.009  22.156  0.00  0.00    +0.000 A 
ATOM     20  N   UNL     1      -4.608  17.169  22.577  0.00  0.00    +0.000 N 
ATOM     21  H   UNL     1      -5.253  17.731  22.041  0.00  0.00    +0.000 HD
ENDBRANCH   1  16
BRANCH   5  22
ATOM     22  C   UNL     1       1.629   7.894  20.243  0.00  0.00    +0.000 A 
ATOM     23  N   UNL     1       2.262   8.149  19.113  0.00  0.00    +0.000 NA
ATOM     24  C   UNL     1       2.943   7.000  18.798  0.00  0.00    +0.000 A 
ATOM     25  C   UNL     1       3.785   6.726  17.712  0.00  0.00    +0.000 A 
ATOM     26  C   UNL     1       4.376   5.449  17.577  0.00  0.00    +0.000 A 
ATOM     27  C   UNL     1       4.095   4.484  18.569  0.00  0.00    +0.000 A 
ATOM     28  C   UNL     1       3.251   4.733  19.661  0.00  0.00    +0.000 A 
ATOM     29  C   UNL     1       2.702   6.007  19.734  0.00  0.00    +0.000 A 
ATOM     30  N   UNL     1       1.860   6.595  20.634  0.00  0.00    +0.000 N 
ATOM     31  H   UNL     1       1.458   6.151  21.446  0.00  0.00    +0.000 HD
BRANCH  26  32
ATOM     32  C   UNL     1       5.249   5.134  16.420  0.00  0.00    +0.000 A 
ATOM     33  C   UNL     1       6.560   5.639  16.328  0.00  0.00    +0.000 A 
ATOM     34  C   UNL     1       7.371   5.369  15.223  0.00  0.00    +0.000 A 
ATOM     35  C   UNL     1       6.898   4.570  14.187  0.00  0.00    +0.000 A 
ATOM     36  C   UNL     1       5.612   4.046  14.256  0.00  0.00    +0.000 A 
ATOM     37  C   UNL     1       4.796   4.331  15.356  0.00  0.00    +0.000 A 
ENDBRANCH  26  32
ENDBRANCH   5  22
TORSDOF 3
ENDMDL
