MODEL 1
REMARK VINA RESULT:      -6.4      0.000      0.000
REMARK  Name = 
REMARK  12 active torsions:
REMARK  status: ('A' for Active; 'I' for Inactive)
REMARK    1  A    between atoms: C_1  and  O_2
REMARK    2  A    between atoms: O_2  and  C_3
REMARK    3  A    between atoms: C_5  and  C_6
REMARK    4  A    between atoms: C_6  and  C_7
REMARK    5  A    between atoms: C_7  and  N_8
REMARK    6  A    between atoms: N_8  and  C_9
REMARK    7  A    between atoms: C_9  and  C_10
REMARK    8  A    between atoms: C_10  and  C_11
REMARK    9  A    between atoms: C_18  and  O_19
REMARK   10  A    between atoms: O_19  and  C_20
REMARK   11  A    between atoms: C_21  and  O_22
REMARK   12  A    between atoms: O_22  and  C_23
REMARK                            x       y       z     vdW  Elec       q    Type
REMARK                         _______ _______ _______ _____ _____    ______ ____
ROOT
ATOM      1  C   UNL     1       3.027   7.966  17.343  0.00  0.00    +0.000 C 
ENDROOT
BRANCH   1   4
ATOM      2  C   UNL     1       2.517   4.283  18.162  0.00  0.00    +0.000 A 
ATOM      3  C   UNL     1       2.254   5.650  17.941  0.00  0.00    +0.000 A 
ATOM      4  C   UNL     1       3.275   6.588  17.921  0.00  0.00    +0.000 A 
ATOM      5  C   UNL     1       4.546   6.175  18.322  0.00  0.00    +0.000 A 
ATOM      6  C   UNL     1       4.821   4.834  18.645  0.00  0.00    +0.000 A 
ATOM      7  C   UNL     1       3.808   3.858  18.545  0.00  0.00    +0.000 A 
BRANCH   2   9
ATOM      8  C   UNL     1       0.843   2.964  19.173  0.00  0.00    +0.000 C 
ATOM      9  O   UNL     1       1.502   3.374  17.964  0.00  0.00    +0.000 OA
ENDBRANCH   2   9
BRANCH   6  10
ATOM     10  O   UNL     1       6.151   4.669  18.956  0.00  0.00    +0.000 OA
ATOM     11  C   UNL     1       7.130   4.694  17.930  0.00  0.00    +0.000 C 
ENDBRANCH   6  10
BRANCH   7  12
ATOM     12  O   UNL     1       4.210   2.577  18.794  0.00  0.00    +0.000 OA
ATOM     13  C   UNL     1       4.375   2.071  20.105  0.00  0.00    +0.000 C 
ENDBRANCH   7  12
ENDBRANCH   1   4
BRANCH   1  14
ATOM     14  C   UNL     1       1.995   8.756  18.135  0.00  0.00    +0.000 C 
BRANCH  14  15
ATOM     15  N   UNL     1       1.864  10.152  17.687  0.00  0.00    +0.000 NA
ATOM     16  H   UNL     1       1.510  10.171  16.724  0.00  0.00    +0.000 HD
BRANCH  15  17
ATOM     17  C   UNL     1       0.910  10.871  18.550  0.00  0.00    +0.000 C 
BRANCH  17  18
ATOM     18  C   UNL     1      -0.293  10.003  18.964  0.00  0.00    +0.000 C 
BRANCH  18  19
ATOM     19  C   UNL     1      -1.589  10.571  18.502  0.00  0.00    +0.000 A 
ATOM     20  C   UNL     1      -2.322  11.606  19.038  0.00  0.00    +0.000 A 
ATOM     21  N   UNL     1      -3.493  11.905  18.375  0.00  0.00    +0.000 NA
ATOM     22  C   UNL     1      -3.650  11.103  17.361  0.00  0.00    +0.000 A 
ATOM     23  N   UNL     1      -4.690  11.180  16.514  0.00  0.00    +0.000 N 
ATOM     24  S   UNL     1      -2.420   9.922  17.152  0.00  0.00    +0.000 S 
ATOM     25  H   UNL     1      -5.478  11.720  16.857  0.00  0.00    +0.000 HD
ATOM     26  H   UNL     1      -4.936  10.354  15.988  0.00  0.00    +0.000 HD
ENDBRANCH  18  19
ENDBRANCH  17  18
ENDBRANCH  15  17
ENDBRANCH  14  15
ENDBRANCH   1  14
TORSDOF 9
ENDMDL
MODEL 2
REMARK VINA RESULT:      -6.4      2.604      2.963
REMARK  Name = 
REMARK  12 active torsions:
REMARK  status: ('A' for Active; 'I' for Inactive)
REMARK    1  A    between atoms: C_1  and  O_2
REMARK    2  A    between atoms: O_2  and  C_3
REMARK    3  A    between atoms: C_5  and  C_6
REMARK    4  A    between atoms: C_6  and  C_7
REMARK    5  A    between atoms: C_7  and  N_8
REMARK    6  A    between atoms: N_8  and  C_9
REMARK    7  A    between atoms: C_9  and  C_10
REMARK    8  A    between atoms: C_10  and  C_11
REMARK    9  A    between atoms: C_18  and  O_19
REMARK   10  A    between atoms: O_19  and  C_20
REMARK   11  A    between atoms: C_21  and  O_22
REMARK   12  A    between atoms: O_22  and  C_23
REMARK                            x       y       z     vdW  Elec       q    Type
REMARK                         _______ _______ _______ _____ _____    ______ ____
ROOT
ATOM      1  C   UNL     1       2.861   7.913  17.324  0.00  0.00    +0.000 C 
ENDROOT
BRANCH   1   4
ATOM      2  C   UNL     1       3.297   5.092  19.844  0.00  0.00    +0.000 A 
ATOM      3  C   UNL     1       2.937   6.331  19.276  0.00  0.00    +0.000 A 
ATOM      4  C   UNL     1       3.501   6.773  18.089  0.00  0.00    +0.000 A 
ATOM      5  C   UNL     1       4.578   6.053  17.573  0.00  0.00    +0.000 A 
ATOM      6  C   UNL     1       5.028   4.862  18.172  0.00  0.00    +0.000 A 
ATOM      7  C   UNL     1       4.372   4.348  19.310  0.00  0.00    +0.000 A 
BRANCH   2   9
ATOM      8  C   UNL     1       1.256   4.133  20.533  0.00  0.00    +0.000 C 
ATOM      9  O   UNL     1       2.559   4.611  20.902  0.00  0.00    +0.000 OA
ENDBRANCH   2   9
BRANCH   6  10
ATOM     10  O   UNL     1       6.062   4.312  17.451  0.00  0.00    +0.000 OA
ATOM     11  C   UNL     1       7.398   4.725  17.694  0.00  0.00    +0.000 C 
ENDBRANCH   6  10
BRANCH   7  12
ATOM     12  O   UNL     1       4.835   3.142  19.752  0.00  0.00    +0.000 OA
ATOM     13  C   UNL     1       4.199   1.919  19.432  0.00  0.00    +0.000 C 
ENDBRANCH   7  12
ENDBRANCH   1   4
BRANCH   1  14
ATOM     14  C   UNL     1       2.008   8.807  18.212  0.00  0.00    +0.000 C 
BRANCH  14  15
ATOM     15  N   UNL     1       1.821  10.161  17.664  0.00  0.00    +0.000 NA
ATOM     16  H   UNL     1       1.305  10.103  16.778  0.00  0.00    +0.000 HD
BRANCH  15  17
ATOM     17  C   UNL     1       1.043  10.984  18.606  0.00  0.00    +0.000 C 
BRANCH  17  18
ATOM     18  C   UNL     1      -0.000  10.168  19.392  0.00  0.00    +0.000 C 
BRANCH  18  19
ATOM     19  C   UNL     1      -0.298  10.759  20.725  0.00  0.00    +0.000 A 
ATOM     20  C   UNL     1      -0.145  10.202  21.974  0.00  0.00    +0.000 A 
ATOM     21  N   UNL     1      -0.508  11.010  23.030  0.00  0.00    +0.000 NA
ATOM     22  C   UNL     1      -0.941  12.156  22.587  0.00  0.00    +0.000 A 
ATOM     23  N   UNL     1      -1.338  13.155  23.393  0.00  0.00    +0.000 N 
ATOM     24  S   UNL     1      -0.966  12.329  20.878  0.00  0.00    +0.000 S 
ATOM     25  H   UNL     1      -1.532  12.878  24.349  0.00  0.00    +0.000 HD
ATOM     26  H   UNL     1      -1.967  13.849  23.014  0.00  0.00    +0.000 HD
ENDBRANCH  18  19
ENDBRANCH  17  18
ENDBRANCH  15  17
ENDBRANCH  14  15
ENDBRANCH   1  14
TORSDOF 9
ENDMDL
MODEL 3
REMARK VINA RESULT:      -6.4      2.608      3.125
REMARK  Name = 
REMARK  12 active torsions:
REMARK  status: ('A' for Active; 'I' for Inactive)
REMARK    1  A    between atoms: C_1  and  O_2
REMARK    2  A    between atoms: O_2  and  C_3
REMARK    3  A    between atoms: C_5  and  C_6
REMARK    4  A    between atoms: C_6  and  C_7
REMARK    5  A    between atoms: C_7  and  N_8
REMARK    6  A    between atoms: N_8  and  C_9
REMARK    7  A    between atoms: C_9  and  C_10
REMARK    8  A    between atoms: C_10  and  C_11
REMARK    9  A    between atoms: C_18  and  O_19
REMARK   10  A    between atoms: O_19  and  C_20
REMARK   11  A    between atoms: C_21  and  O_22
REMARK   12  A    between atoms: O_22  and  C_23
REMARK                            x       y       z     vdW  Elec       q    Type
REMARK                         _______ _______ _______ _____ _____    ______ ____
ROOT
ATOM      1  C   UNL     1       1.767   7.737  18.232  0.00  0.00    +0.000 C 
ENDROOT
BRANCH   1   4
ATOM      2  C   UNL     1       2.940   4.712  20.224  0.00  0.00    +0.000 A 
ATOM      3  C   UNL     1       2.330   5.939  19.897  0.00  0.00    +0.000 A 
ATOM      4  C   UNL     1       2.663   6.626  18.739  0.00  0.00    +0.000 A 
ATOM      5  C   UNL     1       3.759   6.171  18.006  0.00  0.00    +0.000 A 
ATOM      6  C   UNL     1       4.454   5.000  18.361  0.00  0.00    +0.000 A 
ATOM      7  C   UNL     1       4.035   4.236  19.470  0.00  0.00    +0.000 A 
BRANCH   2   9
ATOM      8  C   UNL     1       1.228   3.253  20.936  0.00  0.00    +0.000 C 
ATOM      9  O   UNL     1       2.425   3.975  21.268  0.00  0.00    +0.000 OA
ENDBRANCH   2   9
BRANCH   6  10
ATOM     10  O   UNL     1       5.456   4.732  17.458  0.00  0.00    +0.000 OA
ATOM     11  C   UNL     1       5.176   3.980  16.287  0.00  0.00    +0.000 C 
ENDBRANCH   6  10
BRANCH   7  12
ATOM     12  O   UNL     1       4.724   3.074  19.667  0.00  0.00    +0.000 OA
ATOM     13  C   UNL     1       4.217   1.811  19.277  0.00  0.00    +0.000 C 
ENDBRANCH   7  12
ENDBRANCH   1   4
BRANCH   1  14
ATOM     14  C   UNL     1       2.553   8.916  17.678  0.00  0.00    +0.000 C 
BRANCH  14  15
ATOM     15  N   UNL     1       1.768  10.160  17.619  0.00  0.00    +0.000 NA
ATOM     16  H   UNL     1       1.717  10.487  16.646  0.00  0.00    +0.000 HD
BRANCH  15  17
ATOM     17  C   UNL     1       0.398   9.916  18.103  0.00  0.00    +0.000 C 
BRANCH  17  18
ATOM     18  C   UNL     1      -0.198  11.125  18.846  0.00  0.00    +0.000 C 
BRANCH  18  19
ATOM     19  C   UNL     1      -0.201  10.940  20.323  0.00  0.00    +0.000 A 
ATOM     20  C   UNL     1      -0.245  11.892  21.317  0.00  0.00    +0.000 A 
ATOM     21  N   UNL     1      -0.239  11.403  22.605  0.00  0.00    +0.000 NA
ATOM     22  C   UNL     1      -0.179  10.102  22.588  0.00  0.00    +0.000 A 
ATOM     23  N   UNL     1      -0.189   9.349  23.701  0.00  0.00    +0.000 N 
ATOM     24  S   UNL     1      -0.099   9.383  21.030  0.00  0.00    +0.000 S 
ATOM     25  H   UNL     1       0.022   9.853  24.556  0.00  0.00    +0.000 HD
ATOM     26  H   UNL     1       0.200   8.419  23.648  0.00  0.00    +0.000 HD
ENDBRANCH  18  19
ENDBRANCH  17  18
ENDBRANCH  15  17
ENDBRANCH  14  15
ENDBRANCH   1  14
TORSDOF 9
ENDMDL
MODEL 4
REMARK VINA RESULT:      -6.3      3.023      4.839
REMARK  Name = 
REMARK  12 active torsions:
REMARK  status: ('A' for Active; 'I' for Inactive)
REMARK    1  A    between atoms: C_1  and  O_2
REMARK    2  A    between atoms: O_2  and  C_3
REMARK    3  A    between atoms: C_5  and  C_6
REMARK    4  A    between atoms: C_6  and  C_7
REMARK    5  A    between atoms: C_7  and  N_8
REMARK    6  A    between atoms: N_8  and  C_9
REMARK    7  A    between atoms: C_9  and  C_10
REMARK    8  A    between atoms: C_10  and  C_11
REMARK    9  A    between atoms: C_18  and  O_19
REMARK   10  A    between atoms: O_19  and  C_20
REMARK   11  A    between atoms: C_21  and  O_22
REMARK   12  A    between atoms: O_22  and  C_23
REMARK                            x       y       z     vdW  Elec       q    Type
REMARK                         _______ _______ _______ _____ _____    ______ ____
ROOT
ATOM      1  C   UNL     1       3.041   3.344  17.627  0.00  0.00    +0.000 C 
ENDROOT
BRANCH   1   4
ATOM      2  C   UNL     1       5.970   5.252  16.120  0.00  0.00    +0.000 A 
ATOM      3  C   UNL     1       4.886   4.363  16.257  0.00  0.00    +0.000 A 
ATOM      4  C   UNL     1       4.399   4.003  17.505  0.00  0.00    +0.000 A 
ATOM      5  C   UNL     1       5.136   4.388  18.625  0.00  0.00    +0.000 A 
ATOM      6  C   UNL     1       6.282   5.197  18.516  0.00  0.00    +0.000 A 
ATOM      7  C   UNL     1       6.704   5.663  17.254  0.00  0.00    +0.000 A 
BRANCH   2   9
ATOM      8  C   UNL     1       6.997   4.806  14.043  0.00  0.00    +0.000 C 
ATOM      9  O   UNL     1       6.275   5.736  14.867  0.00  0.00    +0.000 OA
ENDBRANCH   2   9
BRANCH   6  10
ATOM     10  O   UNL     1       6.798   5.483  19.759  0.00  0.00    +0.000 OA
ATOM     11  C   UNL     1       8.185   5.315  20.009  0.00  0.00    +0.000 C 
ENDBRANCH   6  10
BRANCH   7  12
ATOM     12  O   UNL     1       7.772   6.513  17.277  0.00  0.00    +0.000 OA
ATOM     13  C   UNL     1       7.633   7.907  17.479  0.00  0.00    +0.000 C 
ENDBRANCH   7  12
ENDBRANCH   1   4
BRANCH   1  14
ATOM     14  C   UNL     1       1.993   4.268  18.229  0.00  0.00    +0.000 C 
BRANCH  14  15
ATOM     15  N   UNL     1       1.864   4.126  19.689  0.00  0.00    +0.000 NA
ATOM     16  H   UNL     1       2.688   3.639  20.060  0.00  0.00    +0.000 HD
BRANCH  15  17
ATOM     17  C   UNL     1       1.783   5.455  20.320  0.00  0.00    +0.000 C 
BRANCH  17  18
ATOM     18  C   UNL     1       2.643   6.511  19.601  0.00  0.00    +0.000 C 
BRANCH  18  19
ATOM     19  C   UNL     1       1.977   7.841  19.540  0.00  0.00    +0.000 A 
ATOM     20  C   UNL     1       1.335   8.537  20.540  0.00  0.00    +0.000 A 
ATOM     21  N   UNL     1       0.817   9.759  20.171  0.00  0.00    +0.000 NA
ATOM     22  C   UNL     1       1.051   9.981  18.909  0.00  0.00    +0.000 A 
ATOM     23  N   UNL     1       0.686  11.110  18.279  0.00  0.00    +0.000 N 
ATOM     24  S   UNL     1       1.883   8.728  18.078  0.00  0.00    +0.000 S 
ATOM     25  H   UNL     1      -0.010  11.663  18.767  0.00  0.00    +0.000 HD
ATOM     26  H   UNL     1       0.579  11.080  17.275  0.00  0.00    +0.000 HD
ENDBRANCH  18  19
ENDBRANCH  17  18
ENDBRANCH  15  17
ENDBRANCH  14  15
ENDBRANCH   1  14
TORSDOF 9
ENDMDL
MODEL 5
REMARK VINA RESULT:      -6.3      7.145     10.087
REMARK  Name = 
REMARK  12 active torsions:
REMARK  status: ('A' for Active; 'I' for Inactive)
REMARK    1  A    between atoms: C_1  and  O_2
REMARK    2  A    between atoms: O_2  and  C_3
REMARK    3  A    between atoms: C_5  and  C_6
REMARK    4  A    between atoms: C_6  and  C_7
REMARK    5  A    between atoms: C_7  and  N_8
REMARK    6  A    between atoms: N_8  and  C_9
REMARK    7  A    between atoms: C_9  and  C_10
REMARK    8  A    between atoms: C_10  and  C_11
REMARK    9  A    between atoms: C_18  and  O_19
REMARK   10  A    between atoms: O_19  and  C_20
REMARK   11  A    between atoms: C_21  and  O_22
REMARK   12  A    between atoms: O_22  and  C_23
REMARK                            x       y       z     vdW  Elec       q    Type
REMARK                         _______ _______ _______ _____ _____    ______ ____
ROOT
ATOM      1  C   UNL     1       8.892   8.990  18.819  0.00  0.00    +0.000 C 
ENDROOT
BRANCH   1   4
ATOM      2  C   UNL     1       9.935  12.629  18.413  0.00  0.00    +0.000 A 
ATOM      3  C   UNL     1       9.806  11.244  18.185  0.00  0.00    +0.000 A 
ATOM      4  C   UNL     1       9.353  10.388  19.177  0.00  0.00    +0.000 A 
ATOM      5  C   UNL     1       9.217  10.901  20.467  0.00  0.00    +0.000 A 
ATOM      6  C   UNL     1       9.433  12.262  20.749  0.00  0.00    +0.000 A 
ATOM      7  C   UNL     1       9.774  13.156  19.713  0.00  0.00    +0.000 A 
BRANCH   2   9
ATOM      8  C   UNL     1      11.496  13.295  16.774  0.00  0.00    +0.000 C 
ATOM      9  O   UNL     1      10.185  13.455  17.341  0.00  0.00    +0.000 OA
ENDBRANCH   2   9
BRANCH   6  10
ATOM     10  O   UNL     1       9.185  12.532  22.075  0.00  0.00    +0.000 OA
ATOM     11  C   UNL     1       8.279  11.722  22.808  0.00  0.00    +0.000 C 
ENDBRANCH   6  10
BRANCH   7  12
ATOM     12  O   UNL     1       9.870  14.466  20.086  0.00  0.00    +0.000 OA
ATOM     13  C   UNL     1      11.107  15.083  20.390  0.00  0.00    +0.000 C 
ENDBRANCH   7  12
ENDBRANCH   1   4
BRANCH   1  14
ATOM     14  C   UNL     1       7.875   8.981  17.687  0.00  0.00    +0.000 C 
BRANCH  14  15
ATOM     15  N   UNL     1       7.520   7.626  17.235  0.00  0.00    +0.000 NA
ATOM     16  H   UNL     1       8.110   7.367  16.435  0.00  0.00    +0.000 HD
BRANCH  15  17
ATOM     17  C   UNL     1       7.751   6.656  18.321  0.00  0.00    +0.000 C 
BRANCH  17  18
ATOM     18  C   UNL     1       7.517   5.199  17.880  0.00  0.00    +0.000 C 
BRANCH  18  19
ATOM     19  C   UNL     1       6.071   4.854  17.804  0.00  0.00    +0.000 A 
ATOM     20  C   UNL     1       5.366   4.302  16.758  0.00  0.00    +0.000 A 
ATOM     21  N   UNL     1       4.024   4.095  16.995  0.00  0.00    +0.000 NA
ATOM     22  C   UNL     1       3.716   4.493  18.196  0.00  0.00    +0.000 A 
ATOM     23  N   UNL     1       2.481   4.386  18.714  0.00  0.00    +0.000 N 
ATOM     24  S   UNL     1       5.007   5.167  19.109  0.00  0.00    +0.000 S 
ATOM     25  H   UNL     1       1.747   4.224  18.033  0.00  0.00    +0.000 HD
ATOM     26  H   UNL     1       2.229   5.003  19.473  0.00  0.00    +0.000 HD
ENDBRANCH  18  19
ENDBRANCH  17  18
ENDBRANCH  15  17
ENDBRANCH  14  15
ENDBRANCH   1  14
TORSDOF 9
ENDMDL
MODEL 6
REMARK VINA RESULT:      -6.3      2.284      3.618
REMARK  Name = 
REMARK  12 active torsions:
REMARK  status: ('A' for Active; 'I' for Inactive)
REMARK    1  A    between atoms: C_1  and  O_2
REMARK    2  A    between atoms: O_2  and  C_3
REMARK    3  A    between atoms: C_5  and  C_6
REMARK    4  A    between atoms: C_6  and  C_7
REMARK    5  A    between atoms: C_7  and  N_8
REMARK    6  A    between atoms: N_8  and  C_9
REMARK    7  A    between atoms: C_9  and  C_10
REMARK    8  A    between atoms: C_10  and  C_11
REMARK    9  A    between atoms: C_18  and  O_19
REMARK   10  A    between atoms: O_19  and  C_20
REMARK   11  A    between atoms: C_21  and  O_22
REMARK   12  A    between atoms: O_22  and  C_23
REMARK                            x       y       z     vdW  Elec       q    Type
REMARK                         _______ _______ _______ _____ _____    ______ ____
ROOT
ATOM      1  C   UNL     1       2.137   7.754  19.070  0.00  0.00    +0.000 C 
ENDROOT
BRANCH   1   4
ATOM      2  C   UNL     1       5.065   6.448  17.016  0.00  0.00    +0.000 A 
ATOM      3  C   UNL     1       4.043   7.290  17.497  0.00  0.00    +0.000 A 
ATOM      4  C   UNL     1       3.012   6.799  18.284  0.00  0.00    +0.000 A 
ATOM      5  C   UNL     1       2.903   5.415  18.423  0.00  0.00    +0.000 A 
ATOM      6  C   UNL     1       3.855   4.538  17.872  0.00  0.00    +0.000 A 
ATOM      7  C   UNL     1       4.971   5.048  17.176  0.00  0.00    +0.000 A 
BRANCH   2   9
ATOM      8  C   UNL     1       7.222   7.345  17.342  0.00  0.00    +0.000 C 
ATOM      9  O   UNL     1       6.168   7.019  16.422  0.00  0.00    +0.000 OA
ENDBRANCH   2   9
BRANCH   6  10
ATOM     10  O   UNL     1       3.559   3.233  18.190  0.00  0.00    +0.000 OA
ATOM     11  C   UNL     1       2.459   2.582  17.573  0.00  0.00    +0.000 C 
ENDBRANCH   6  10
BRANCH   7  12
ATOM     12  O   UNL     1       5.875   4.112  16.765  0.00  0.00    +0.000 OA
ATOM     13  C   UNL     1       6.021   3.738  15.408  0.00  0.00    +0.000 C 
ENDBRANCH   7  12
ENDBRANCH   1   4
BRANCH   1  14
ATOM     14  C   UNL     1       1.722   7.190  20.421  0.00  0.00    +0.000 C 
BRANCH  14  15
ATOM     15  N   UNL     1       1.597   8.220  21.466  0.00  0.00    +0.000 NA
ATOM     16  H   UNL     1       2.249   8.988  21.269  0.00  0.00    +0.000 HD
BRANCH  15  17
ATOM     17  C   UNL     1       0.226   8.762  21.478  0.00  0.00    +0.000 C 
BRANCH  17  18
ATOM     18  C   UNL     1       0.182  10.268  21.791  0.00  0.00    +0.000 C 
BRANCH  18  19
ATOM     19  C   UNL     1      -0.478  11.053  20.712  0.00  0.00    +0.000 A 
ATOM     20  C   UNL     1      -1.546  11.918  20.798  0.00  0.00    +0.000 A 
ATOM     21  N   UNL     1      -1.929  12.503  19.611  0.00  0.00    +0.000 NA
ATOM     22  C   UNL     1      -1.171  12.081  18.639  0.00  0.00    +0.000 A 
ATOM     23  N   UNL     1      -1.295  12.506  17.371  0.00  0.00    +0.000 N 
ATOM     24  S   UNL     1       0.030  10.935  19.081  0.00  0.00    +0.000 S 
ATOM     25  H   UNL     1      -2.173  12.968  17.161  0.00  0.00    +0.000 HD
ATOM     26  H   UNL     1      -0.939  11.912  16.635  0.00  0.00    +0.000 HD
ENDBRANCH  18  19
ENDBRANCH  17  18
ENDBRANCH  15  17
ENDBRANCH  14  15
ENDBRANCH   1  14
TORSDOF 9
ENDMDL
MODEL 7
REMARK VINA RESULT:      -6.3      1.246      2.727
REMARK  Name = 
REMARK  12 active torsions:
REMARK  status: ('A' for Active; 'I' for Inactive)
REMARK    1  A    between atoms: C_1  and  O_2
REMARK    2  A    between atoms: O_2  and  C_3
REMARK    3  A    between atoms: C_5  and  C_6
REMARK    4  A    between atoms: C_6  and  C_7
REMARK    5  A    between atoms: C_7  and  N_8
REMARK    6  A    between atoms: N_8  and  C_9
REMARK    7  A    between atoms: C_9  and  C_10
REMARK    8  A    between atoms: C_10  and  C_11
REMARK    9  A    between atoms: C_18  and  O_19
REMARK   10  A    between atoms: O_19  and  C_20
REMARK   11  A    between atoms: C_21  and  O_22
REMARK   12  A    between atoms: O_22  and  C_23
REMARK                            x       y       z     vdW  Elec       q    Type
REMARK                         _______ _______ _______ _____ _____    ______ ____
ROOT
ATOM      1  C   UNL     1       3.272   8.116  17.475  0.00  0.00    +0.000 C 
ENDROOT
BRANCH   1   4
ATOM      2  C   UNL     1       4.833   4.644  17.496  0.00  0.00    +0.000 A 
ATOM      3  C   UNL     1       4.501   5.955  17.101  0.00  0.00    +0.000 A 
ATOM      4  C   UNL     1       3.406   6.616  17.639  0.00  0.00    +0.000 A 
ATOM      5  C   UNL     1       2.528   5.880  18.433  0.00  0.00    +0.000 A 
ATOM      6  C   UNL     1       2.780   4.536  18.767  0.00  0.00    +0.000 A 
ATOM      7  C   UNL     1       3.957   3.903  18.320  0.00  0.00    +0.000 A 
BRANCH   2   9
ATOM      8  C   UNL     1       7.183   4.814  17.612  0.00  0.00    +0.000 C 
ATOM      9  O   UNL     1       6.039   4.117  17.092  0.00  0.00    +0.000 OA
ENDBRANCH   2   9
BRANCH   6  10
ATOM     10  O   UNL     1       1.800   4.048  19.600  0.00  0.00    +0.000 OA
ATOM     11  C   UNL     1       1.796   4.397  20.976  0.00  0.00    +0.000 C 
ENDBRANCH   6  10
BRANCH   7  12
ATOM     12  O   UNL     1       4.142   2.630  18.779  0.00  0.00    +0.000 OA
ATOM     13  C   UNL     1       3.528   1.506  18.178  0.00  0.00    +0.000 C 
ENDBRANCH   7  12
ENDBRANCH   1   4
BRANCH   1  14
ATOM     14  C   UNL     1       2.150   8.699  18.321  0.00  0.00    +0.000 C 
BRANCH  14  15
ATOM     15  N   UNL     1       1.414   9.781  17.646  0.00  0.00    +0.000 NA
ATOM     16  H   UNL     1       0.661   9.378  17.075  0.00  0.00    +0.000 HD
BRANCH  15  17
ATOM     17  C   UNL     1       0.814  10.683  18.644  0.00  0.00    +0.000 C 
BRANCH  17  18
ATOM     18  C   UNL     1      -0.539  10.173  19.174  0.00  0.00    +0.000 C 
BRANCH  18  19
ATOM     19  C   UNL     1      -1.666  10.496  18.257  0.00  0.00    +0.000 A 
ATOM     20  C   UNL     1      -1.989   9.927  17.045  0.00  0.00    +0.000 A 
ATOM     21  N   UNL     1      -3.107  10.444  16.428  0.00  0.00    +0.000 NA
ATOM     22  C   UNL     1      -3.617  11.398  17.155  0.00  0.00    +0.000 A 
ATOM     23  N   UNL     1      -4.732  12.066  16.816  0.00  0.00    +0.000 N 
ATOM     24  S   UNL     1      -2.774  11.754  18.609  0.00  0.00    +0.000 S 
ATOM     25  H   UNL     1      -5.005  11.972  15.844  0.00  0.00    +0.000 HD
ATOM     26  H   UNL     1      -4.873  12.985  17.211  0.00  0.00    +0.000 HD
ENDBRANCH  18  19
ENDBRANCH  17  18
ENDBRANCH  15  17
ENDBRANCH  14  15
ENDBRANCH   1  14
TORSDOF 9
ENDMDL
MODEL 8
REMARK VINA RESULT:      -6.2      2.376      3.838
REMARK  Name = 
REMARK  12 active torsions:
REMARK  status: ('A' for Active; 'I' for Inactive)
REMARK    1  A    between atoms: C_1  and  O_2
REMARK    2  A    between atoms: O_2  and  C_3
REMARK    3  A    between atoms: C_5  and  C_6
REMARK    4  A    between atoms: C_6  and  C_7
REMARK    5  A    between atoms: C_7  and  N_8
REMARK    6  A    between atoms: N_8  and  C_9
REMARK    7  A    between atoms: C_9  and  C_10
REMARK    8  A    between atoms: C_10  and  C_11
REMARK    9  A    between atoms: C_18  and  O_19
REMARK   10  A    between atoms: O_19  and  C_20
REMARK   11  A    between atoms: C_21  and  O_22
REMARK   12  A    between atoms: O_22  and  C_23
REMARK                            x       y       z     vdW  Elec       q    Type
REMARK                         _______ _______ _______ _____ _____    ______ ____
ROOT
ATOM      1  C   UNL     1       3.057   8.023  17.621  0.00  0.00    +0.000 C 
ENDROOT
BRANCH   1   4
ATOM      2  C   UNL     1       4.910   4.797  18.427  0.00  0.00    +0.000 A 
ATOM      3  C   UNL     1       4.612   6.067  17.895  0.00  0.00    +0.000 A 
ATOM      4  C   UNL     1       3.312   6.550  17.863  0.00  0.00    +0.000 A 
ATOM      5  C   UNL     1       2.283   5.667  18.190  0.00  0.00    +0.000 A 
ATOM      6  C   UNL     1       2.542   4.357  18.632  0.00  0.00    +0.000 A 
ATOM      7  C   UNL     1       3.871   3.909  18.781  0.00  0.00    +0.000 A 
BRANCH   2   9
ATOM      8  C   UNL     1       7.008   5.485  19.259  0.00  0.00    +0.000 C 
ATOM      9  O   UNL     1       6.230   4.457  18.626  0.00  0.00    +0.000 OA
ENDBRANCH   2   9
BRANCH   6  10
ATOM     10  O   UNL     1       1.372   3.704  18.942  0.00  0.00    +0.000 OA
ATOM     11  C   UNL     1       0.860   3.750  20.265  0.00  0.00    +0.000 C 
ENDBRANCH   6  10
BRANCH   7  12
ATOM     12  O   UNL     1       4.005   2.655  19.304  0.00  0.00    +0.000 OA
ATOM     13  C   UNL     1       3.749   1.484  18.551  0.00  0.00    +0.000 C 
ENDBRANCH   7  12
ENDBRANCH   1   4
BRANCH   1  14
ATOM     14  C   UNL     1       1.937   8.574  18.492  0.00  0.00    +0.000 C 
BRANCH  14  15
ATOM     15  N   UNL     1       1.204   9.685  17.862  0.00  0.00    +0.000 NA
ATOM     16  H   UNL     1       0.551   9.311  17.164  0.00  0.00    +0.000 HD
BRANCH  15  17
ATOM     17  C   UNL     1       0.432  10.421  18.879  0.00  0.00    +0.000 C 
BRANCH  17  18
ATOM     18  C   UNL     1       1.058  10.333  20.284  0.00  0.00    +0.000 C 
BRANCH  18  19
ATOM     19  C   UNL     1       0.083  10.658  21.361  0.00  0.00    +0.000 A 
ATOM     20  C   UNL     1      -0.073  10.070  22.596  0.00  0.00    +0.000 A 
ATOM     21  N   UNL     1      -1.071  10.602  23.382  0.00  0.00    +0.000 NA
ATOM     22  C   UNL     1      -1.670  11.570  22.749  0.00  0.00    +0.000 A 
ATOM     23  N   UNL     1      -2.668  12.294  23.283  0.00  0.00    +0.000 N 
ATOM     24  S   UNL     1      -1.094  11.886  21.161  0.00  0.00    +0.000 S 
ATOM     25  H   UNL     1      -3.105  11.878  24.098  0.00  0.00    +0.000 HD
ATOM     26  H   UNL     1      -3.301  12.767  22.654  0.00  0.00    +0.000 HD
ENDBRANCH  18  19
ENDBRANCH  17  18
ENDBRANCH  15  17
ENDBRANCH  14  15
ENDBRANCH   1  14
TORSDOF 9
ENDMDL
MODEL 9
REMARK VINA RESULT:      -6.2      1.487      1.585
REMARK  Name = 
REMARK  12 active torsions:
REMARK  status: ('A' for Active; 'I' for Inactive)
REMARK    1  A    between atoms: C_1  and  O_2
REMARK    2  A    between atoms: O_2  and  C_3
REMARK    3  A    between atoms: C_5  and  C_6
REMARK    4  A    between atoms: C_6  and  C_7
REMARK    5  A    between atoms: C_7  and  N_8
REMARK    6  A    between atoms: N_8  and  C_9
REMARK    7  A    between atoms: C_9  and  C_10
REMARK    8  A    between atoms: C_10  and  C_11
REMARK    9  A    between atoms: C_18  and  O_19
REMARK   10  A    between atoms: O_19  and  C_20
REMARK   11  A    between atoms: C_21  and  O_22
REMARK   12  A    between atoms: O_22  and  C_23
REMARK                            x       y       z     vdW  Elec       q    Type
REMARK                         _______ _______ _______ _____ _____    ______ ____
ROOT
ATOM      1  C   UNL     1       3.172   8.082  17.717  0.00  0.00    +0.000 C 
ENDROOT
BRANCH   1   4
ATOM      2  C   UNL     1       2.173   4.487  18.474  0.00  0.00    +0.000 A 
ATOM      3  C   UNL     1       2.311   5.886  18.583  0.00  0.00    +0.000 A 
ATOM      4  C   UNL     1       3.268   6.577  17.856  0.00  0.00    +0.000 A 
ATOM      5  C   UNL     1       4.221   5.832  17.163  0.00  0.00    +0.000 A 
ATOM      6  C   UNL     1       4.171   4.426  17.114  0.00  0.00    +0.000 A 
ATOM      7  C   UNL     1       3.124   3.731  17.754  0.00  0.00    +0.000 A 
BRANCH   2   9
ATOM      8  C   UNL     1       1.167   3.764  20.481  0.00  0.00    +0.000 C 
ATOM      9  O   UNL     1       1.079   3.883  19.052  0.00  0.00    +0.000 OA
ENDBRANCH   2   9
BRANCH   6  10
ATOM     10  O   UNL     1       5.184   3.928  16.329  0.00  0.00    +0.000 OA
ATOM     11  C   UNL     1       5.604   4.638  15.174  0.00  0.00    +0.000 C 
ENDBRANCH   6  10
BRANCH   7  12
ATOM     12  O   UNL     1       3.124   2.379  17.564  0.00  0.00    +0.000 OA
ATOM     13  C   UNL     1       3.586   1.471  18.546  0.00  0.00    +0.000 C 
ENDBRANCH   7  12
ENDBRANCH   1   4
BRANCH   1  14
ATOM     14  C   UNL     1       1.735   8.571  17.620  0.00  0.00    +0.000 C 
BRANCH  14  15
ATOM     15  N   UNL     1       1.560   9.957  18.085  0.00  0.00    +0.000 NA
ATOM     16  H   UNL     1       1.261  10.547  17.300  0.00  0.00    +0.000 HD
BRANCH  15  17
ATOM     17  C   UNL     1       0.524  10.010  19.132  0.00  0.00    +0.000 C 
BRANCH  17  18
ATOM     18  C   UNL     1      -0.391  11.241  19.005  0.00  0.00    +0.000 C 
BRANCH  18  19
ATOM     19  C   UNL     1      -1.638  10.947  18.246  0.00  0.00    +0.000 A 
ATOM     20  C   UNL     1      -1.845  10.029  17.242  0.00  0.00    +0.000 A 
ATOM     21  N   UNL     1      -3.125   9.988  16.733  0.00  0.00    +0.000 NA
ATOM     22  C   UNL     1      -3.873  10.869  17.334  0.00  0.00    +0.000 A 
ATOM     23  N   UNL     1      -5.179  11.035  17.064  0.00  0.00    +0.000 N 
ATOM     24  S   UNL     1      -3.084  11.821  18.527  0.00  0.00    +0.000 S 
ATOM     25  H   UNL     1      -5.487  10.624  16.190  0.00  0.00    +0.000 HD
ATOM     26  H   UNL     1      -5.601  11.924  17.290  0.00  0.00    +0.000 HD
ENDBRANCH  18  19
ENDBRANCH  17  18
ENDBRANCH  15  17
ENDBRANCH  14  15
ENDBRANCH   1  14
TORSDOF 9
ENDMDL
