MODEL 1
REMARK VINA RESULT:      -7.0      0.000      0.000
REMARK  Name = 
REMARK  5 active torsions:
REMARK  status: ('A' for Active; 'I' for Inactive)
REMARK    1  A    between atoms: C_1  and  O_2
REMARK    2  A    between atoms: O_2  and  C_3
REMARK    3  A    between atoms: C_6  and  C_7
REMARK    4  A    between atoms: C_24  and  O_25
REMARK    5  A    between atoms: O_25  and  C_26
REMARK                            x       y       z     vdW  Elec       q    Type
REMARK                         _______ _______ _______ _____ _____    ______ ____
ROOT
ATOM      1  C   UNL     1      -0.234  11.051  19.688  0.00  0.00    +0.000 C 
ATOM      2  C   UNL     1       0.475  12.370  19.602  0.00  0.00    +0.000 C 
ATOM      3  C   UNL     1      -0.278  13.440  19.917  0.00  0.00    +0.000 C 
ATOM      4  C   UNL     1      -0.104  14.441  18.843  0.00  0.00    +0.000 C 
ATOM      5  O   UNL     1       1.136  14.088  18.241  0.00  0.00    +0.000 OA
ATOM      6  C   UNL     1       1.516  12.855  18.731  0.00  0.00    +0.000 C 
ATOM      7  O   UNL     1       2.582  12.338  18.484  0.00  0.00    +0.000 OA
ATOM      8  O   UNL     1      -1.489  13.327  20.611  0.00  0.00    +0.000 OA
ATOM      9  C   UNL     1      -2.311  12.299  20.119  0.00  0.00    +0.000 A 
ATOM     10  C   UNL     1      -3.666  12.581  20.111  0.00  0.00    +0.000 A 
ATOM     11  C   UNL     1      -4.309  12.191  18.970  0.00  0.00    +0.000 A 
ATOM     12  C   UNL     1      -3.643  11.537  17.947  0.00  0.00    +0.000 A 
ATOM     13  C   UNL     1      -2.343  11.052  18.083  0.00  0.00    +0.000 A 
ATOM     14  C   UNL     1      -1.689  11.334  19.277  0.00  0.00    +0.000 A 
ATOM     15  O   UNL     1      -4.394  11.521  16.808  0.00  0.00    +0.000 OA
ATOM     16  C   UNL     1      -5.617  12.146  17.262  0.00  0.00    +0.000 C 
ATOM     17  O   UNL     1      -5.575  12.558  18.639  0.00  0.00    +0.000 OA
ENDROOT
BRANCH   1  21
ATOM     18  C   UNL     1       2.416   7.800  18.784  0.00  0.00    +0.000 A 
ATOM     19  C   UNL     1       1.882   8.545  17.738  0.00  0.00    +0.000 A 
ATOM     20  C   UNL     1       0.879   9.489  17.980  0.00  0.00    +0.000 A 
ATOM     21  C   UNL     1       0.449   9.749  19.284  0.00  0.00    +0.000 A 
ATOM     22  C   UNL     1       0.855   8.848  20.302  0.00  0.00    +0.000 A 
ATOM     23  C   UNL     1       1.838   7.885  20.048  0.00  0.00    +0.000 A 
BRANCH  18  25
ATOM     24  C   UNL     1       3.533   5.776  19.216  0.00  0.00    +0.000 C 
ATOM     25  O   UNL     1       3.481   6.997  18.475  0.00  0.00    +0.000 OA
ENDBRANCH  18  25
BRANCH  22  26
ATOM     26  O   UNL     1       0.234   9.008  21.517  0.00  0.00    +0.000 OA
ATOM     27  C   UNL     1       1.057   9.244  22.652  0.00  0.00    +0.000 C 
ENDBRANCH  22  26
ENDBRANCH   1  21
TORSDOF 3
ENDMDL
MODEL 2
REMARK VINA RESULT:      -6.6      2.311      6.638
REMARK  Name = 
REMARK  5 active torsions:
REMARK  status: ('A' for Active; 'I' for Inactive)
REMARK    1  A    between atoms: C_1  and  O_2
REMARK    2  A    between atoms: O_2  and  C_3
REMARK    3  A    between atoms: C_6  and  C_7
REMARK    4  A    between atoms: C_24  and  O_25
REMARK    5  A    between atoms: O_25  and  C_26
REMARK                            x       y       z     vdW  Elec       q    Type
REMARK                         _______ _______ _______ _____ _____    ______ ____
ROOT
ATOM      1  C   UNL     1      -0.879  12.345  20.572  0.00  0.00    +0.000 C 
ATOM      2  C   UNL     1       0.165  13.404  20.763  0.00  0.00    +0.000 C 
ATOM      3  C   UNL     1       1.223  13.313  19.936  0.00  0.00    +0.000 C 
ATOM      4  C   UNL     1       2.446  13.408  20.761  0.00  0.00    +0.000 C 
ATOM      5  O   UNL     1       2.011  14.062  21.947  0.00  0.00    +0.000 OA
ATOM      6  C   UNL     1       0.632  14.105  21.934  0.00  0.00    +0.000 C 
ATOM      7  O   UNL     1      -0.027  14.695  22.760  0.00  0.00    +0.000 OA
ATOM      8  O   UNL     1       1.197  12.541  18.767  0.00  0.00    +0.000 OA
ATOM      9  C   UNL     1       0.639  11.267  18.962  0.00  0.00    +0.000 A 
ATOM     10  C   UNL     1       1.242  10.244  18.251  0.00  0.00    +0.000 A 
ATOM     11  C   UNL     1       1.434   9.102  18.975  0.00  0.00    +0.000 A 
ATOM     12  C   UNL     1       1.013   8.994  20.289  0.00  0.00    +0.000 A 
ATOM     13  C   UNL     1       0.197   9.945  20.900  0.00  0.00    +0.000 A 
ATOM     14  C   UNL     1      -0.114  11.078  20.155  0.00  0.00    +0.000 A 
ATOM     15  O   UNL     1       1.571   7.905  20.893  0.00  0.00    +0.000 OA
ATOM     16  C   UNL     1       2.298   7.309  19.793  0.00  0.00    +0.000 C 
ATOM     17  O   UNL     1       2.200   8.056  18.568  0.00  0.00    +0.000 OA
ENDROOT
BRANCH   1  21
ATOM     18  C   UNL     1      -4.228  12.949  23.186  0.00  0.00    +0.000 A 
ATOM     19  C   UNL     1      -3.051  12.425  23.709  0.00  0.00    +0.000 A 
ATOM     20  C   UNL     1      -2.006  12.045  22.861  0.00  0.00    +0.000 A 
ATOM     21  C   UNL     1      -2.099  12.253  21.482  0.00  0.00    +0.000 A 
ATOM     22  C   UNL     1      -3.370  12.596  20.953  0.00  0.00    +0.000 A 
ATOM     23  C   UNL     1      -4.423  12.948  21.807  0.00  0.00    +0.000 A 
BRANCH  18  25
ATOM     24  C   UNL     1      -6.394  12.727  24.074  0.00  0.00    +0.000 C 
ATOM     25  O   UNL     1      -5.142  13.414  24.093  0.00  0.00    +0.000 OA
ENDBRANCH  18  25
BRANCH  22  26
ATOM     26  O   UNL     1      -3.469  12.571  19.584  0.00  0.00    +0.000 OA
ATOM     27  C   UNL     1      -4.697  12.131  19.019  0.00  0.00    +0.000 C 
ENDBRANCH  22  26
ENDBRANCH   1  21
TORSDOF 3
ENDMDL
MODEL 3
REMARK VINA RESULT:      -6.6      4.650      7.516
REMARK  Name = 
REMARK  5 active torsions:
REMARK  status: ('A' for Active; 'I' for Inactive)
REMARK    1  A    between atoms: C_1  and  O_2
REMARK    2  A    between atoms: O_2  and  C_3
REMARK    3  A    between atoms: C_6  and  C_7
REMARK    4  A    between atoms: C_24  and  O_25
REMARK    5  A    between atoms: O_25  and  C_26
REMARK                            x       y       z     vdW  Elec       q    Type
REMARK                         _______ _______ _______ _____ _____    ______ ____
ROOT
ATOM      1  C   UNL     1      -6.047  12.901  19.864  0.00  0.00    +0.000 C 
ATOM      2  C   UNL     1      -7.131  12.003  20.381  0.00  0.00    +0.000 C 
ATOM      3  C   UNL     1      -7.854  12.514  21.395  0.00  0.00    +0.000 C 
ATOM      4  C   UNL     1      -7.915  11.490  22.461  0.00  0.00    +0.000 C 
ATOM      5  O   UNL     1      -7.657  10.269  21.780  0.00  0.00    +0.000 OA
ATOM      6  C   UNL     1      -7.226  10.570  20.504  0.00  0.00    +0.000 C 
ATOM      7  O   UNL     1      -7.029   9.735  19.650  0.00  0.00    +0.000 OA
ATOM      8  O   UNL     1      -7.854  13.880  21.704  0.00  0.00    +0.000 OA
ATOM      9  C   UNL     1      -6.567  14.442  21.713  0.00  0.00    +0.000 A 
ATOM     10  C   UNL     1      -6.346  15.395  22.692  0.00  0.00    +0.000 A 
ATOM     11  C   UNL     1      -5.141  15.275  23.324  0.00  0.00    +0.000 A 
ATOM     12  C   UNL     1      -4.225  14.300  22.965  0.00  0.00    +0.000 A 
ATOM     13  C   UNL     1      -4.370  13.514  21.822  0.00  0.00    +0.000 A 
ATOM     14  C   UNL     1      -5.538  13.684  21.086  0.00  0.00    +0.000 A 
ATOM     15  O   UNL     1      -3.250  14.174  23.910  0.00  0.00    +0.000 OA
ATOM     16  C   UNL     1      -3.609  15.230  24.833  0.00  0.00    +0.000 C 
ATOM     17  O   UNL     1      -4.799  15.943  24.456  0.00  0.00    +0.000 OA
ENDROOT
BRANCH   1  21
ATOM     18  C   UNL     1      -3.681  10.831  16.944  0.00  0.00    +0.000 A 
ATOM     19  C   UNL     1      -3.092  11.206  18.146  0.00  0.00    +0.000 A 
ATOM     20  C   UNL     1      -3.773  12.037  19.042  0.00  0.00    +0.000 A 
ATOM     21  C   UNL     1      -5.083  12.444  18.775  0.00  0.00    +0.000 A 
ATOM     22  C   UNL     1      -5.588  12.222  17.468  0.00  0.00    +0.000 A 
ATOM     23  C   UNL     1      -4.888  11.414  16.565  0.00  0.00    +0.000 A 
BRANCH  18  25
ATOM     24  C   UNL     1      -3.111  10.105  14.782  0.00  0.00    +0.000 C 
ATOM     25  O   UNL     1      -2.997   9.914  16.192  0.00  0.00    +0.000 OA
ENDBRANCH  18  25
BRANCH  22  26
ATOM     26  O   UNL     1      -6.785  12.833  17.183  0.00  0.00    +0.000 OA
ATOM     27  C   UNL     1      -6.742  14.140  16.627  0.00  0.00    +0.000 C 
ENDBRANCH  22  26
ENDBRANCH   1  21
TORSDOF 3
ENDMDL
MODEL 4
REMARK VINA RESULT:      -6.3      1.254      1.511
REMARK  Name = 
REMARK  5 active torsions:
REMARK  status: ('A' for Active; 'I' for Inactive)
REMARK    1  A    between atoms: C_1  and  O_2
REMARK    2  A    between atoms: O_2  and  C_3
REMARK    3  A    between atoms: C_6  and  C_7
REMARK    4  A    between atoms: C_24  and  O_25
REMARK    5  A    between atoms: O_25  and  C_26
REMARK                            x       y       z     vdW  Elec       q    Type
REMARK                         _______ _______ _______ _____ _____    ______ ____
ROOT
ATOM      1  C   UNL     1       0.651  11.249  20.177  0.00  0.00    +0.000 C 
ATOM      2  C   UNL     1       1.447  12.459  19.788  0.00  0.00    +0.000 C 
ATOM      3  C   UNL     1       1.012  13.617  20.316  0.00  0.00    +0.000 C 
ATOM      4  C   UNL     1       0.911  14.600  19.215  0.00  0.00    +0.000 C 
ATOM      5  O   UNL     1       1.784  14.088  18.215  0.00  0.00    +0.000 OA
ATOM      6  C   UNL     1       2.150  12.808  18.578  0.00  0.00    +0.000 C 
ATOM      7  O   UNL     1       2.971  12.152  17.978  0.00  0.00    +0.000 OA
ATOM      8  O   UNL     1       0.138  13.663  21.409  0.00  0.00    +0.000 OA
ATOM      9  C   UNL     1      -0.937  12.765  21.291  0.00  0.00    +0.000 A 
ATOM     10  C   UNL     1      -2.149  13.231  21.769  0.00  0.00    +0.000 A 
ATOM     11  C   UNL     1      -3.212  12.950  20.958  0.00  0.00    +0.000 A 
ATOM     12  C   UNL     1      -3.063  12.225  19.788  0.00  0.00    +0.000 A 
ATOM     13  C   UNL     1      -1.880  11.563  19.456  0.00  0.00    +0.000 A 
ATOM     14  C   UNL     1      -0.802  11.736  20.317  0.00  0.00    +0.000 A 
ATOM     15  O   UNL     1      -4.174  12.327  19.004  0.00  0.00    +0.000 OA
ATOM     16  C   UNL     1      -5.050  13.109  19.851  0.00  0.00    +0.000 C 
ATOM     17  O   UNL     1      -4.449  13.492  21.100  0.00  0.00    +0.000 OA
ENDROOT
BRANCH   1  21
ATOM     18  C   UNL     1       2.340   7.589  18.706  0.00  0.00    +0.000 A 
ATOM     19  C   UNL     1       1.869   8.527  17.795  0.00  0.00    +0.000 A 
ATOM     20  C   UNL     1       1.150   9.644  18.235  0.00  0.00    +0.000 A 
ATOM     21  C   UNL     1       0.957   9.871  19.600  0.00  0.00    +0.000 A 
ATOM     22  C   UNL     1       1.265   8.813  20.493  0.00  0.00    +0.000 A 
ATOM     23  C   UNL     1       1.959   7.683  20.042  0.00  0.00    +0.000 A 
BRANCH  18  25
ATOM     24  C   UNL     1       2.544   5.305  18.185  0.00  0.00    +0.000 C 
ATOM     25  O   UNL     1       3.143   6.602  18.201  0.00  0.00    +0.000 OA
ENDBRANCH  18  25
BRANCH  22  26
ATOM     26  O   UNL     1       0.854   8.993  21.791  0.00  0.00    +0.000 OA
ATOM     27  C   UNL     1      -0.418   8.476  22.157  0.00  0.00    +0.000 C 
ENDBRANCH  22  26
ENDBRANCH   1  21
TORSDOF 3
ENDMDL
MODEL 5
REMARK VINA RESULT:      -6.3      2.677      3.573
REMARK  Name = 
REMARK  5 active torsions:
REMARK  status: ('A' for Active; 'I' for Inactive)
REMARK    1  A    between atoms: C_1  and  O_2
REMARK    2  A    between atoms: O_2  and  C_3
REMARK    3  A    between atoms: C_6  and  C_7
REMARK    4  A    between atoms: C_24  and  O_25
REMARK    5  A    between atoms: O_25  and  C_26
REMARK                            x       y       z     vdW  Elec       q    Type
REMARK                         _______ _______ _______ _____ _____    ______ ____
ROOT
ATOM      1  C   UNL     1      -1.015  12.377  21.904  0.00  0.00    +0.000 C 
ATOM      2  C   UNL     1      -0.362  13.727  21.885  0.00  0.00    +0.000 C 
ATOM      3  C   UNL     1      -0.816  14.589  22.814  0.00  0.00    +0.000 C 
ATOM      4  C   UNL     1      -1.120  15.864  22.130  0.00  0.00    +0.000 C 
ATOM      5  O   UNL     1      -0.338  15.814  20.943  0.00  0.00    +0.000 OA
ATOM      6  C   UNL     1       0.163  14.534  20.812  0.00  0.00    +0.000 C 
ATOM      7  O   UNL     1       0.953  14.210  19.955  0.00  0.00    +0.000 OA
ATOM      8  O   UNL     1      -1.555  14.171  23.928  0.00  0.00    +0.000 OA
ATOM      9  C   UNL     1      -2.566  13.252  23.604  0.00  0.00    +0.000 A 
ATOM     10  C   UNL     1      -3.744  13.395  24.316  0.00  0.00    +0.000 A 
ATOM     11  C   UNL     1      -4.872  13.284  23.554  0.00  0.00    +0.000 A 
ATOM     12  C   UNL     1      -4.810  13.010  22.198  0.00  0.00    +0.000 A 
ATOM     13  C   UNL     1      -3.630  12.632  21.559  0.00  0.00    +0.000 A 
ATOM     14  C   UNL     1      -2.472  12.626  22.329  0.00  0.00    +0.000 A 
ATOM     15  O   UNL     1      -6.012  13.245  21.597  0.00  0.00    +0.000 OA
ATOM     16  C   UNL     1      -6.836  13.599  22.733  0.00  0.00    +0.000 C 
ATOM     17  O   UNL     1      -6.121  13.608  23.980  0.00  0.00    +0.000 OA
ENDROOT
BRANCH   1  21
ATOM     18  C   UNL     1       0.586   9.915  18.776  0.00  0.00    +0.000 A 
ATOM     19  C   UNL     1      -0.579  10.635  18.537  0.00  0.00    +0.000 A 
ATOM     20  C   UNL     1      -1.228  11.301  19.582  0.00  0.00    +0.000 A 
ATOM     21  C   UNL     1      -0.678  11.312  20.867  0.00  0.00    +0.000 A 
ATOM     22  C   UNL     1       0.389  10.415  21.133  0.00  0.00    +0.000 A 
ATOM     23  C   UNL     1       1.017   9.728  20.087  0.00  0.00    +0.000 A 
BRANCH  18  25
ATOM     24  C   UNL     1       2.213   8.421  17.969  0.00  0.00    +0.000 C 
ATOM     25  O   UNL     1       1.222   9.407  17.675  0.00  0.00    +0.000 OA
ENDBRANCH  18  25
BRANCH  22  26
ATOM     26  O   UNL     1       0.749  10.297  22.453  0.00  0.00    +0.000 OA
ATOM     27  C   UNL     1       0.017   9.381  23.256  0.00  0.00    +0.000 C 
ENDBRANCH  22  26
ENDBRANCH   1  21
TORSDOF 3
ENDMDL
MODEL 6
REMARK VINA RESULT:      -6.2      2.780      8.779
REMARK  Name = 
REMARK  5 active torsions:
REMARK  status: ('A' for Active; 'I' for Inactive)
REMARK    1  A    between atoms: C_1  and  O_2
REMARK    2  A    between atoms: O_2  and  C_3
REMARK    3  A    between atoms: C_6  and  C_7
REMARK    4  A    between atoms: C_24  and  O_25
REMARK    5  A    between atoms: O_25  and  C_26
REMARK                            x       y       z     vdW  Elec       q    Type
REMARK                         _______ _______ _______ _____ _____    ______ ____
ROOT
ATOM      1  C   UNL     1       3.342   6.674  19.325  0.00  0.00    +0.000 C 
ATOM      2  C   UNL     1       2.801   5.412  19.929  0.00  0.00    +0.000 C 
ATOM      3  C   UNL     1       3.695   4.414  20.050  0.00  0.00    +0.000 C 
ATOM      4  C   UNL     1       3.080   3.191  19.489  0.00  0.00    +0.000 C 
ATOM      5  O   UNL     1       1.683   3.450  19.550  0.00  0.00    +0.000 OA
ATOM      6  C   UNL     1       1.506   4.784  19.861  0.00  0.00    +0.000 C 
ATOM      7  O   UNL     1       0.425   5.279  20.087  0.00  0.00    +0.000 OA
ATOM      8  O   UNL     1       5.077   4.629  19.970  0.00  0.00    +0.000 OA
ATOM      9  C   UNL     1       5.442   5.463  18.900  0.00  0.00    +0.000 A 
ATOM     10  C   UNL     1       6.620   5.119  18.261  0.00  0.00    +0.000 A 
ATOM     11  C   UNL     1       6.554   5.186  16.898  0.00  0.00    +0.000 A 
ATOM     12  C   UNL     1       5.407   5.605  16.245  0.00  0.00    +0.000 A 
ATOM     13  C   UNL     1       4.324   6.174  16.915  0.00  0.00    +0.000 A 
ATOM     14  C   UNL     1       4.399   6.225  18.302  0.00  0.00    +0.000 A 
ATOM     15  O   UNL     1       5.464   5.305  14.916  0.00  0.00    +0.000 OA
ATOM     16  C   UNL     1       6.795   4.747  14.805  0.00  0.00    +0.000 C 
ATOM     17  O   UNL     1       7.497   4.685  16.058  0.00  0.00    +0.000 OA
ENDROOT
BRANCH   1  21
ATOM     18  C   UNL     1       0.180   9.449  18.480  0.00  0.00    +0.000 A 
ATOM     19  C   UNL     1       1.075   9.119  17.468  0.00  0.00    +0.000 A 
ATOM     20  C   UNL     1       2.219   8.365  17.751  0.00  0.00    +0.000 A 
ATOM     21  C   UNL     1       2.443   7.871  19.040  0.00  0.00    +0.000 A 
ATOM     22  C   UNL     1       1.636   8.382  20.089  0.00  0.00    +0.000 A 
ATOM     23  C   UNL     1       0.508   9.161  19.802  0.00  0.00    +0.000 A 
BRANCH  18  25
ATOM     24  C   UNL     1      -1.447  11.063  19.005  0.00  0.00    +0.000 C 
ATOM     25  O   UNL     1      -0.973  10.075  18.089  0.00  0.00    +0.000 OA
ENDBRANCH  18  25
BRANCH  22  26
ATOM     26  O   UNL     1       2.032   8.045  21.360  0.00  0.00    +0.000 OA
ATOM     27  C   UNL     1       1.609   8.883  22.427  0.00  0.00    +0.000 C 
ENDBRANCH  22  26
ENDBRANCH   1  21
TORSDOF 3
ENDMDL
MODEL 7
REMARK VINA RESULT:      -6.2      2.491      4.583
REMARK  Name = 
REMARK  5 active torsions:
REMARK  status: ('A' for Active; 'I' for Inactive)
REMARK    1  A    between atoms: C_1  and  O_2
REMARK    2  A    between atoms: O_2  and  C_3
REMARK    3  A    between atoms: C_6  and  C_7
REMARK    4  A    between atoms: C_24  and  O_25
REMARK    5  A    between atoms: O_25  and  C_26
REMARK                            x       y       z     vdW  Elec       q    Type
REMARK                         _______ _______ _______ _____ _____    ______ ____
ROOT
ATOM      1  C   UNL     1      -2.311  12.097  20.194  0.00  0.00    +0.000 C 
ATOM      2  C   UNL     1      -1.231  13.134  20.277  0.00  0.00    +0.000 C 
ATOM      3  C   UNL     1      -1.152  13.776  21.457  0.00  0.00    +0.000 C 
ATOM      4  C   UNL     1      -1.101  15.227  21.175  0.00  0.00    +0.000 C 
ATOM      5  O   UNL     1      -0.638  15.300  19.833  0.00  0.00    +0.000 OA
ATOM      6  C   UNL     1      -0.670  14.029  19.296  0.00  0.00    +0.000 C 
ATOM      7  O   UNL     1      -0.234  13.754  18.201  0.00  0.00    +0.000 OA
ATOM      8  O   UNL     1      -1.759  13.286  22.621  0.00  0.00    +0.000 OA
ATOM      9  C   UNL     1      -3.077  12.847  22.410  0.00  0.00    +0.000 A 
ATOM     10  C   UNL     1      -3.959  13.116  23.442  0.00  0.00    +0.000 A 
ATOM     11  C   UNL     1      -5.177  13.577  23.027  0.00  0.00    +0.000 A 
ATOM     12  C   UNL     1      -5.484  13.712  21.683  0.00  0.00    +0.000 A 
ATOM     13  C   UNL     1      -4.670  13.207  20.669  0.00  0.00    +0.000 A 
ATOM     14  C   UNL     1      -3.467  12.630  21.059  0.00  0.00    +0.000 A 
ATOM     15  O   UNL     1      -6.612  14.460  21.513  0.00  0.00    +0.000 OA
ATOM     16  C   UNL     1      -7.013  14.689  22.885  0.00  0.00    +0.000 C 
ATOM     17  O   UNL     1      -6.114  14.115  23.849  0.00  0.00    +0.000 OA
ENDROOT
BRANCH   1  21
ATOM     18  C   UNL     1      -2.555  10.536  16.204  0.00  0.00    +0.000 A 
ATOM     19  C   UNL     1      -3.617  11.284  16.702  0.00  0.00    +0.000 A 
ATOM     20  C   UNL     1      -3.654  11.653  18.051  0.00  0.00    +0.000 A 
ATOM     21  C   UNL     1      -2.592  11.338  18.902  0.00  0.00    +0.000 A 
ATOM     22  C   UNL     1      -1.625  10.411  18.433  0.00  0.00    +0.000 A 
ATOM     23  C   UNL     1      -1.609  10.022  17.088  0.00  0.00    +0.000 A 
BRANCH  18  25
ATOM     24  C   UNL     1      -3.822  10.113  14.270  0.00  0.00    +0.000 C 
ATOM     25  O   UNL     1      -2.536  10.334  14.851  0.00  0.00    +0.000 OA
ENDBRANCH  18  25
BRANCH  22  26
ATOM     26  O   UNL     1      -0.730   9.960  19.372  0.00  0.00    +0.000 OA
ATOM     27  C   UNL     1       0.648   9.966  19.026  0.00  0.00    +0.000 C 
ENDBRANCH  22  26
ENDBRANCH   1  21
TORSDOF 3
ENDMDL
MODEL 8
REMARK VINA RESULT:      -6.2      3.251      4.734
REMARK  Name = 
REMARK  5 active torsions:
REMARK  status: ('A' for Active; 'I' for Inactive)
REMARK    1  A    between atoms: C_1  and  O_2
REMARK    2  A    between atoms: O_2  and  C_3
REMARK    3  A    between atoms: C_6  and  C_7
REMARK    4  A    between atoms: C_24  and  O_25
REMARK    5  A    between atoms: O_25  and  C_26
REMARK                            x       y       z     vdW  Elec       q    Type
REMARK                         _______ _______ _______ _____ _____    ______ ____
ROOT
ATOM      1  C   UNL     1      -1.923  12.817  22.691  0.00  0.00    +0.000 C 
ATOM      2  C   UNL     1      -1.547  14.167  23.226  0.00  0.00    +0.000 C 
ATOM      3  C   UNL     1      -2.332  14.622  24.220  0.00  0.00    +0.000 C 
ATOM      4  C   UNL     1      -2.728  16.006  23.879  0.00  0.00    +0.000 C 
ATOM      5  O   UNL     1      -1.728  16.434  22.964  0.00  0.00    +0.000 OA
ATOM      6  C   UNL     1      -0.979  15.334  22.598  0.00  0.00    +0.000 C 
ATOM      7  O   UNL     1       0.014  15.400  21.910  0.00  0.00    +0.000 OA
ATOM      8  O   UNL     1      -3.188  13.782  24.944  0.00  0.00    +0.000 OA
ATOM      9  C   UNL     1      -3.921  12.906  24.127  0.00  0.00    +0.000 A 
ATOM     10  C   UNL     1      -5.224  12.673  24.532  0.00  0.00    +0.000 A 
ATOM     11  C   UNL     1      -6.134  12.685  23.514  0.00  0.00    +0.000 A 
ATOM     12  C   UNL     1      -5.750  12.875  22.197  0.00  0.00    +0.000 A 
ATOM     13  C   UNL     1      -4.416  12.864  21.792  0.00  0.00    +0.000 A 
ATOM     14  C   UNL     1      -3.456  12.744  22.791  0.00  0.00    +0.000 A 
ATOM     15  O   UNL     1      -6.829  13.151  21.408  0.00  0.00    +0.000 OA
ATOM     16  C   UNL     1      -7.916  13.018  22.355  0.00  0.00    +0.000 C 
ATOM     17  O   UNL     1      -7.481  12.705  23.689  0.00  0.00    +0.000 OA
ENDROOT
BRANCH   1  21
ATOM     18  C   UNL     1       0.742  11.667  19.531  0.00  0.00    +0.000 A 
ATOM     19  C   UNL     1      -0.417  12.368  19.214  0.00  0.00    +0.000 A 
ATOM     20  C   UNL     1      -1.395  12.599  20.187  0.00  0.00    +0.000 A 
ATOM     21  C   UNL     1      -1.190  12.194  21.509  0.00  0.00    +0.000 A 
ATOM     22  C   UNL     1      -0.107  11.314  21.767  0.00  0.00    +0.000 A 
ATOM     23  C   UNL     1       0.853  11.062  20.780  0.00  0.00    +0.000 A 
BRANCH  18  25
ATOM     24  C   UNL     1       2.317  12.853  18.250  0.00  0.00    +0.000 C 
ATOM     25  O   UNL     1       1.698  11.602  18.553  0.00  0.00    +0.000 OA
ENDBRANCH  18  25
BRANCH  22  26
ATOM     26  O   UNL     1      -0.076  10.765  23.025  0.00  0.00    +0.000 OA
ATOM     27  C   UNL     1      -0.250   9.359  23.136  0.00  0.00    +0.000 C 
ENDBRANCH  22  26
ENDBRANCH   1  21
TORSDOF 3
ENDMDL
MODEL 9
REMARK VINA RESULT:      -5.9      1.501      1.985
REMARK  Name = 
REMARK  5 active torsions:
REMARK  status: ('A' for Active; 'I' for Inactive)
REMARK    1  A    between atoms: C_1  and  O_2
REMARK    2  A    between atoms: O_2  and  C_3
REMARK    3  A    between atoms: C_6  and  C_7
REMARK    4  A    between atoms: C_24  and  O_25
REMARK    5  A    between atoms: O_25  and  C_26
REMARK                            x       y       z     vdW  Elec       q    Type
REMARK                         _______ _______ _______ _____ _____    ______ ____
ROOT
ATOM      1  C   UNL     1      -0.664  12.315  20.601  0.00  0.00    +0.000 C 
ATOM      2  C   UNL     1       0.009  13.606  20.240  0.00  0.00    +0.000 C 
ATOM      3  C   UNL     1      -0.571  14.709  20.746  0.00  0.00    +0.000 C 
ATOM      4  C   UNL     1      -0.736  15.676  19.639  0.00  0.00    +0.000 C 
ATOM      5  O   UNL     1       0.227  15.264  18.677  0.00  0.00    +0.000 OA
ATOM      6  C   UNL     1       0.717  14.031  19.058  0.00  0.00    +0.000 C 
ATOM      7  O   UNL     1       1.629  13.471  18.494  0.00  0.00    +0.000 OA
ATOM      8  O   UNL     1      -1.489  14.657  21.803  0.00  0.00    +0.000 OA
ATOM      9  C   UNL     1      -2.452  13.646  21.645  0.00  0.00    +0.000 A 
ATOM     10  C   UNL     1      -3.727  13.975  22.073  0.00  0.00    +0.000 A 
ATOM     11  C   UNL     1      -4.719  13.580  21.221  0.00  0.00    +0.000 A 
ATOM     12  C   UNL     1      -4.444  12.877  20.061  0.00  0.00    +0.000 A 
ATOM     13  C   UNL     1      -3.183  12.350  19.779  0.00  0.00    +0.000 A 
ATOM     14  C   UNL     1      -2.166  12.639  20.681  0.00  0.00    +0.000 A 
ATOM     15  O   UNL     1      -5.527  12.857  19.232  0.00  0.00    +0.000 OA
ATOM     16  C   UNL     1      -6.517  13.537  20.041  0.00  0.00    +0.000 C 
ATOM     17  O   UNL     1      -6.013  13.982  21.312  0.00  0.00    +0.000 OA
ENDROOT
BRANCH   1  21
ATOM     18  C   UNL     1       1.438   8.975  18.917  0.00  0.00    +0.000 A 
ATOM     19  C   UNL     1       0.515   9.656  18.131  0.00  0.00    +0.000 A 
ATOM     20  C   UNL     1      -0.317  10.628  18.696  0.00  0.00    +0.000 A 
ATOM     21  C   UNL     1      -0.185  10.981  20.042  0.00  0.00    +0.000 A 
ATOM     22  C   UNL     1       0.612  10.144  20.865  0.00  0.00    +0.000 A 
ATOM     23  C   UNL     1       1.422   9.152  20.298  0.00  0.00    +0.000 A 
BRANCH  18  25
ATOM     24  C   UNL     1       2.573   6.916  18.941  0.00  0.00    +0.000 C 
ATOM     25  O   UNL     1       2.298   8.139  18.257  0.00  0.00    +0.000 OA
ENDBRANCH  18  25
BRANCH  22  26
ATOM     26  O   UNL     1       0.535  10.392  22.214  0.00  0.00    +0.000 OA
ATOM     27  C   UNL     1      -0.295   9.543  22.995  0.00  0.00    +0.000 C 
ENDBRANCH  22  26
ENDBRANCH   1  21
TORSDOF 3
ENDMDL
