MODEL 1
REMARK VINA RESULT:      -8.1      0.000      0.000
REMARK  Name = 
REMARK  10 active torsions:
REMARK  status: ('A' for Active; 'I' for Inactive)
REMARK    1  A    between atoms: C_1  and  O_2
REMARK    2  A    between atoms: O_2  and  C_3
REMARK    3  A    between atoms: C_6  and  N_7
REMARK    4  A    between atoms: N_10  and  C_11
REMARK    5  A    between atoms: C_11  and  C_12
REMARK    6  A    between atoms: N_21  and  C_22
REMARK    7  A    between atoms: N_23  and  C_24
REMARK    8  A    between atoms: C_24  and  C_25
REMARK    9  A    between atoms: C_25  and  C_26
REMARK   10  A    between atoms: C_26  and  C_27
REMARK                            x       y       z     vdW  Elec       q    Type
REMARK                         _______ _______ _______ _____ _____    ______ ____
ROOT
ATOM      1  C   UNL     1       2.652   6.400  18.533  0.00  0.00    +0.000 A 
ATOM      2  N   UNL     1       2.145   5.575  19.437  0.00  0.00    +0.000 NA
ATOM      3  C   UNL     1       3.097   4.627  19.639  0.00  0.00    +0.000 A 
ATOM      4  C   UNL     1       4.216   4.867  18.894  0.00  0.00    +0.000 A 
ATOM      5  C   UNL     1       5.354   4.014  18.977  0.00  0.00    +0.000 A 
ATOM      6  O   UNL     1       6.461   4.241  18.493  0.00  0.00    +0.000 OA
ATOM      7  N   UNL     1       5.126   2.877  19.720  0.00  0.00    +0.000 N 
ATOM      8  C   UNL     1       4.058   2.650  20.565  0.00  0.00    +0.000 A 
ATOM      9  O   UNL     1       4.103   1.678  21.329  0.00  0.00    +0.000 OA
ATOM     10  N   UNL     1       3.008   3.554  20.511  0.00  0.00    +0.000 N 
ATOM     11  C   UNL     1       1.871   3.402  21.398  0.00  0.00    +0.000 C 
ATOM     12  N   UNL     1       3.946   6.024  18.191  0.00  0.00    +0.000 N 
ATOM     13  H   UNL     1       5.901   2.241  19.821  0.00  0.00    +0.000 HD
ENDROOT
BRANCH   1  14
ATOM     14  C   UNL     1       1.888   7.565  17.933  0.00  0.00    +0.000 C 
BRANCH  14  18
ATOM     15  N   UNL     1      -0.084   9.839  19.909  0.00  0.00    +0.000 N 
ATOM     16  C   UNL     1      -0.079   9.941  18.441  0.00  0.00    +0.000 C 
ATOM     17  C   UNL     1       1.366   9.947  17.873  0.00  0.00    +0.000 C 
ATOM     18  N   UNL     1       2.286   8.907  18.414  0.00  0.00    +0.000 NA
ATOM     19  C   UNL     1       2.235   9.019  19.892  0.00  0.00    +0.000 C 
ATOM     20  C   UNL     1       0.826   8.848  20.500  0.00  0.00    +0.000 C 
BRANCH  15  24
ATOM     21  C   UNL     1      -2.179  12.543  22.381  0.00  0.00    +0.000 A 
ATOM     22  C   UNL     1      -2.241  12.658  20.996  0.00  0.00    +0.000 A 
ATOM     23  C   UNL     1      -1.552  11.752  20.181  0.00  0.00    +0.000 A 
ATOM     24  C   UNL     1      -0.764  10.724  20.721  0.00  0.00    +0.000 A 
ATOM     25  C   UNL     1      -0.710  10.638  22.116  0.00  0.00    +0.000 A 
ATOM     26  C   UNL     1      -1.405  11.532  22.940  0.00  0.00    +0.000 A 
BRANCH  21  28
ATOM     27  C   UNL     1      -4.274  13.250  23.193  0.00  0.00    +0.000 C 
ATOM     28  O   UNL     1      -2.874  13.483  23.088  0.00  0.00    +0.000 OA
ENDBRANCH  21  28
ENDBRANCH  15  24
ENDBRANCH  14  18
ENDBRANCH   1  14
BRANCH  12  29
ATOM     29  C   UNL     1       4.872   6.781  17.359  0.00  0.00    +0.000 C 
BRANCH  29  30
ATOM     30  C   UNL     1       5.066   6.248  15.940  0.00  0.00    +0.000 C 
BRANCH  30  31
ATOM     31  C   UNL     1       6.476   5.684  15.722  0.00  0.00    +0.000 C 
BRANCH  31  32
ATOM     32  C   UNL     1       6.555   4.950  14.405  0.00  0.00    +0.000 A 
ATOM     33  C   UNL     1       7.590   5.230  13.502  0.00  0.00    +0.000 A 
ATOM     34  C   UNL     1       7.632   4.604  12.255  0.00  0.00    +0.000 A 
ATOM     35  C   UNL     1       6.642   3.690  11.899  0.00  0.00    +0.000 A 
ATOM     36  C   UNL     1       5.609   3.402  12.788  0.00  0.00    +0.000 A 
ATOM     37  C   UNL     1       5.563   4.031  14.035  0.00  0.00    +0.000 A 
ENDBRANCH  31  32
ENDBRANCH  30  31
ENDBRANCH  29  30
ENDBRANCH  12  29
TORSDOF 8
ENDMDL
MODEL 2
REMARK VINA RESULT:      -8.0      0.401      1.201
REMARK  Name = 
REMARK  10 active torsions:
REMARK  status: ('A' for Active; 'I' for Inactive)
REMARK    1  A    between atoms: C_1  and  O_2
REMARK    2  A    between atoms: O_2  and  C_3
REMARK    3  A    between atoms: C_6  and  N_7
REMARK    4  A    between atoms: N_10  and  C_11
REMARK    5  A    between atoms: C_11  and  C_12
REMARK    6  A    between atoms: N_21  and  C_22
REMARK    7  A    between atoms: N_23  and  C_24
REMARK    8  A    between atoms: C_24  and  C_25
REMARK    9  A    between atoms: C_25  and  C_26
REMARK   10  A    between atoms: C_26  and  C_27
REMARK                            x       y       z     vdW  Elec       q    Type
REMARK                         _______ _______ _______ _____ _____    ______ ____
ROOT
ATOM      1  C   UNL     1       2.623   6.406  18.631  0.00  0.00    +0.000 A 
ATOM      2  N   UNL     1       2.109   5.573  19.524  0.00  0.00    +0.000 NA
ATOM      3  C   UNL     1       3.056   4.617  19.715  0.00  0.00    +0.000 A 
ATOM      4  C   UNL     1       4.177   4.859  18.973  0.00  0.00    +0.000 A 
ATOM      5  C   UNL     1       5.309   3.998  19.047  0.00  0.00    +0.000 A 
ATOM      6  O   UNL     1       6.418   4.224  18.567  0.00  0.00    +0.000 OA
ATOM      7  N   UNL     1       5.074   2.853  19.775  0.00  0.00    +0.000 N 
ATOM      8  C   UNL     1       4.003   2.621  20.616  0.00  0.00    +0.000 A 
ATOM      9  O   UNL     1       4.042   1.640  21.367  0.00  0.00    +0.000 OA
ATOM     10  N   UNL     1       2.959   3.533  20.572  0.00  0.00    +0.000 N 
ATOM     11  C   UNL     1       1.820   3.376  21.456  0.00  0.00    +0.000 C 
ATOM     12  N   UNL     1       3.915   6.027  18.285  0.00  0.00    +0.000 N 
ATOM     13  H   UNL     1       5.845   2.211  19.868  0.00  0.00    +0.000 HD
ENDROOT
BRANCH   1  14
ATOM     14  C   UNL     1       1.866   7.583  18.046  0.00  0.00    +0.000 C 
BRANCH  14  18
ATOM     15  N   UNL     1      -0.143   9.938  19.884  0.00  0.00    +0.000 N 
ATOM     16  C   UNL     1      -0.050  10.025  18.418  0.00  0.00    +0.000 C 
ATOM     17  C   UNL     1       1.425   9.980  17.935  0.00  0.00    +0.000 C 
ATOM     18  N   UNL     1       2.279   8.917  18.537  0.00  0.00    +0.000 NA
ATOM     19  C   UNL     1       2.146   9.046  20.009  0.00  0.00    +0.000 C 
ATOM     20  C   UNL     1       0.699   8.925  20.536  0.00  0.00    +0.000 C 
BRANCH  15  24
ATOM     21  C   UNL     1      -2.259  12.735  22.231  0.00  0.00    +0.000 A 
ATOM     22  C   UNL     1      -1.491  11.745  22.834  0.00  0.00    +0.000 A 
ATOM     23  C   UNL     1      -0.783  10.825  22.050  0.00  0.00    +0.000 A 
ATOM     24  C   UNL     1      -0.840  10.852  20.648  0.00  0.00    +0.000 A 
ATOM     25  C   UNL     1      -1.629  11.851  20.069  0.00  0.00    +0.000 A 
ATOM     26  C   UNL     1      -2.331  12.782  20.844  0.00  0.00    +0.000 A 
BRANCH  21  28
ATOM     27  C   UNL     1      -2.820  14.958  22.769  0.00  0.00    +0.000 C 
ATOM     28  O   UNL     1      -2.923  13.574  23.082  0.00  0.00    +0.000 OA
ENDBRANCH  21  28
ENDBRANCH  15  24
ENDBRANCH  14  18
ENDBRANCH   1  14
BRANCH  12  29
ATOM     29  C   UNL     1       4.847   6.788  17.464  0.00  0.00    +0.000 C 
BRANCH  29  30
ATOM     30  C   UNL     1       5.024   6.284  16.032  0.00  0.00    +0.000 C 
BRANCH  30  31
ATOM     31  C   UNL     1       6.406   5.656  15.808  0.00  0.00    +0.000 C 
BRANCH  31  32
ATOM     32  C   UNL     1       6.473   4.996  14.452  0.00  0.00    +0.000 A 
ATOM     33  C   UNL     1       5.501   4.061  14.073  0.00  0.00    +0.000 A 
ATOM     34  C   UNL     1       5.594   3.397  12.848  0.00  0.00    +0.000 A 
ATOM     35  C   UNL     1       6.658   3.662  11.989  0.00  0.00    +0.000 A 
ATOM     36  C   UNL     1       7.631   4.591  12.354  0.00  0.00    +0.000 A 
ATOM     37  C   UNL     1       7.542   5.253  13.581  0.00  0.00    +0.000 A 
ENDBRANCH  31  32
ENDBRANCH  30  31
ENDBRANCH  29  30
ENDBRANCH  12  29
TORSDOF 8
ENDMDL
MODEL 3
REMARK VINA RESULT:      -7.7      3.771     11.197
REMARK  Name = 
REMARK  10 active torsions:
REMARK  status: ('A' for Active; 'I' for Inactive)
REMARK    1  A    between atoms: C_1  and  O_2
REMARK    2  A    between atoms: O_2  and  C_3
REMARK    3  A    between atoms: C_6  and  N_7
REMARK    4  A    between atoms: N_10  and  C_11
REMARK    5  A    between atoms: C_11  and  C_12
REMARK    6  A    between atoms: N_21  and  C_22
REMARK    7  A    between atoms: N_23  and  C_24
REMARK    8  A    between atoms: C_24  and  C_25
REMARK    9  A    between atoms: C_25  and  C_26
REMARK   10  A    between atoms: C_26  and  C_27
REMARK                            x       y       z     vdW  Elec       q    Type
REMARK                         _______ _______ _______ _____ _____    ______ ____
ROOT
ATOM      1  C   UNL     1       1.064  12.852  20.215  0.00  0.00    +0.000 A 
ATOM      2  N   UNL     1       2.099  13.434  19.628  0.00  0.00    +0.000 NA
ATOM      3  C   UNL     1       1.637  14.631  19.181  0.00  0.00    +0.000 A 
ATOM      4  C   UNL     1       0.325  14.823  19.511  0.00  0.00    +0.000 A 
ATOM      5  C   UNL     1      -0.352  16.027  19.168  0.00  0.00    +0.000 A 
ATOM      6  O   UNL     1      -1.462  16.370  19.571  0.00  0.00    +0.000 OA
ATOM      7  N   UNL     1       0.385  16.850  18.345  0.00  0.00    +0.000 N 
ATOM      8  C   UNL     1       1.736  16.744  18.078  0.00  0.00    +0.000 A 
ATOM      9  O   UNL     1       2.300  17.679  17.498  0.00  0.00    +0.000 OA
ATOM     10  N   UNL     1       2.375  15.589  18.505  0.00  0.00    +0.000 N 
ATOM     11  C   UNL     1       3.800  15.427  18.294  0.00  0.00    +0.000 C 
ATOM     12  N   UNL     1      -0.048  13.686  20.199  0.00  0.00    +0.000 N 
ATOM     13  H   UNL     1      -0.042  17.722  18.079  0.00  0.00    +0.000 HD
ENDROOT
BRANCH   1  14
ATOM     14  C   UNL     1       1.099  11.444  20.780  0.00  0.00    +0.000 C 
BRANCH  14  18
ATOM     15  N   UNL     1       1.830   8.014  19.968  0.00  0.00    +0.000 N 
ATOM     16  C   UNL     1       2.036   9.075  18.970  0.00  0.00    +0.000 C 
ATOM     17  C   UNL     1       0.790   9.992  18.845  0.00  0.00    +0.000 C 
ATOM     18  N   UNL     1       0.198  10.470  20.126  0.00  0.00    +0.000 NA
ATOM     19  C   UNL     1      -0.039   9.267  20.961  0.00  0.00    +0.000 C 
ATOM     20  C   UNL     1       1.222   8.422  21.243  0.00  0.00    +0.000 C 
BRANCH  15  24
ATOM     21  C   UNL     1       2.413   3.917  19.139  0.00  0.00    +0.000 A 
ATOM     22  C   UNL     1       1.952   4.327  20.386  0.00  0.00    +0.000 A 
ATOM     23  C   UNL     1       1.751   5.687  20.652  0.00  0.00    +0.000 A 
ATOM     24  C   UNL     1       2.027   6.676  19.694  0.00  0.00    +0.000 A 
ATOM     25  C   UNL     1       2.499   6.236  18.454  0.00  0.00    +0.000 A 
ATOM     26  C   UNL     1       2.692   4.878  18.174  0.00  0.00    +0.000 A 
BRANCH  21  28
ATOM     27  C   UNL     1       2.590   2.113  17.636  0.00  0.00    +0.000 C 
ATOM     28  O   UNL     1       2.590   2.571  18.983  0.00  0.00    +0.000 OA
ENDBRANCH  21  28
ENDBRANCH  15  24
ENDBRANCH  14  18
ENDBRANCH   1  14
BRANCH  12  29
ATOM     29  C   UNL     1      -1.310  13.454  20.889  0.00  0.00    +0.000 C 
BRANCH  29  30
ATOM     30  C   UNL     1      -2.453  12.941  20.014  0.00  0.00    +0.000 C 
BRANCH  30  31
ATOM     31  C   UNL     1      -3.823  13.152  20.671  0.00  0.00    +0.000 C 
BRANCH  31  32
ATOM     32  C   UNL     1      -4.882  12.346  19.958  0.00  0.00    +0.000 A 
ATOM     33  C   UNL     1      -6.095  12.054  20.596  0.00  0.00    +0.000 A 
ATOM     34  C   UNL     1      -7.052  11.253  19.970  0.00  0.00    +0.000 A 
ATOM     35  C   UNL     1      -6.807  10.738  18.699  0.00  0.00    +0.000 A 
ATOM     36  C   UNL     1      -5.605  11.022  18.053  0.00  0.00    +0.000 A 
ATOM     37  C   UNL     1      -4.645  11.820  18.681  0.00  0.00    +0.000 A 
ENDBRANCH  31  32
ENDBRANCH  30  31
ENDBRANCH  29  30
ENDBRANCH  12  29
TORSDOF 8
ENDMDL
MODEL 4
REMARK VINA RESULT:      -7.7      4.319     11.281
REMARK  Name = 
REMARK  10 active torsions:
REMARK  status: ('A' for Active; 'I' for Inactive)
REMARK    1  A    between atoms: C_1  and  O_2
REMARK    2  A    between atoms: O_2  and  C_3
REMARK    3  A    between atoms: C_6  and  N_7
REMARK    4  A    between atoms: N_10  and  C_11
REMARK    5  A    between atoms: C_11  and  C_12
REMARK    6  A    between atoms: N_21  and  C_22
REMARK    7  A    between atoms: N_23  and  C_24
REMARK    8  A    between atoms: C_24  and  C_25
REMARK    9  A    between atoms: C_25  and  C_26
REMARK   10  A    between atoms: C_26  and  C_27
REMARK                            x       y       z     vdW  Elec       q    Type
REMARK                         _______ _______ _______ _____ _____    ______ ____
ROOT
ATOM      1  C   UNL     1      -1.914  14.512  21.838  0.00  0.00    +0.000 A 
ATOM      2  N   UNL     1      -1.774  15.499  22.712  0.00  0.00    +0.000 NA
ATOM      3  C   UNL     1      -2.994  15.646  23.292  0.00  0.00    +0.000 A 
ATOM      4  C   UNL     1      -3.895  14.738  22.815  0.00  0.00    +0.000 A 
ATOM      5  C   UNL     1      -5.229  14.692  23.311  0.00  0.00    +0.000 A 
ATOM      6  O   UNL     1      -6.053  13.808  23.084  0.00  0.00    +0.000 OA
ATOM      7  N   UNL     1      -5.532  15.742  24.150  0.00  0.00    +0.000 N 
ATOM      8  C   UNL     1      -4.631  16.612  24.733  0.00  0.00    +0.000 A 
ATOM      9  O   UNL     1      -5.030  17.362  25.631  0.00  0.00    +0.000 OA
ATOM     10  N   UNL     1      -3.323  16.563  24.277  0.00  0.00    +0.000 N 
ATOM     11  C   UNL     1      -2.314  17.419  24.871  0.00  0.00    +0.000 C 
ATOM     12  N   UNL     1      -3.200  13.985  21.889  0.00  0.00    +0.000 N 
ATOM     13  H   UNL     1      -6.461  15.755  24.540  0.00  0.00    +0.000 HD
ENDROOT
BRANCH   1  14
ATOM     14  C   UNL     1      -0.819  14.066  20.889  0.00  0.00    +0.000 C 
BRANCH  14  18
ATOM     15  N   UNL     1       0.581  10.924  19.825  0.00  0.00    +0.000 N 
ATOM     16  C   UNL     1      -0.468  10.961  20.856  0.00  0.00    +0.000 C 
ATOM     17  C   UNL     1      -0.139  11.989  21.971  0.00  0.00    +0.000 C 
ATOM     18  N   UNL     1       0.307  13.334  21.510  0.00  0.00    +0.000 NA
ATOM     19  C   UNL     1       1.429  13.111  20.566  0.00  0.00    +0.000 C 
ATOM     20  C   UNL     1       1.080  12.224  19.352  0.00  0.00    +0.000 C 
BRANCH  15  24
ATOM     21  C   UNL     1       2.469   7.350  18.615  0.00  0.00    +0.000 A 
ATOM     22  C   UNL     1       1.991   7.491  19.914  0.00  0.00    +0.000 A 
ATOM     23  C   UNL     1       1.356   8.676  20.306  0.00  0.00    +0.000 A 
ATOM     24  C   UNL     1       1.203   9.759  19.426  0.00  0.00    +0.000 A 
ATOM     25  C   UNL     1       1.703   9.593  18.131  0.00  0.00    +0.000 A 
ATOM     26  C   UNL     1       2.329   8.408  17.725  0.00  0.00    +0.000 A 
BRANCH  21  28
ATOM     27  C   UNL     1       2.211   5.088  18.011  0.00  0.00    +0.000 C 
ATOM     28  O   UNL     1       3.086   6.163  18.335  0.00  0.00    +0.000 OA
ENDBRANCH  21  28
ENDBRANCH  15  24
ENDBRANCH  14  18
ENDBRANCH   1  14
BRANCH  12  29
ATOM     29  C   UNL     1      -3.671  12.792  21.198  0.00  0.00    +0.000 C 
BRANCH  29  30
ATOM     30  C   UNL     1      -4.099  12.999  19.746  0.00  0.00    +0.000 C 
BRANCH  30  31
ATOM     31  C   UNL     1      -4.771  11.752  19.158  0.00  0.00    +0.000 C 
BRANCH  31  32
ATOM     32  C   UNL     1      -3.987  11.237  17.975  0.00  0.00    +0.000 A 
ATOM     33  C   UNL     1      -4.555  11.247  16.694  0.00  0.00    +0.000 A 
ATOM     34  C   UNL     1      -3.863  10.711  15.607  0.00  0.00    +0.000 A 
ATOM     35  C   UNL     1      -2.596  10.161  15.788  0.00  0.00    +0.000 A 
ATOM     36  C   UNL     1      -2.020  10.146  17.057  0.00  0.00    +0.000 A 
ATOM     37  C   UNL     1      -2.713  10.678  18.147  0.00  0.00    +0.000 A 
ENDBRANCH  31  32
ENDBRANCH  30  31
ENDBRANCH  29  30
ENDBRANCH  12  29
TORSDOF 8
ENDMDL
MODEL 5
REMARK VINA RESULT:      -7.6      3.079      6.000
REMARK  Name = 
REMARK  10 active torsions:
REMARK  status: ('A' for Active; 'I' for Inactive)
REMARK    1  A    between atoms: C_1  and  O_2
REMARK    2  A    between atoms: O_2  and  C_3
REMARK    3  A    between atoms: C_6  and  N_7
REMARK    4  A    between atoms: N_10  and  C_11
REMARK    5  A    between atoms: C_11  and  C_12
REMARK    6  A    between atoms: N_21  and  C_22
REMARK    7  A    between atoms: N_23  and  C_24
REMARK    8  A    between atoms: C_24  and  C_25
REMARK    9  A    between atoms: C_25  and  C_26
REMARK   10  A    between atoms: C_26  and  C_27
REMARK                            x       y       z     vdW  Elec       q    Type
REMARK                         _______ _______ _______ _____ _____    ______ ____
ROOT
ATOM      1  C   UNL     1       1.250   7.666  20.555  0.00  0.00    +0.000 A 
ATOM      2  N   UNL     1       1.467   6.457  21.050  0.00  0.00    +0.000 NA
ATOM      3  C   UNL     1       2.290   5.842  20.161  0.00  0.00    +0.000 A 
ATOM      4  C   UNL     1       2.621   6.667  19.123  0.00  0.00    +0.000 A 
ATOM      5  C   UNL     1       3.503   6.235  18.092  0.00  0.00    +0.000 A 
ATOM      6  O   UNL     1       4.001   6.950  17.224  0.00  0.00    +0.000 OA
ATOM      7  N   UNL     1       3.813   4.896  18.167  0.00  0.00    +0.000 N 
ATOM      8  C   UNL     1       3.586   4.061  19.245  0.00  0.00    +0.000 A 
ATOM      9  O   UNL     1       4.114   2.943  19.249  0.00  0.00    +0.000 OA
ATOM     10  N   UNL     1       2.790   4.554  20.267  0.00  0.00    +0.000 N 
ATOM     11  C   UNL     1       2.542   3.749  21.447  0.00  0.00    +0.000 C 
ATOM     12  N   UNL     1       1.971   7.857  19.381  0.00  0.00    +0.000 N 
ATOM     13  H   UNL     1       4.442   4.537  17.467  0.00  0.00    +0.000 HD
ENDROOT
BRANCH   1  14
ATOM     14  C   UNL     1       0.303   8.674  21.178  0.00  0.00    +0.000 C 
BRANCH  14  18
ATOM     15  N   UNL     1      -1.192  11.614  22.622  0.00  0.00    +0.000 N 
ATOM     16  C   UNL     1      -0.323  11.725  21.439  0.00  0.00    +0.000 C 
ATOM     17  C   UNL     1       1.014  10.962  21.638  0.00  0.00    +0.000 C 
ATOM     18  N   UNL     1       0.904   9.579  22.183  0.00  0.00    +0.000 NA
ATOM     19  C   UNL     1       0.091   9.672  23.421  0.00  0.00    +0.000 C 
ATOM     20  C   UNL     1      -1.315  10.277  23.221  0.00  0.00    +0.000 C 
BRANCH  15  24
ATOM     21  C   UNL     1      -2.849  14.976  24.560  0.00  0.00    +0.000 A 
ATOM     22  C   UNL     1      -1.544  15.010  24.079  0.00  0.00    +0.000 A 
ATOM     23  C   UNL     1      -1.003  13.895  23.428  0.00  0.00    +0.000 A 
ATOM     24  C   UNL     1      -1.736  12.709  23.260  0.00  0.00    +0.000 A 
ATOM     25  C   UNL     1      -3.041  12.700  23.764  0.00  0.00    +0.000 A 
ATOM     26  C   UNL     1      -3.595  13.814  24.405  0.00  0.00    +0.000 A 
BRANCH  21  28
ATOM     27  C   UNL     1      -2.257  17.035  25.538  0.00  0.00    +0.000 C 
ATOM     28  O   UNL     1      -3.280  16.109  25.192  0.00  0.00    +0.000 OA
ENDBRANCH  21  28
ENDBRANCH  15  24
ENDBRANCH  14  18
ENDBRANCH   1  14
BRANCH  12  29
ATOM     29  C   UNL     1       2.111   9.109  18.649  0.00  0.00    +0.000 C 
BRANCH  29  30
ATOM     30  C   UNL     1       0.937   9.473  17.740  0.00  0.00    +0.000 C 
BRANCH  30  31
ATOM     31  C   UNL     1       0.252  10.774  18.176  0.00  0.00    +0.000 C 
BRANCH  31  32
ATOM     32  C   UNL     1      -1.231  10.708  17.903  0.00  0.00    +0.000 A 
ATOM     33  C   UNL     1      -1.737   9.796  16.967  0.00  0.00    +0.000 A 
ATOM     34  C   UNL     1      -3.099   9.776  16.660  0.00  0.00    +0.000 A 
ATOM     35  C   UNL     1      -3.969  10.664  17.288  0.00  0.00    +0.000 A 
ATOM     36  C   UNL     1      -3.480  11.574  18.223  0.00  0.00    +0.000 A 
ATOM     37  C   UNL     1      -2.116  11.599  18.527  0.00  0.00    +0.000 A 
ENDBRANCH  31  32
ENDBRANCH  30  31
ENDBRANCH  29  30
ENDBRANCH  12  29
TORSDOF 8
ENDMDL
MODEL 6
REMARK VINA RESULT:      -7.6      1.853      4.221
REMARK  Name = 
REMARK  10 active torsions:
REMARK  status: ('A' for Active; 'I' for Inactive)
REMARK    1  A    between atoms: C_1  and  O_2
REMARK    2  A    between atoms: O_2  and  C_3
REMARK    3  A    between atoms: C_6  and  N_7
REMARK    4  A    between atoms: N_10  and  C_11
REMARK    5  A    between atoms: C_11  and  C_12
REMARK    6  A    between atoms: N_21  and  C_22
REMARK    7  A    between atoms: N_23  and  C_24
REMARK    8  A    between atoms: C_24  and  C_25
REMARK    9  A    between atoms: C_25  and  C_26
REMARK   10  A    between atoms: C_26  and  C_27
REMARK                            x       y       z     vdW  Elec       q    Type
REMARK                         _______ _______ _______ _____ _____    ______ ____
ROOT
ATOM      1  C   UNL     1       2.885   7.032  18.371  0.00  0.00    +0.000 A 
ATOM      2  N   UNL     1       3.592   7.025  17.251  0.00  0.00    +0.000 NA
ATOM      3  C   UNL     1       4.588   6.123  17.456  0.00  0.00    +0.000 A 
ATOM      4  C   UNL     1       4.495   5.536  18.686  0.00  0.00    +0.000 A 
ATOM      5  C   UNL     1       5.420   4.534  19.097  0.00  0.00    +0.000 A 
ATOM      6  O   UNL     1       5.317   3.824  20.095  0.00  0.00    +0.000 OA
ATOM      7  N   UNL     1       6.472   4.375  18.222  0.00  0.00    +0.000 N 
ATOM      8  C   UNL     1       6.548   4.867  16.933  0.00  0.00    +0.000 A 
ATOM      9  O   UNL     1       7.454   4.460  16.197  0.00  0.00    +0.000 OA
ATOM     10  N   UNL     1       5.576   5.778  16.548  0.00  0.00    +0.000 N 
ATOM     11  C   UNL     1       5.570   6.306  15.198  0.00  0.00    +0.000 C 
ATOM     12  N   UNL     1       3.383   6.102  19.277  0.00  0.00    +0.000 N 
ATOM     13  H   UNL     1       7.153   3.671  18.458  0.00  0.00    +0.000 HD
ENDROOT
BRANCH   1  14
ATOM     14  C   UNL     1       1.721   7.970  18.625  0.00  0.00    +0.000 C 
BRANCH  14  18
ATOM     15  N   UNL     1      -0.575  10.409  19.946  0.00  0.00    +0.000 N 
ATOM     16  C   UNL     1      -0.046  10.548  18.579  0.00  0.00    +0.000 C 
ATOM     17  C   UNL     1       1.498  10.398  18.546  0.00  0.00    +0.000 C 
ATOM     18  N   UNL     1       2.060   9.242  19.301  0.00  0.00    +0.000 NA
ATOM     19  C   UNL     1       1.507   9.320  20.675  0.00  0.00    +0.000 C 
ATOM     20  C   UNL     1      -0.035   9.302  20.748  0.00  0.00    +0.000 C 
BRANCH  15  24
ATOM     21  C   UNL     1      -3.089  13.282  21.744  0.00  0.00    +0.000 A 
ATOM     22  C   UNL     1      -2.181  12.559  22.511  0.00  0.00    +0.000 A 
ATOM     23  C   UNL     1      -1.343  11.614  21.907  0.00  0.00    +0.000 A 
ATOM     24  C   UNL     1      -1.402  11.346  20.530  0.00  0.00    +0.000 A 
ATOM     25  C   UNL     1      -2.332  12.079  19.786  0.00  0.00    +0.000 A 
ATOM     26  C   UNL     1      -3.167  13.035  20.378  0.00  0.00    +0.000 A 
BRANCH  21  28
ATOM     27  C   UNL     1      -3.492  15.534  22.301  0.00  0.00    +0.000 C 
ATOM     28  O   UNL     1      -3.872  14.169  22.428  0.00  0.00    +0.000 OA
ENDBRANCH  21  28
ENDBRANCH  15  24
ENDBRANCH  14  18
ENDBRANCH   1  14
BRANCH  12  29
ATOM     29  C   UNL     1       2.769   5.714  20.540  0.00  0.00    +0.000 C 
BRANCH  29  30
ATOM     30  C   UNL     1       1.265   5.451  20.486  0.00  0.00    +0.000 C 
BRANCH  30  31
ATOM     31  C   UNL     1       0.940   3.952  20.501  0.00  0.00    +0.000 C 
BRANCH  31  32
ATOM     32  C   UNL     1       1.676   3.240  19.390  0.00  0.00    +0.000 A 
ATOM     33  C   UNL     1       2.532   2.170  19.683  0.00  0.00    +0.000 A 
ATOM     34  C   UNL     1       3.266   1.551  18.670  0.00  0.00    +0.000 A 
ATOM     35  C   UNL     1       3.150   1.993  17.354  0.00  0.00    +0.000 A 
ATOM     36  C   UNL     1       2.301   3.054  17.049  0.00  0.00    +0.000 A 
ATOM     37  C   UNL     1       1.569   3.678  18.063  0.00  0.00    +0.000 A 
ENDBRANCH  31  32
ENDBRANCH  30  31
ENDBRANCH  29  30
ENDBRANCH  12  29
TORSDOF 8
ENDMDL
MODEL 7
REMARK VINA RESULT:      -7.6      3.568     10.623
REMARK  Name = 
REMARK  10 active torsions:
REMARK  status: ('A' for Active; 'I' for Inactive)
REMARK    1  A    between atoms: C_1  and  O_2
REMARK    2  A    between atoms: O_2  and  C_3
REMARK    3  A    between atoms: C_6  and  N_7
REMARK    4  A    between atoms: N_10  and  C_11
REMARK    5  A    between atoms: C_11  and  C_12
REMARK    6  A    between atoms: N_21  and  C_22
REMARK    7  A    between atoms: N_23  and  C_24
REMARK    8  A    between atoms: C_24  and  C_25
REMARK    9  A    between atoms: C_25  and  C_26
REMARK   10  A    between atoms: C_26  and  C_27
REMARK                            x       y       z     vdW  Elec       q    Type
REMARK                         _______ _______ _______ _____ _____    ______ ____
ROOT
ATOM      1  C   UNL     1       1.229  12.463  20.490  0.00  0.00    +0.000 A 
ATOM      2  N   UNL     1       2.075  13.025  19.639  0.00  0.00    +0.000 NA
ATOM      3  C   UNL     1       1.612  14.288  19.447  0.00  0.00    +0.000 A 
ATOM      4  C   UNL     1       0.498  14.538  20.196  0.00  0.00    +0.000 A 
ATOM      5  C   UNL     1      -0.134  15.814  20.174  0.00  0.00    +0.000 A 
ATOM      6  O   UNL     1      -1.020  16.193  20.937  0.00  0.00    +0.000 OA
ATOM      7  N   UNL     1       0.379  16.657  19.213  0.00  0.00    +0.000 N 
ATOM      8  C   UNL     1       1.558  16.483  18.514  0.00  0.00    +0.000 A 
ATOM      9  O   UNL     1       1.996  17.427  17.847  0.00  0.00    +0.000 OA
ATOM     10  N   UNL     1       2.185  15.252  18.633  0.00  0.00    +0.000 N 
ATOM     11  C   UNL     1       3.447  15.011  17.960  0.00  0.00    +0.000 C 
ATOM     12  N   UNL     1       0.255  13.370  20.891  0.00  0.00    +0.000 N 
ATOM     13  H   UNL     1      -0.024  17.578  19.158  0.00  0.00    +0.000 HD
ENDROOT
BRANCH   1  14
ATOM     14  C   UNL     1       1.307  11.010  20.917  0.00  0.00    +0.000 C 
BRANCH  14  18
ATOM     15  N   UNL     1       1.849   7.604  19.885  0.00  0.00    +0.000 N 
ATOM     16  C   UNL     1       2.026   8.708  18.929  0.00  0.00    +0.000 C 
ATOM     17  C   UNL     1       0.809   9.673  18.938  0.00  0.00    +0.000 C 
ATOM     18  N   UNL     1       0.326  10.103  20.281  0.00  0.00    +0.000 NA
ATOM     19  C   UNL     1       0.101   8.866  21.070  0.00  0.00    +0.000 C 
ATOM     20  C   UNL     1       1.346   7.965  21.218  0.00  0.00    +0.000 C 
BRANCH  15  24
ATOM     21  C   UNL     1       2.251   3.547  18.793  0.00  0.00    +0.000 A 
ATOM     22  C   UNL     1       2.531   4.556  17.878  0.00  0.00    +0.000 A 
ATOM     23  C   UNL     1       2.406   5.900  18.249  0.00  0.00    +0.000 A 
ATOM     24  C   UNL     1       1.975   6.276  19.531  0.00  0.00    +0.000 A 
ATOM     25  C   UNL     1       1.689   5.241  20.427  0.00  0.00    +0.000 A 
ATOM     26  C   UNL     1       1.823   3.894  20.070  0.00  0.00    +0.000 A 
BRANCH  21  28
ATOM     27  C   UNL     1       3.625   1.639  18.652  0.00  0.00    +0.000 C 
ATOM     28  O   UNL     1       2.390   2.269  18.331  0.00  0.00    +0.000 OA
ENDBRANCH  21  28
ENDBRANCH  15  24
ENDBRANCH  14  18
ENDBRANCH   1  14
BRANCH  12  29
ATOM     29  C   UNL     1      -0.738  13.163  21.937  0.00  0.00    +0.000 C 
BRANCH  29  30
ATOM     30  C   UNL     1      -1.953  12.329  21.532  0.00  0.00    +0.000 C 
BRANCH  30  31
ATOM     31  C   UNL     1      -2.920  13.115  20.638  0.00  0.00    +0.000 C 
BRANCH  31  32
ATOM     32  C   UNL     1      -3.224  12.340  19.378  0.00  0.00    +0.000 A 
ATOM     33  C   UNL     1      -4.547  12.014  19.052  0.00  0.00    +0.000 A 
ATOM     34  C   UNL     1      -4.830  11.241  17.924  0.00  0.00    +0.000 A 
ATOM     35  C   UNL     1      -3.794  10.788  17.110  0.00  0.00    +0.000 A 
ATOM     36  C   UNL     1      -2.474  11.107  17.423  0.00  0.00    +0.000 A 
ATOM     37  C   UNL     1      -2.189  11.877  18.553  0.00  0.00    +0.000 A 
ENDBRANCH  31  32
ENDBRANCH  30  31
ENDBRANCH  29  30
ENDBRANCH  12  29
TORSDOF 8
ENDMDL
MODEL 8
REMARK VINA RESULT:      -7.6      3.578     11.555
REMARK  Name = 
REMARK  10 active torsions:
REMARK  status: ('A' for Active; 'I' for Inactive)
REMARK    1  A    between atoms: C_1  and  O_2
REMARK    2  A    between atoms: O_2  and  C_3
REMARK    3  A    between atoms: C_6  and  N_7
REMARK    4  A    between atoms: N_10  and  C_11
REMARK    5  A    between atoms: C_11  and  C_12
REMARK    6  A    between atoms: N_21  and  C_22
REMARK    7  A    between atoms: N_23  and  C_24
REMARK    8  A    between atoms: C_24  and  C_25
REMARK    9  A    between atoms: C_25  and  C_26
REMARK   10  A    between atoms: C_26  and  C_27
REMARK                            x       y       z     vdW  Elec       q    Type
REMARK                         _______ _______ _______ _____ _____    ______ ____
ROOT
ATOM      1  C   UNL     1       1.193  12.712  20.288  0.00  0.00    +0.000 A 
ATOM      2  N   UNL     1       2.317  13.263  19.855  0.00  0.00    +0.000 NA
ATOM      3  C   UNL     1       1.953  14.460  19.323  0.00  0.00    +0.000 A 
ATOM      4  C   UNL     1       0.611  14.682  19.447  0.00  0.00    +0.000 A 
ATOM      5  C   UNL     1       0.019  15.892  18.986  0.00  0.00    +0.000 A 
ATOM      6  O   UNL     1      -1.132  16.263  19.210  0.00  0.00    +0.000 OA
ATOM      7  N   UNL     1       0.889  16.684  18.270  0.00  0.00    +0.000 N 
ATOM      8  C   UNL     1       2.263  16.547  18.212  0.00  0.00    +0.000 A 
ATOM      9  O   UNL     1       2.928  17.461  17.709  0.00  0.00    +0.000 OA
ATOM     10  N   UNL     1       2.805  15.390  18.750  0.00  0.00    +0.000 N 
ATOM     11  C   UNL     1       4.242  15.197  18.760  0.00  0.00    +0.000 C 
ATOM     12  N   UNL     1       0.114  13.566  20.090  0.00  0.00    +0.000 N 
ATOM     13  H   UNL     1       0.526  17.559  17.928  0.00  0.00    +0.000 HD
ENDROOT
BRANCH   1  14
ATOM     14  C   UNL     1       1.112  11.316  20.876  0.00  0.00    +0.000 C 
BRANCH  14  18
ATOM     15  N   UNL     1       1.788   7.881  20.036  0.00  0.00    +0.000 N 
ATOM     16  C   UNL     1       2.061   8.952  19.065  0.00  0.00    +0.000 C 
ATOM     17  C   UNL     1       0.845   9.903  18.905  0.00  0.00    +0.000 C 
ATOM     18  N   UNL     1       0.213  10.376  20.170  0.00  0.00    +0.000 NA
ATOM     19  C   UNL     1      -0.088   9.166  20.975  0.00  0.00    +0.000 C 
ATOM     20  C   UNL     1       1.139   8.285  21.292  0.00  0.00    +0.000 C 
BRANCH  15  24
ATOM     21  C   UNL     1       2.299   3.784  19.163  0.00  0.00    +0.000 A 
ATOM     22  C   UNL     1       1.864   4.189  20.420  0.00  0.00    +0.000 A 
ATOM     23  C   UNL     1       1.686   5.549  20.701  0.00  0.00    +0.000 A 
ATOM     24  C   UNL     1       1.960   6.542  19.748  0.00  0.00    +0.000 A 
ATOM     25  C   UNL     1       2.407   6.107  18.496  0.00  0.00    +0.000 A 
ATOM     26  C   UNL     1       2.576   4.749  18.201  0.00  0.00    +0.000 A 
BRANCH  21  28
ATOM     27  C   UNL     1       3.163   2.053  17.819  0.00  0.00    +0.000 C 
ATOM     28  O   UNL     1       2.454   2.437  18.992  0.00  0.00    +0.000 OA
ENDBRANCH  21  28
ENDBRANCH  15  24
ENDBRANCH  14  18
ENDBRANCH   1  14
BRANCH  12  29
ATOM     29  C   UNL     1      -1.242  13.371  20.585  0.00  0.00    +0.000 C 
BRANCH  29  30
ATOM     30  C   UNL     1      -1.445  13.649  22.074  0.00  0.00    +0.000 C 
BRANCH  30  31
ATOM     31  C   UNL     1      -1.953  12.414  22.828  0.00  0.00    +0.000 C 
BRANCH  31  32
ATOM     32  C   UNL     1      -3.434  12.532  23.100  0.00  0.00    +0.000 A 
ATOM     33  C   UNL     1      -4.314  12.891  22.070  0.00  0.00    +0.000 A 
ATOM     34  C   UNL     1      -5.675  13.067  22.329  0.00  0.00    +0.000 A 
ATOM     35  C   UNL     1      -6.169  12.885  23.619  0.00  0.00    +0.000 A 
ATOM     36  C   UNL     1      -5.305  12.527  24.651  0.00  0.00    +0.000 A 
ATOM     37  C   UNL     1      -3.942  12.354  24.394  0.00  0.00    +0.000 A 
ENDBRANCH  31  32
ENDBRANCH  30  31
ENDBRANCH  29  30
ENDBRANCH  12  29
TORSDOF 8
ENDMDL
MODEL 9
REMARK VINA RESULT:      -7.5      2.347      4.588
REMARK  Name = 
REMARK  10 active torsions:
REMARK  status: ('A' for Active; 'I' for Inactive)
REMARK    1  A    between atoms: C_1  and  O_2
REMARK    2  A    between atoms: O_2  and  C_3
REMARK    3  A    between atoms: C_6  and  N_7
REMARK    4  A    between atoms: N_10  and  C_11
REMARK    5  A    between atoms: C_11  and  C_12
REMARK    6  A    between atoms: N_21  and  C_22
REMARK    7  A    between atoms: N_23  and  C_24
REMARK    8  A    between atoms: C_24  and  C_25
REMARK    9  A    between atoms: C_25  and  C_26
REMARK   10  A    between atoms: C_26  and  C_27
REMARK                            x       y       z     vdW  Elec       q    Type
REMARK                         _______ _______ _______ _____ _____    ______ ____
ROOT
ATOM      1  C   UNL     1       2.961   7.174  18.573  0.00  0.00    +0.000 A 
ATOM      2  N   UNL     1       3.657   7.226  17.447  0.00  0.00    +0.000 NA
ATOM      3  C   UNL     1       4.599   6.252  17.557  0.00  0.00    +0.000 A 
ATOM      4  C   UNL     1       4.481   5.563  18.731  0.00  0.00    +0.000 A 
ATOM      5  C   UNL     1       5.348   4.475  19.037  0.00  0.00    +0.000 A 
ATOM      6  O   UNL     1       5.211   3.686  19.969  0.00  0.00    +0.000 OA
ATOM      7  N   UNL     1       6.380   4.334  18.137  0.00  0.00    +0.000 N 
ATOM      8  C   UNL     1       6.475   4.935  16.897  0.00  0.00    +0.000 A 
ATOM      9  O   UNL     1       7.348   4.542  16.114  0.00  0.00    +0.000 OA
ATOM     10  N   UNL     1       5.556   5.932  16.608  0.00  0.00    +0.000 N 
ATOM     11  C   UNL     1       5.570   6.579  15.310  0.00  0.00    +0.000 C 
ATOM     12  N   UNL     1       3.410   6.138  19.386  0.00  0.00    +0.000 N 
ATOM     13  H   UNL     1       7.020   3.572  18.299  0.00  0.00    +0.000 HD
ENDROOT
BRANCH   1  14
ATOM     14  C   UNL     1       1.858   8.152  18.927  0.00  0.00    +0.000 C 
BRANCH  14  18
ATOM     15  N   UNL     1       0.394  11.409  19.388  0.00  0.00    +0.000 N 
ATOM     16  C   UNL     1      -0.460  10.241  19.119  0.00  0.00    +0.000 C 
ATOM     17  C   UNL     1       0.051   9.429  17.898  0.00  0.00    +0.000 C 
ATOM     18  N   UNL     1       1.511   9.133  17.874  0.00  0.00    +0.000 NA
ATOM     19  C   UNL     1       2.212  10.428  18.052  0.00  0.00    +0.000 C 
ATOM     20  C   UNL     1       1.846  11.183  19.348  0.00  0.00    +0.000 C 
BRANCH  15  24
ATOM     21  C   UNL     1      -1.123  15.332  19.725  0.00  0.00    +0.000 A 
ATOM     22  C   UNL     1      -0.086  15.049  18.842  0.00  0.00    +0.000 A 
ATOM     23  C   UNL     1       0.406  13.744  18.727  0.00  0.00    +0.000 A 
ATOM     24  C   UNL     1      -0.102  12.691  19.505  0.00  0.00    +0.000 A 
ATOM     25  C   UNL     1      -1.136  13.007  20.392  0.00  0.00    +0.000 A 
ATOM     26  C   UNL     1      -1.644  14.307  20.505  0.00  0.00    +0.000 A 
BRANCH  21  28
ATOM     27  C   UNL     1      -0.562  17.546  20.301  0.00  0.00    +0.000 C 
ATOM     28  O   UNL     1      -1.523  16.638  19.774  0.00  0.00    +0.000 OA
ENDBRANCH  21  28
ENDBRANCH  15  24
ENDBRANCH  14  18
ENDBRANCH   1  14
BRANCH  12  29
ATOM     29  C   UNL     1       2.785   5.675  20.617  0.00  0.00    +0.000 C 
BRANCH  29  30
ATOM     30  C   UNL     1       1.274   5.459  20.546  0.00  0.00    +0.000 C 
BRANCH  30  31
ATOM     31  C   UNL     1       0.903   3.971  20.526  0.00  0.00    +0.000 C 
BRANCH  31  32
ATOM     32  C   UNL     1       1.606   3.266  19.391  0.00  0.00    +0.000 A 
ATOM     33  C   UNL     1       2.388   2.131  19.641  0.00  0.00    +0.000 A 
ATOM     34  C   UNL     1       3.095   1.513  18.607  0.00  0.00    +0.000 A 
ATOM     35  C   UNL     1       3.024   2.022  17.312  0.00  0.00    +0.000 A 
ATOM     36  C   UNL     1       2.248   3.149  17.050  0.00  0.00    +0.000 A 
ATOM     37  C   UNL     1       1.544   3.771  18.084  0.00  0.00    +0.000 A 
ENDBRANCH  31  32
ENDBRANCH  30  31
ENDBRANCH  29  30
ENDBRANCH  12  29
TORSDOF 8
ENDMDL
