MODEL 1
REMARK VINA RESULT:      -7.2      0.000      0.000
REMARK  Name = 
REMARK  9 active torsions:
REMARK  status: ('A' for Active; 'I' for Inactive)
REMARK    1  A    between atoms: C_1  and  C_2
REMARK    2  A    between atoms: C_2  and  C_3
REMARK    3  A    between atoms: C_3  and  C_4
REMARK    4  A    between atoms: C_4  and  C_5
REMARK    5  A    between atoms: C_5  and  C_6
REMARK    6  A    between atoms: C_6  and  O_7
REMARK    7  A    between atoms: C_6  and  C_8
REMARK    8  A    between atoms: C_6  and  C_14
REMARK    9  A    between atoms: C_8  and  N_9
REMARK                            x       y       z     vdW  Elec       q    Type
REMARK                         _______ _______ _______ _____ _____    ______ ____
ROOT
ATOM      1  C   UNL     1       5.672   5.617  16.924  0.00  0.00    +0.000 C 
ENDROOT
BRANCH   1   2
ATOM      2  C   UNL     1       4.273   5.067  17.262  0.00  0.00    +0.000 A 
ATOM      3  C   UNL     1       3.233   5.885  17.754  0.00  0.00    +0.000 A 
ATOM      4  C   UNL     1       1.972   5.364  18.058  0.00  0.00    +0.000 A 
ATOM      5  C   UNL     1       1.723   4.008  17.888  0.00  0.00    +0.000 A 
ATOM      6  C   UNL     1       2.732   3.189  17.405  0.00  0.00    +0.000 A 
ATOM      7  F   UNL     1       2.498   1.879  17.250  0.00  0.00    +0.000 F 
ATOM      8  C   UNL     1       3.987   3.702  17.084  0.00  0.00    +0.000 A 
ENDBRANCH   1   2
BRANCH   1   9
ATOM      9  O   UNL     1       5.445   6.547  15.844  0.00  0.00    +0.000 OA
ATOM     10  H   UNL     1       4.987   6.083  15.124  0.00  0.00    +0.000 HD
ENDBRANCH   1   9
BRANCH   1  11
ATOM     11  C   UNL     1       6.298   6.411  18.107  0.00  0.00    +0.000 C 
BRANCH  11  12
ATOM     12  C   UNL     1       7.762   6.830  17.953  0.00  0.00    +0.000 C 
BRANCH  12  13
ATOM     13  C   UNL     1       7.864   8.317  17.592  0.00  0.00    +0.000 C 
BRANCH  13  15
ATOM     14  C   UNL     1       8.937  10.509  18.241  0.00  0.00    +0.000 C 
ATOM     15  C   UNL     1       8.679   9.068  18.642  0.00  0.00    +0.000 C 
ENDBRANCH  13  15
ENDBRANCH  12  13
ENDBRANCH  11  12
ENDBRANCH   1  11
BRANCH   1  16
ATOM     16  C   UNL     1       6.600   4.497  16.388  0.00  0.00    +0.000 C 
BRANCH  16  17
ATOM     17  N   UNL     1       6.801   4.521  14.961  0.00  0.00    +0.000 N 
ATOM     18  C   UNL     1       6.166   3.780  14.016  0.00  0.00    +0.000 A 
ATOM     19  N   UNL     1       6.637   4.088  12.833  0.00  0.00    +0.000 NA
ATOM     20  C   UNL     1       7.563   5.051  13.110  0.00  0.00    +0.000 A 
ATOM     21  N   UNL     1       7.683   5.369  14.402  0.00  0.00    +0.000 NA
ENDBRANCH  16  17
ENDBRANCH   1  16
TORSDOF 8
ENDMDL
MODEL 2
REMARK VINA RESULT:      -7.1      2.952      4.895
REMARK  Name = 
REMARK  9 active torsions:
REMARK  status: ('A' for Active; 'I' for Inactive)
REMARK    1  A    between atoms: C_1  and  C_2
REMARK    2  A    between atoms: C_2  and  C_3
REMARK    3  A    between atoms: C_3  and  C_4
REMARK    4  A    between atoms: C_4  and  C_5
REMARK    5  A    between atoms: C_5  and  C_6
REMARK    6  A    between atoms: C_6  and  O_7
REMARK    7  A    between atoms: C_6  and  C_8
REMARK    8  A    between atoms: C_6  and  C_14
REMARK    9  A    between atoms: C_8  and  N_9
REMARK                            x       y       z     vdW  Elec       q    Type
REMARK                         _______ _______ _______ _____ _____    ______ ____
ROOT
ATOM      1  C   UNL     1       4.386   4.127  18.218  0.00  0.00    +0.000 C 
ENDROOT
BRANCH   1   2
ATOM      2  C   UNL     1       3.116   3.550  18.874  0.00  0.00    +0.000 A 
ATOM      3  C   UNL     1       2.092   2.928  18.128  0.00  0.00    +0.000 A 
ATOM      4  C   UNL     1       0.947   2.414  18.744  0.00  0.00    +0.000 A 
ATOM      5  C   UNL     1       0.792   2.521  20.121  0.00  0.00    +0.000 A 
ATOM      6  C   UNL     1       1.789   3.127  20.870  0.00  0.00    +0.000 A 
ATOM      7  F   UNL     1       1.638   3.240  22.195  0.00  0.00    +0.000 F 
ATOM      8  C   UNL     1       2.942   3.628  20.267  0.00  0.00    +0.000 A 
ENDBRANCH   1   2
BRANCH   1   9
ATOM      9  O   UNL     1       5.445   3.243  18.638  0.00  0.00    +0.000 OA
ATOM     10  H   UNL     1       6.052   3.107  17.892  0.00  0.00    +0.000 HD
ENDBRANCH   1   9
BRANCH   1  11
ATOM     11  C   UNL     1       4.322   4.083  16.664  0.00  0.00    +0.000 C 
BRANCH  11  12
ATOM     12  C   UNL     1       5.645   3.845  15.930  0.00  0.00    +0.000 C 
BRANCH  12  13
ATOM     13  C   UNL     1       5.702   4.671  14.639  0.00  0.00    +0.000 C 
BRANCH  13  15
ATOM     14  C   UNL     1       5.597   3.384  12.468  0.00  0.00    +0.000 C 
ATOM     15  C   UNL     1       6.494   3.929  13.565  0.00  0.00    +0.000 C 
ENDBRANCH  13  15
ENDBRANCH  12  13
ENDBRANCH  11  12
ENDBRANCH   1  11
BRANCH   1  16
ATOM     16  C   UNL     1       4.710   5.539  18.771  0.00  0.00    +0.000 C 
BRANCH  16  17
ATOM     17  N   UNL     1       6.115   5.855  18.811  0.00  0.00    +0.000 N 
ATOM     18  C   UNL     1       6.818   6.646  17.958  0.00  0.00    +0.000 A 
ATOM     19  N   UNL     1       8.075   6.677  18.329  0.00  0.00    +0.000 NA
ATOM     20  C   UNL     1       8.088   5.887  19.441  0.00  0.00    +0.000 A 
ATOM     21  N   UNL     1       6.903   5.378  19.791  0.00  0.00    +0.000 NA
ENDBRANCH  16  17
ENDBRANCH   1  16
TORSDOF 8
ENDMDL
MODEL 3
REMARK VINA RESULT:      -7.0      1.380      1.752
REMARK  Name = 
REMARK  9 active torsions:
REMARK  status: ('A' for Active; 'I' for Inactive)
REMARK    1  A    between atoms: C_1  and  C_2
REMARK    2  A    between atoms: C_2  and  C_3
REMARK    3  A    between atoms: C_3  and  C_4
REMARK    4  A    between atoms: C_4  and  C_5
REMARK    5  A    between atoms: C_5  and  C_6
REMARK    6  A    between atoms: C_6  and  O_7
REMARK    7  A    between atoms: C_6  and  C_8
REMARK    8  A    between atoms: C_6  and  C_14
REMARK    9  A    between atoms: C_8  and  N_9
REMARK                            x       y       z     vdW  Elec       q    Type
REMARK                         _______ _______ _______ _____ _____    ______ ____
ROOT
ATOM      1  C   UNL     1       5.678   5.908  16.318  0.00  0.00    +0.000 C 
ENDROOT
BRANCH   1   2
ATOM      2  C   UNL     1       4.403   5.446  17.049  0.00  0.00    +0.000 A 
ATOM      3  C   UNL     1       3.871   4.147  16.901  0.00  0.00    +0.000 A 
ATOM      4  C   UNL     1       2.710   3.750  17.572  0.00  0.00    +0.000 A 
ATOM      5  C   UNL     1       2.045   4.648  18.398  0.00  0.00    +0.000 A 
ATOM      6  C   UNL     1       2.554   5.928  18.557  0.00  0.00    +0.000 A 
ATOM      7  F   UNL     1       1.910   6.798  19.345  0.00  0.00    +0.000 F 
ATOM      8  C   UNL     1       3.720   6.327  17.905  0.00  0.00    +0.000 A 
ENDBRANCH   1   2
BRANCH   1   9
ATOM      9  O   UNL     1       5.196   6.547  15.118  0.00  0.00    +0.000 OA
ATOM     10  H   UNL     1       4.246   6.724  15.218  0.00  0.00    +0.000 HD
ENDBRANCH   1   9
BRANCH   1  11
ATOM     11  C   UNL     1       6.475   6.970  17.130  0.00  0.00    +0.000 C 
BRANCH  11  12
ATOM     12  C   UNL     1       7.442   6.437  18.191  0.00  0.00    +0.000 C 
BRANCH  12  13
ATOM     13  C   UNL     1       8.415   7.536  18.634  0.00  0.00    +0.000 C 
BRANCH  13  15
ATOM     14  C   UNL     1       8.821  10.028  18.548  0.00  0.00    +0.000 C 
ATOM     15  C   UNL     1       8.103   8.848  17.917  0.00  0.00    +0.000 C 
ENDBRANCH  13  15
ENDBRANCH  12  13
ENDBRANCH  11  12
ENDBRANCH   1  11
BRANCH   1  16
ATOM     16  C   UNL     1       6.546   4.699  15.886  0.00  0.00    +0.000 C 
BRANCH  16  17
ATOM     17  N   UNL     1       6.825   4.639  14.473  0.00  0.00    +0.000 N 
ATOM     18  C   UNL     1       6.284   3.801  13.551  0.00  0.00    +0.000 A 
ATOM     19  N   UNL     1       6.802   4.056  12.375  0.00  0.00    +0.000 NA
ATOM     20  C   UNL     1       7.659   5.086  12.632  0.00  0.00    +0.000 A 
ATOM     21  N   UNL     1       7.690   5.496  13.903  0.00  0.00    +0.000 NA
ENDBRANCH  16  17
ENDBRANCH   1  16
TORSDOF 8
ENDMDL
MODEL 4
REMARK VINA RESULT:      -7.0      3.135      5.575
REMARK  Name = 
REMARK  9 active torsions:
REMARK  status: ('A' for Active; 'I' for Inactive)
REMARK    1  A    between atoms: C_1  and  C_2
REMARK    2  A    between atoms: C_2  and  C_3
REMARK    3  A    between atoms: C_3  and  C_4
REMARK    4  A    between atoms: C_4  and  C_5
REMARK    5  A    between atoms: C_5  and  C_6
REMARK    6  A    between atoms: C_6  and  O_7
REMARK    7  A    between atoms: C_6  and  C_8
REMARK    8  A    between atoms: C_6  and  C_14
REMARK    9  A    between atoms: C_8  and  N_9
REMARK                            x       y       z     vdW  Elec       q    Type
REMARK                         _______ _______ _______ _____ _____    ______ ____
ROOT
ATOM      1  C   UNL     1       3.397   5.373  18.089  0.00  0.00    +0.000 C 
ENDROOT
BRANCH   1   2
ATOM      2  C   UNL     1       2.707   6.667  18.563  0.00  0.00    +0.000 A 
ATOM      3  C   UNL     1       2.476   7.763  17.705  0.00  0.00    +0.000 A 
ATOM      4  C   UNL     1       1.851   8.929  18.158  0.00  0.00    +0.000 A 
ATOM      5  C   UNL     1       1.452   9.031  19.485  0.00  0.00    +0.000 A 
ATOM      6  C   UNL     1       1.669   7.963  20.342  0.00  0.00    +0.000 A 
ATOM      7  F   UNL     1       1.294   8.063  21.624  0.00  0.00    +0.000 F 
ATOM      8  C   UNL     1       2.276   6.791  19.896  0.00  0.00    +0.000 A 
ENDBRANCH   1   2
BRANCH   1   9
ATOM      9  O   UNL     1       4.151   4.924  19.234  0.00  0.00    +0.000 OA
ATOM     10  H   UNL     1       5.072   5.216  19.135  0.00  0.00    +0.000 HD
ENDBRANCH   1   9
BRANCH   1  11
ATOM     11  C   UNL     1       2.376   4.255  17.728  0.00  0.00    +0.000 C 
BRANCH  11  12
ATOM     12  C   UNL     1       2.229   3.111  18.735  0.00  0.00    +0.000 C 
BRANCH  12  13
ATOM     13  C   UNL     1       0.938   3.271  19.548  0.00  0.00    +0.000 C 
BRANCH  13  15
ATOM     14  C   UNL     1       2.252   3.552  21.687  0.00  0.00    +0.000 C 
ATOM     15  C   UNL     1       1.146   2.787  20.981  0.00  0.00    +0.000 C 
ENDBRANCH  13  15
ENDBRANCH  12  13
ENDBRANCH  11  12
ENDBRANCH   1  11
BRANCH   1  16
ATOM     16  C   UNL     1       4.407   5.662  16.949  0.00  0.00    +0.000 C 
BRANCH  16  17
ATOM     17  N   UNL     1       5.782   5.404  17.292  0.00  0.00    +0.000 N 
ATOM     18  C   UNL     1       6.602   4.444  16.789  0.00  0.00    +0.000 A 
ATOM     19  N   UNL     1       7.777   4.531  17.362  0.00  0.00    +0.000 NA
ATOM     20  C   UNL     1       7.628   5.588  18.212  0.00  0.00    +0.000 A 
ATOM     21  N   UNL     1       6.427   6.173  18.187  0.00  0.00    +0.000 NA
ENDBRANCH  16  17
ENDBRANCH   1  16
TORSDOF 8
ENDMDL
MODEL 5
REMARK VINA RESULT:      -6.9      3.872      5.829
REMARK  Name = 
REMARK  9 active torsions:
REMARK  status: ('A' for Active; 'I' for Inactive)
REMARK    1  A    between atoms: C_1  and  C_2
REMARK    2  A    between atoms: C_2  and  C_3
REMARK    3  A    between atoms: C_3  and  C_4
REMARK    4  A    between atoms: C_4  and  C_5
REMARK    5  A    between atoms: C_5  and  C_6
REMARK    6  A    between atoms: C_6  and  O_7
REMARK    7  A    between atoms: C_6  and  C_8
REMARK    8  A    between atoms: C_6  and  C_14
REMARK    9  A    between atoms: C_8  and  N_9
REMARK                            x       y       z     vdW  Elec       q    Type
REMARK                         _______ _______ _______ _____ _____    ______ ____
ROOT
ATOM      1  C   UNL     1       4.717   4.244  18.273  0.00  0.00    +0.000 C 
ENDROOT
BRANCH   1   2
ATOM      2  C   UNL     1       5.493   4.386  16.949  0.00  0.00    +0.000 A 
ATOM      3  C   UNL     1       6.843   4.794  16.900  0.00  0.00    +0.000 A 
ATOM      4  C   UNL     1       7.527   4.920  15.687  0.00  0.00    +0.000 A 
ATOM      5  C   UNL     1       6.871   4.652  14.491  0.00  0.00    +0.000 A 
ATOM      6  C   UNL     1       5.545   4.248  14.520  0.00  0.00    +0.000 A 
ATOM      7  F   UNL     1       4.909   3.999  13.368  0.00  0.00    +0.000 F 
ATOM      8  C   UNL     1       4.861   4.105  15.725  0.00  0.00    +0.000 A 
ENDBRANCH   1   2
BRANCH   1   9
ATOM      9  O   UNL     1       5.670   3.672  19.192  0.00  0.00    +0.000 OA
ATOM     10  H   UNL     1       5.272   2.888  19.607  0.00  0.00    +0.000 HD
ENDBRANCH   1   9
BRANCH   1  11
ATOM     11  C   UNL     1       4.274   5.620  18.850  0.00  0.00    +0.000 C 
BRANCH  11  12
ATOM     12  C   UNL     1       3.825   6.676  17.837  0.00  0.00    +0.000 C 
BRANCH  12  13
ATOM     13  C   UNL     1       2.490   7.299  18.262  0.00  0.00    +0.000 C 
BRANCH  13  15
ATOM     14  C   UNL     1       1.033   9.352  18.055  0.00  0.00    +0.000 C 
ATOM     15  C   UNL     1       2.399   8.746  17.784  0.00  0.00    +0.000 C 
ENDBRANCH  13  15
ENDBRANCH  12  13
ENDBRANCH  11  12
ENDBRANCH   1  11
BRANCH   1  16
ATOM     16  C   UNL     1       3.545   3.241  18.132  0.00  0.00    +0.000 C 
BRANCH  16  17
ATOM     17  N   UNL     1       2.695   3.149  19.292  0.00  0.00    +0.000 N 
ATOM     18  C   UNL     1       1.386   3.495  19.398  0.00  0.00    +0.000 A 
ATOM     19  N   UNL     1       0.973   3.267  20.621  0.00  0.00    +0.000 NA
ATOM     20  C   UNL     1       2.083   2.758  21.231  0.00  0.00    +0.000 A 
ATOM     21  N   UNL     1       3.159   2.643  20.449  0.00  0.00    +0.000 NA
ENDBRANCH  16  17
ENDBRANCH   1  16
TORSDOF 8
ENDMDL
MODEL 6
REMARK VINA RESULT:      -6.8      3.627      6.237
REMARK  Name = 
REMARK  9 active torsions:
REMARK  status: ('A' for Active; 'I' for Inactive)
REMARK    1  A    between atoms: C_1  and  C_2
REMARK    2  A    between atoms: C_2  and  C_3
REMARK    3  A    between atoms: C_3  and  C_4
REMARK    4  A    between atoms: C_4  and  C_5
REMARK    5  A    between atoms: C_5  and  C_6
REMARK    6  A    between atoms: C_6  and  O_7
REMARK    7  A    between atoms: C_6  and  C_8
REMARK    8  A    between atoms: C_6  and  C_14
REMARK    9  A    between atoms: C_8  and  N_9
REMARK                            x       y       z     vdW  Elec       q    Type
REMARK                         _______ _______ _______ _____ _____    ______ ____
ROOT
ATOM      1  C   UNL     1       4.378   4.628  17.822  0.00  0.00    +0.000 C 
ENDROOT
BRANCH   1   2
ATOM      2  C   UNL     1       5.636   5.501  17.994  0.00  0.00    +0.000 A 
ATOM      3  C   UNL     1       5.834   6.698  17.273  0.00  0.00    +0.000 A 
ATOM      4  C   UNL     1       6.986   7.473  17.442  0.00  0.00    +0.000 A 
ATOM      5  C   UNL     1       7.974   7.062  18.328  0.00  0.00    +0.000 A 
ATOM      6  C   UNL     1       7.795   5.890  19.047  0.00  0.00    +0.000 A 
ATOM      7  F   UNL     1       8.751   5.487  19.894  0.00  0.00    +0.000 F 
ATOM      8  C   UNL     1       6.644   5.119  18.897  0.00  0.00    +0.000 A 
ENDBRANCH   1   2
BRANCH   1   9
ATOM      9  O   UNL     1       3.287   5.570  17.770  0.00  0.00    +0.000 OA
ATOM     10  H   UNL     1       3.637   6.462  17.928  0.00  0.00    +0.000 HD
ENDBRANCH   1   9
BRANCH   1  11
ATOM     11  C   UNL     1       4.383   3.838  16.482  0.00  0.00    +0.000 C 
BRANCH  11  12
ATOM     12  C   UNL     1       5.705   3.807  15.709  0.00  0.00    +0.000 C 
BRANCH  12  13
ATOM     13  C   UNL     1       5.542   4.467  14.334  0.00  0.00    +0.000 C 
BRANCH  13  15
ATOM     14  C   UNL     1       5.704   3.211  12.149  0.00  0.00    +0.000 C 
ATOM     15  C   UNL     1       6.470   3.812  13.314  0.00  0.00    +0.000 C 
ENDBRANCH  13  15
ENDBRANCH  12  13
ENDBRANCH  11  12
ENDBRANCH   1  11
BRANCH   1  16
ATOM     16  C   UNL     1       4.152   3.721  19.059  0.00  0.00    +0.000 C 
BRANCH  16  17
ATOM     17  N   UNL     1       2.784   3.652  19.505  0.00  0.00    +0.000 N 
ATOM     18  C   UNL     1       1.878   2.666  19.274  0.00  0.00    +0.000 A 
ATOM     19  N   UNL     1       0.740   2.978  19.844  0.00  0.00    +0.000 NA
ATOM     20  C   UNL     1       1.009   4.178  20.434  0.00  0.00    +0.000 A 
ATOM     21  N   UNL     1       2.259   4.622  20.275  0.00  0.00    +0.000 NA
ENDBRANCH  16  17
ENDBRANCH   1  16
TORSDOF 8
ENDMDL
MODEL 7
REMARK VINA RESULT:      -6.8      3.295      5.582
REMARK  Name = 
REMARK  9 active torsions:
REMARK  status: ('A' for Active; 'I' for Inactive)
REMARK    1  A    between atoms: C_1  and  C_2
REMARK    2  A    between atoms: C_2  and  C_3
REMARK    3  A    between atoms: C_3  and  C_4
REMARK    4  A    between atoms: C_4  and  C_5
REMARK    5  A    between atoms: C_5  and  C_6
REMARK    6  A    between atoms: C_6  and  O_7
REMARK    7  A    between atoms: C_6  and  C_8
REMARK    8  A    between atoms: C_6  and  C_14
REMARK    9  A    between atoms: C_8  and  N_9
REMARK                            x       y       z     vdW  Elec       q    Type
REMARK                         _______ _______ _______ _____ _____    ______ ____
ROOT
ATOM      1  C   UNL     1       3.426   5.978  18.286  0.00  0.00    +0.000 C 
ENDROOT
BRANCH   1   2
ATOM      2  C   UNL     1       2.577   7.106  18.905  0.00  0.00    +0.000 A 
ATOM      3  C   UNL     1       2.119   7.067  20.240  0.00  0.00    +0.000 A 
ATOM      4  C   UNL     1       1.348   8.100  20.779  0.00  0.00    +0.000 A 
ATOM      5  C   UNL     1       1.004   9.193  19.992  0.00  0.00    +0.000 A 
ATOM      6  C   UNL     1       1.447   9.249  18.680  0.00  0.00    +0.000 A 
ATOM      7  F   UNL     1       1.108  10.296  17.917  0.00  0.00    +0.000 F 
ATOM      8  C   UNL     1       2.230   8.231  18.138  0.00  0.00    +0.000 A 
ENDBRANCH   1   2
BRANCH   1   9
ATOM      9  O   UNL     1       4.221   5.479  19.382  0.00  0.00    +0.000 OA
ATOM     10  H   UNL     1       5.129   5.336  19.069  0.00  0.00    +0.000 HD
ENDBRANCH   1   9
BRANCH   1  11
ATOM     11  C   UNL     1       2.554   4.800  17.762  0.00  0.00    +0.000 C 
BRANCH  11  12
ATOM     12  C   UNL     1       2.585   3.507  18.581  0.00  0.00    +0.000 C 
BRANCH  12  13
ATOM     13  C   UNL     1       1.185   3.166  19.105  0.00  0.00    +0.000 C 
BRANCH  13  15
ATOM     14  C   UNL     1       1.885   2.867  21.514  0.00  0.00    +0.000 C 
ATOM     15  C   UNL     1       1.020   3.652  20.543  0.00  0.00    +0.000 C 
ENDBRANCH  13  15
ENDBRANCH  12  13
ENDBRANCH  11  12
ENDBRANCH   1  11
BRANCH   1  16
ATOM     16  C   UNL     1       4.401   6.532  17.217  0.00  0.00    +0.000 C 
BRANCH  16  17
ATOM     17  N   UNL     1       5.491   5.648  16.889  0.00  0.00    +0.000 N 
ATOM     18  C   UNL     1       5.678   4.943  15.743  0.00  0.00    +0.000 A 
ATOM     19  N   UNL     1       6.787   4.250  15.835  0.00  0.00    +0.000 NA
ATOM     20  C   UNL     1       7.258   4.583  17.071  0.00  0.00    +0.000 A 
ATOM     21  N   UNL     1       6.508   5.458  17.748  0.00  0.00    +0.000 NA
ENDBRANCH  16  17
ENDBRANCH   1  16
TORSDOF 8
ENDMDL
MODEL 8
REMARK VINA RESULT:      -6.7      3.390      6.125
REMARK  Name = 
REMARK  9 active torsions:
REMARK  status: ('A' for Active; 'I' for Inactive)
REMARK    1  A    between atoms: C_1  and  C_2
REMARK    2  A    between atoms: C_2  and  C_3
REMARK    3  A    between atoms: C_3  and  C_4
REMARK    4  A    between atoms: C_4  and  C_5
REMARK    5  A    between atoms: C_5  and  C_6
REMARK    6  A    between atoms: C_6  and  O_7
REMARK    7  A    between atoms: C_6  and  C_8
REMARK    8  A    between atoms: C_6  and  C_14
REMARK    9  A    between atoms: C_8  and  N_9
REMARK                            x       y       z     vdW  Elec       q    Type
REMARK                         _______ _______ _______ _____ _____    ______ ____
ROOT
ATOM      1  C   UNL     1       4.739   4.803  17.031  0.00  0.00    +0.000 C 
ENDROOT
BRANCH   1   2
ATOM      2  C   UNL     1       5.951   5.556  17.613  0.00  0.00    +0.000 A 
ATOM      3  C   UNL     1       6.754   5.021  18.644  0.00  0.00    +0.000 A 
ATOM      4  C   UNL     1       7.847   5.723  19.160  0.00  0.00    +0.000 A 
ATOM      5  C   UNL     1       8.156   6.985  18.665  0.00  0.00    +0.000 A 
ATOM      6  C   UNL     1       7.380   7.525  17.652  0.00  0.00    +0.000 A 
ATOM      7  F   UNL     1       7.670   8.745  17.182  0.00  0.00    +0.000 F 
ATOM      8  C   UNL     1       6.298   6.826  17.120  0.00  0.00    +0.000 A 
ENDBRANCH   1   2
BRANCH   1   9
ATOM      9  O   UNL     1       3.607   5.642  17.342  0.00  0.00    +0.000 OA
ATOM     10  H   UNL     1       3.846   6.228  18.079  0.00  0.00    +0.000 HD
ENDBRANCH   1   9
BRANCH   1  11
ATOM     11  C   UNL     1       4.814   4.668  15.483  0.00  0.00    +0.000 C 
BRANCH  11  12
ATOM     12  C   UNL     1       5.945   3.801  14.924  0.00  0.00    +0.000 C 
BRANCH  12  13
ATOM     13  C   UNL     1       6.641   4.509  13.755  0.00  0.00    +0.000 C 
BRANCH  13  15
ATOM     14  C   UNL     1       5.127   3.346  12.101  0.00  0.00    +0.000 C 
ATOM     15  C   UNL     1       6.561   3.657  12.491  0.00  0.00    +0.000 C 
ENDBRANCH  13  15
ENDBRANCH  12  13
ENDBRANCH  11  12
ENDBRANCH   1  11
BRANCH   1  16
ATOM     16  C   UNL     1       4.524   3.446  17.748  0.00  0.00    +0.000 C 
BRANCH  16  17
ATOM     17  N   UNL     1       3.213   3.275  18.321  0.00  0.00    +0.000 N 
ATOM     18  C   UNL     1       2.870   3.275  19.636  0.00  0.00    +0.000 A 
ATOM     19  N   UNL     1       1.578   3.081  19.748  0.00  0.00    +0.000 NA
ATOM     20  C   UNL     1       1.167   2.982  18.451  0.00  0.00    +0.000 A 
ATOM     21  N   UNL     1       2.131   3.119  17.537  0.00  0.00    +0.000 NA
ENDBRANCH  16  17
ENDBRANCH   1  16
TORSDOF 8
ENDMDL
MODEL 9
REMARK VINA RESULT:      -6.7      3.114      5.587
REMARK  Name = 
REMARK  9 active torsions:
REMARK  status: ('A' for Active; 'I' for Inactive)
REMARK    1  A    between atoms: C_1  and  C_2
REMARK    2  A    between atoms: C_2  and  C_3
REMARK    3  A    between atoms: C_3  and  C_4
REMARK    4  A    between atoms: C_4  and  C_5
REMARK    5  A    between atoms: C_5  and  C_6
REMARK    6  A    between atoms: C_6  and  O_7
REMARK    7  A    between atoms: C_6  and  C_8
REMARK    8  A    between atoms: C_6  and  C_14
REMARK    9  A    between atoms: C_8  and  N_9
REMARK                            x       y       z     vdW  Elec       q    Type
REMARK                         _______ _______ _______ _____ _____    ______ ____
ROOT
ATOM      1  C   UNL     1       4.428   3.887  18.180  0.00  0.00    +0.000 C 
ENDROOT
BRANCH   1   2
ATOM      2  C   UNL     1       3.657   5.134  18.656  0.00  0.00    +0.000 A 
ATOM      3  C   UNL     1       3.297   5.335  20.005  0.00  0.00    +0.000 A 
ATOM      4  C   UNL     1       2.594   6.472  20.414  0.00  0.00    +0.000 A 
ATOM      5  C   UNL     1       2.223   7.431  19.479  0.00  0.00    +0.000 A 
ATOM      6  C   UNL     1       2.570   7.251  18.149  0.00  0.00    +0.000 A 
ATOM      7  F   UNL     1       2.204   8.169  17.245  0.00  0.00    +0.000 F 
ATOM      8  C   UNL     1       3.285   6.129  17.735  0.00  0.00    +0.000 A 
ENDBRANCH   1   2
BRANCH   1   9
ATOM      9  O   UNL     1       5.001   3.334  19.383  0.00  0.00    +0.000 OA
ATOM     10  H   UNL     1       5.717   3.918  19.685  0.00  0.00    +0.000 HD
ENDBRANCH   1   9
BRANCH   1  11
ATOM     11  C   UNL     1       3.490   2.809  17.566  0.00  0.00    +0.000 C 
BRANCH  11  12
ATOM     12  C   UNL     1       2.610   2.027  18.545  0.00  0.00    +0.000 C 
BRANCH  12  13
ATOM     13  C   UNL     1       1.166   2.543  18.503  0.00  0.00    +0.000 C 
BRANCH  13  15
ATOM     14  C   UNL     1       1.654   2.497  20.981  0.00  0.00    +0.000 C 
ATOM     15  C   UNL     1       0.718   2.991  19.892  0.00  0.00    +0.000 C 
ENDBRANCH  13  15
ENDBRANCH  12  13
ENDBRANCH  11  12
ENDBRANCH   1  11
BRANCH   1  16
ATOM     16  C   UNL     1       5.600   4.276  17.242  0.00  0.00    +0.000 C 
BRANCH  16  17
ATOM     17  N   UNL     1       6.543   5.201  17.817  0.00  0.00    +0.000 N 
ATOM     18  C   UNL     1       6.847   6.455  17.392  0.00  0.00    +0.000 A 
ATOM     19  N   UNL     1       7.760   6.971  18.179  0.00  0.00    +0.000 NA
ATOM     20  C   UNL     1       7.973   5.983  19.094  0.00  0.00    +0.000 A 
ATOM     21  N   UNL     1       7.231   4.884  18.928  0.00  0.00    +0.000 NA
ENDBRANCH  16  17
ENDBRANCH   1  16
TORSDOF 8
ENDMDL
