MODEL 1
REMARK VINA RESULT:      -7.3      0.000      0.000
REMARK  Name = 
REMARK  2 active torsions:
REMARK  status: ('A' for Active; 'I' for Inactive)
REMARK    1  A    between atoms: C_1  and  C_2
REMARK    2  A    between atoms: C_8  and  C_9
REMARK                            x       y       z     vdW  Elec       q    Type
REMARK                         _______ _______ _______ _____ _____    ______ ____
ROOT
ATOM      1  C   UNL     1       0.789   4.293  20.298  0.00  0.00    +0.000 C 
ATOM      2  C   UNL     1       2.170   3.799  20.008  0.00  0.00    +0.000 C 
ATOM      3  C   UNL     1       2.992   4.194  19.015  0.00  0.00    +0.000 C 
ATOM      4  C   UNL     1       2.516   5.014  17.843  0.00  0.00    +0.000 C 
ATOM      5  C   UNL     1       3.268   6.326  17.793  0.00  0.00    +0.000 C 
ATOM      6  C   UNL     1       4.752   6.109  17.943  0.00  0.00    +0.000 A 
ATOM      7  C   UNL     1       5.599   7.155  17.544  0.00  0.00    +0.000 A 
ATOM      8  C   UNL     1       6.981   7.063  17.710  0.00  0.00    +0.000 A 
ATOM      9  C   UNL     1       7.876   8.189  17.291  0.00  0.00    +0.000 C 
ATOM     10  C   UNL     1       7.502   5.908  18.294  0.00  0.00    +0.000 A 
ATOM     11  C   UNL     1       6.661   4.856  18.695  0.00  0.00    +0.000 A 
ATOM     12  C   UNL     1       5.268   4.927  18.541  0.00  0.00    +0.000 A 
ATOM     13  N   UNL     1       4.366   3.907  18.987  0.00  0.00    +0.000 N 
ATOM     14  C   UNL     1       4.937   2.844  19.838  0.00  0.00    +0.000 C 
ATOM     15  C   UNL     1       3.860   1.935  20.404  0.00  0.00    +0.000 C 
ATOM     16  C   UNL     1       2.725   2.770  20.935  0.00  0.00    +0.000 C 
ATOM     17  O   UNL     1       2.190   2.528  22.015  0.00  0.00    +0.000 OA
ENDROOT
TORSDOF 0
ENDMDL
MODEL 2
REMARK VINA RESULT:      -7.2      2.063      2.412
REMARK  Name = 
REMARK  2 active torsions:
REMARK  status: ('A' for Active; 'I' for Inactive)
REMARK    1  A    between atoms: C_1  and  C_2
REMARK    2  A    between atoms: C_8  and  C_9
REMARK                            x       y       z     vdW  Elec       q    Type
REMARK                         _______ _______ _______ _____ _____    ______ ____
ROOT
ATOM      1  C   UNL     1       1.522   5.763  20.986  0.00  0.00    +0.000 C 
ATOM      2  C   UNL     1       1.747   4.796  19.868  0.00  0.00    +0.000 C 
ATOM      3  C   UNL     1       2.229   5.061  18.638  0.00  0.00    +0.000 C 
ATOM      4  C   UNL     1       2.350   6.461  18.095  0.00  0.00    +0.000 C 
ATOM      5  C   UNL     1       3.796   6.762  17.763  0.00  0.00    +0.000 C 
ATOM      6  C   UNL     1       4.415   5.644  16.965  0.00  0.00    +0.000 A 
ATOM      7  C   UNL     1       5.599   5.929  16.268  0.00  0.00    +0.000 A 
ATOM      8  C   UNL     1       6.273   4.935  15.560  0.00  0.00    +0.000 A 
ATOM      9  C   UNL     1       7.543   5.247  14.827  0.00  0.00    +0.000 C 
ATOM     10  C   UNL     1       5.747   3.642  15.569  0.00  0.00    +0.000 A 
ATOM     11  C   UNL     1       4.561   3.348  16.264  0.00  0.00    +0.000 A 
ATOM     12  C   UNL     1       3.868   4.332  16.986  0.00  0.00    +0.000 A 
ATOM     13  N   UNL     1       2.689   4.068  17.756  0.00  0.00    +0.000 N 
ATOM     14  C   UNL     1       2.334   2.649  17.959  0.00  0.00    +0.000 C 
ATOM     15  C   UNL     1       1.188   2.490  18.943  0.00  0.00    +0.000 C 
ATOM     16  C   UNL     1       1.430   3.364  20.144  0.00  0.00    +0.000 C 
ATOM     17  O   UNL     1       1.242   2.961  21.290  0.00  0.00    +0.000 OA
ENDROOT
TORSDOF 0
ENDMDL
MODEL 3
REMARK VINA RESULT:      -7.0      2.735      5.725
REMARK  Name = 
REMARK  2 active torsions:
REMARK  status: ('A' for Active; 'I' for Inactive)
REMARK    1  A    between atoms: C_1  and  C_2
REMARK    2  A    between atoms: C_8  and  C_9
REMARK                            x       y       z     vdW  Elec       q    Type
REMARK                         _______ _______ _______ _____ _____    ______ ____
ROOT
ATOM      1  C   UNL     1       6.035   3.635  15.309  0.00  0.00    +0.000 C 
ATOM      2  C   UNL     1       5.235   4.570  16.158  0.00  0.00    +0.000 C 
ATOM      3  C   UNL     1       4.064   4.319  16.777  0.00  0.00    +0.000 C 
ATOM      4  C   UNL     1       3.219   3.112  16.462  0.00  0.00    +0.000 C 
ATOM      5  C   UNL     1       3.044   2.267  17.704  0.00  0.00    +0.000 C 
ATOM      6  C   UNL     1       2.647   3.112  18.886  0.00  0.00    +0.000 A 
ATOM      7  C   UNL     1       2.088   2.452  19.991  0.00  0.00    +0.000 A 
ATOM      8  C   UNL     1       1.754   3.151  21.152  0.00  0.00    +0.000 A 
ATOM      9  C   UNL     1       1.166   2.435  22.331  0.00  0.00    +0.000 C 
ATOM     10  C   UNL     1       2.001   4.523  21.193  0.00  0.00    +0.000 A 
ATOM     11  C   UNL     1       2.560   5.192  20.091  0.00  0.00    +0.000 A 
ATOM     12  C   UNL     1       2.907   4.510  18.914  0.00  0.00    +0.000 A 
ATOM     13  N   UNL     1       3.532   5.137  17.788  0.00  0.00    +0.000 N 
ATOM     14  C   UNL     1       4.021   6.516  17.984  0.00  0.00    +0.000 C 
ATOM     15  C   UNL     1       4.831   7.002  16.795  0.00  0.00    +0.000 C 
ATOM     16  C   UNL     1       5.803   5.932  16.376  0.00  0.00    +0.000 C 
ATOM     17  O   UNL     1       6.972   6.190  16.094  0.00  0.00    +0.000 OA
ENDROOT
TORSDOF 0
ENDMDL
MODEL 4
REMARK VINA RESULT:      -7.0      2.853      4.383
REMARK  Name = 
REMARK  2 active torsions:
REMARK  status: ('A' for Active; 'I' for Inactive)
REMARK    1  A    between atoms: C_1  and  C_2
REMARK    2  A    between atoms: C_8  and  C_9
REMARK                            x       y       z     vdW  Elec       q    Type
REMARK                         _______ _______ _______ _____ _____    ______ ____
ROOT
ATOM      1  C   UNL     1       3.299   3.391  17.079  0.00  0.00    +0.000 C 
ATOM      2  C   UNL     1       2.965   4.082  18.361  0.00  0.00    +0.000 C 
ATOM      3  C   UNL     1       3.179   5.374  18.678  0.00  0.00    +0.000 C 
ATOM      4  C   UNL     1       4.074   6.274  17.865  0.00  0.00    +0.000 C 
ATOM      5  C   UNL     1       3.282   7.451  17.341  0.00  0.00    +0.000 C 
ATOM      6  C   UNL     1       2.457   8.082  18.432  0.00  0.00    +0.000 A 
ATOM      7  C   UNL     1       1.976   9.381  18.206  0.00  0.00    +0.000 A 
ATOM      8  C   UNL     1       1.150  10.013  19.136  0.00  0.00    +0.000 A 
ATOM      9  C   UNL     1       0.633  11.397  18.881  0.00  0.00    +0.000 C 
ATOM     10  C   UNL     1       0.802   9.317  20.294  0.00  0.00    +0.000 A 
ATOM     11  C   UNL     1       1.280   8.016  20.528  0.00  0.00    +0.000 A 
ATOM     12  C   UNL     1       2.110   7.359  19.606  0.00  0.00    +0.000 A 
ATOM     13  N   UNL     1       2.574   6.014  19.773  0.00  0.00    +0.000 N 
ATOM     14  C   UNL     1       1.960   5.232  20.864  0.00  0.00    +0.000 C 
ATOM     15  C   UNL     1       2.385   3.774  20.822  0.00  0.00    +0.000 C 
ATOM     16  C   UNL     1       2.289   3.263  19.410  0.00  0.00    +0.000 C 
ATOM     17  O   UNL     1       1.805   2.163  19.148  0.00  0.00    +0.000 OA
ENDROOT
TORSDOF 0
ENDMDL
MODEL 5
REMARK VINA RESULT:      -6.7      2.633      5.371
REMARK  Name = 
REMARK  2 active torsions:
REMARK  status: ('A' for Active; 'I' for Inactive)
REMARK    1  A    between atoms: C_1  and  C_2
REMARK    2  A    between atoms: C_8  and  C_9
REMARK                            x       y       z     vdW  Elec       q    Type
REMARK                         _______ _______ _______ _____ _____    ______ ____
ROOT
ATOM      1  C   UNL     1       4.825   6.986  14.899  0.00  0.00    +0.000 C 
ATOM      2  C   UNL     1       5.374   6.190  16.039  0.00  0.00    +0.000 C 
ATOM      3  C   UNL     1       4.876   6.093  17.288  0.00  0.00    +0.000 C 
ATOM      4  C   UNL     1       3.819   7.026  17.817  0.00  0.00    +0.000 C 
ATOM      5  C   UNL     1       2.590   6.239  18.216  0.00  0.00    +0.000 C 
ATOM      6  C   UNL     1       2.957   5.045  19.057  0.00  0.00    +0.000 A 
ATOM      7  C   UNL     1       1.933   4.446  19.807  0.00  0.00    +0.000 A 
ATOM      8  C   UNL     1       2.173   3.297  20.561  0.00  0.00    +0.000 A 
ATOM      9  C   UNL     1       1.070   2.659  21.351  0.00  0.00    +0.000 C 
ATOM     10  C   UNL     1       3.456   2.748  20.543  0.00  0.00    +0.000 A 
ATOM     11  C   UNL     1       4.487   3.342  19.795  0.00  0.00    +0.000 A 
ATOM     12  C   UNL     1       4.269   4.496  19.027  0.00  0.00    +0.000 A 
ATOM     13  N   UNL     1       5.272   5.104  18.204  0.00  0.00    +0.000 N 
ATOM     14  C   UNL     1       6.517   4.337  18.003  0.00  0.00    +0.000 C 
ATOM     15  C   UNL     1       7.418   4.986  16.965  0.00  0.00    +0.000 C 
ATOM     16  C   UNL     1       6.600   5.383  15.767  0.00  0.00    +0.000 C 
ATOM     17  O   UNL     1       6.988   5.179  14.618  0.00  0.00    +0.000 OA
ENDROOT
TORSDOF 0
ENDMDL
MODEL 6
REMARK VINA RESULT:      -6.6      1.318      1.336
REMARK  Name = 
REMARK  2 active torsions:
REMARK  status: ('A' for Active; 'I' for Inactive)
REMARK    1  A    between atoms: C_1  and  C_2
REMARK    2  A    between atoms: C_8  and  C_9
REMARK                            x       y       z     vdW  Elec       q    Type
REMARK                         _______ _______ _______ _____ _____    ______ ____
ROOT
ATOM      1  C   UNL     1       0.750   4.197  20.100  0.00  0.00    +0.000 C 
ATOM      2  C   UNL     1       1.841   3.751  19.181  0.00  0.00    +0.000 C 
ATOM      3  C   UNL     1       2.537   4.504  18.307  0.00  0.00    +0.000 C 
ATOM      4  C   UNL     1       2.112   5.894  17.911  0.00  0.00    +0.000 C 
ATOM      5  C   UNL     1       3.195   6.887  18.273  0.00  0.00    +0.000 C 
ATOM      6  C   UNL     1       4.547   6.409  17.813  0.00  0.00    +0.000 A 
ATOM      7  C   UNL     1       5.574   7.363  17.732  0.00  0.00    +0.000 A 
ATOM      8  C   UNL     1       6.872   6.993  17.379  0.00  0.00    +0.000 A 
ATOM      9  C   UNL     1       7.964   8.017  17.305  0.00  0.00    +0.000 C 
ATOM     10  C   UNL     1       7.130   5.646  17.120  0.00  0.00    +0.000 A 
ATOM     11  C   UNL     1       6.107   4.686  17.198  0.00  0.00    +0.000 A 
ATOM     12  C   UNL     1       4.795   5.033  17.554  0.00  0.00    +0.000 A 
ATOM     13  N   UNL     1       3.734   4.082  17.703  0.00  0.00    +0.000 N 
ATOM     14  C   UNL     1       4.116   2.656  17.690  0.00  0.00    +0.000 C 
ATOM     15  C   UNL     1       2.946   1.756  18.049  0.00  0.00    +0.000 C 
ATOM     16  C   UNL     1       2.232   2.313  19.251  0.00  0.00    +0.000 C 
ATOM     17  O   UNL     1       1.865   1.595  20.179  0.00  0.00    +0.000 OA
ENDROOT
TORSDOF 0
ENDMDL
MODEL 7
REMARK VINA RESULT:      -6.5      1.355      1.573
REMARK  Name = 
REMARK  2 active torsions:
REMARK  status: ('A' for Active; 'I' for Inactive)
REMARK    1  A    between atoms: C_1  and  C_2
REMARK    2  A    between atoms: C_8  and  C_9
REMARK                            x       y       z     vdW  Elec       q    Type
REMARK                         _______ _______ _______ _____ _____    ______ ____
ROOT
ATOM      1  C   UNL     1       1.474   3.936  17.500  0.00  0.00    +0.000 C 
ATOM      2  C   UNL     1       2.818   3.696  18.110  0.00  0.00    +0.000 C 
ATOM      3  C   UNL     1       4.014   4.116  17.652  0.00  0.00    +0.000 C 
ATOM      4  C   UNL     1       4.206   4.665  16.262  0.00  0.00    +0.000 C 
ATOM      5  C   UNL     1       4.728   6.084  16.336  0.00  0.00    +0.000 C 
ATOM      6  C   UNL     1       5.882   6.190  17.299  0.00  0.00    +0.000 A 
ATOM      7  C   UNL     1       6.702   7.324  17.197  0.00  0.00    +0.000 A 
ATOM      8  C   UNL     1       7.752   7.534  18.092  0.00  0.00    +0.000 A 
ATOM      9  C   UNL     1       8.617   8.753  17.982  0.00  0.00    +0.000 C 
ATOM     10  C   UNL     1       7.960   6.593  19.101  0.00  0.00    +0.000 A 
ATOM     11  C   UNL     1       7.144   5.454  19.209  0.00  0.00    +0.000 A 
ATOM     12  C   UNL     1       6.080   5.224  18.323  0.00  0.00    +0.000 A 
ATOM     13  N   UNL     1       5.185   4.109  18.428  0.00  0.00    +0.000 N 
ATOM     14  C   UNL     1       5.275   3.302  19.661  0.00  0.00    +0.000 C 
ATOM     15  C   UNL     1       4.157   2.277  19.746  0.00  0.00    +0.000 C 
ATOM     16  C   UNL     1       2.848   2.928  19.389  0.00  0.00    +0.000 C 
ATOM     17  O   UNL     1       1.823   2.725  20.037  0.00  0.00    +0.000 OA
ENDROOT
TORSDOF 0
ENDMDL
MODEL 8
REMARK VINA RESULT:      -6.5      7.150      9.131
REMARK  Name = 
REMARK  2 active torsions:
REMARK  status: ('A' for Active; 'I' for Inactive)
REMARK    1  A    between atoms: C_1  and  C_2
REMARK    2  A    between atoms: C_8  and  C_9
REMARK                            x       y       z     vdW  Elec       q    Type
REMARK                         _______ _______ _______ _____ _____    ______ ____
ROOT
ATOM      1  C   UNL     1       1.332   8.932  21.870  0.00  0.00    +0.000 C 
ATOM      2  C   UNL     1       0.370  10.022  21.526  0.00  0.00    +0.000 C 
ATOM      3  C   UNL     1       0.096  10.521  20.304  0.00  0.00    +0.000 C 
ATOM      4  C   UNL     1       0.954  10.238  19.099  0.00  0.00    +0.000 C 
ATOM      5  C   UNL     1       0.133   9.549  18.031  0.00  0.00    +0.000 C 
ATOM      6  C   UNL     1      -1.177  10.258  17.810  0.00  0.00    +0.000 A 
ATOM      7  C   UNL     1      -1.867   9.979  16.619  0.00  0.00    +0.000 A 
ATOM      8  C   UNL     1      -3.118  10.542  16.365  0.00  0.00    +0.000 A 
ATOM      9  C   UNL     1      -3.851  10.231  15.096  0.00  0.00    +0.000 C 
ATOM     10  C   UNL     1      -3.675  11.382  17.330  0.00  0.00    +0.000 A 
ATOM     11  C   UNL     1      -2.990  11.667  18.524  0.00  0.00    +0.000 A 
ATOM     12  C   UNL     1      -1.733  11.110  18.803  0.00  0.00    +0.000 A 
ATOM     13  N   UNL     1      -1.024  11.325  20.030  0.00  0.00    +0.000 N 
ATOM     14  C   UNL     1      -1.769  11.987  21.119  0.00  0.00    +0.000 C 
ATOM     15  C   UNL     1      -0.986  11.985  22.420  0.00  0.00    +0.000 C 
ATOM     16  C   UNL     1      -0.404  10.616  22.656  0.00  0.00    +0.000 C 
ATOM     17  O   UNL     1      -0.442  10.075  23.759  0.00  0.00    +0.000 OA
ENDROOT
TORSDOF 0
ENDMDL
MODEL 9
REMARK VINA RESULT:      -6.3      3.005      5.782
REMARK  Name = 
REMARK  2 active torsions:
REMARK  status: ('A' for Active; 'I' for Inactive)
REMARK    1  A    between atoms: C_1  and  C_2
REMARK    2  A    between atoms: C_8  and  C_9
REMARK                            x       y       z     vdW  Elec       q    Type
REMARK                         _______ _______ _______ _____ _____    ______ ____
ROOT
ATOM      1  C   UNL     1       7.454   7.022  17.019  0.00  0.00    +0.000 C 
ATOM      2  C   UNL     1       6.791   5.713  16.730  0.00  0.00    +0.000 C 
ATOM      3  C   UNL     1       6.133   4.917  17.597  0.00  0.00    +0.000 C 
ATOM      4  C   UNL     1       6.217   5.097  19.090  0.00  0.00    +0.000 C 
ATOM      5  C   UNL     1       4.838   5.360  19.655  0.00  0.00    +0.000 C 
ATOM      6  C   UNL     1       3.833   4.374  19.121  0.00  0.00    +0.000 A 
ATOM      7  C   UNL     1       2.623   4.245  19.821  0.00  0.00    +0.000 A 
ATOM      8  C   UNL     1       1.611   3.403  19.357  0.00  0.00    +0.000 A 
ATOM      9  C   UNL     1       0.319   3.279  20.106  0.00  0.00    +0.000 C 
ATOM     10  C   UNL     1       1.827   2.698  18.172  0.00  0.00    +0.000 A 
ATOM     11  C   UNL     1       3.036   2.821  17.466  0.00  0.00    +0.000 A 
ATOM     12  C   UNL     1       4.066   3.664  17.911  0.00  0.00    +0.000 A 
ATOM     13  N   UNL     1       5.291   3.867  17.196  0.00  0.00    +0.000 N 
ATOM     14  C   UNL     1       5.356   3.322  15.825  0.00  0.00    +0.000 C 
ATOM     15  C   UNL     1       6.617   3.762  15.102  0.00  0.00    +0.000 C 
ATOM     16  C   UNL     1       6.831   5.236  15.317  0.00  0.00    +0.000 C 
ATOM     17  O   UNL     1       7.160   5.985  14.398  0.00  0.00    +0.000 OA
ENDROOT
TORSDOF 0
ENDMDL
