MODEL 1
REMARK VINA RESULT:      -8.7      0.000      0.000
REMARK  Name = 
REMARK  5 active torsions:
REMARK  status: ('A' for Active; 'I' for Inactive)
REMARK    1  A    between atoms: C_1  and  N_2
REMARK    2  A    between atoms: C_5  and  O_6
REMARK    3  A    between atoms: O_6  and  C_7
REMARK    4  A    between atoms: N_20  and  C_21
REMARK    5  A    between atoms: C_24  and  N_25
REMARK                            x       y       z     vdW  Elec       q    Type
REMARK                         _______ _______ _______ _____ _____    ______ ____
ROOT
ATOM      1  C   UNL     1      -2.149   9.614  16.737  0.00  0.00    +0.000 C 
ATOM      2  N   UNL     1      -2.592  10.609  17.700  0.00  0.00    +0.000 N 
ATOM      3  C   UNL     1      -3.742  11.350  17.467  0.00  0.00    +0.000 A 
ATOM      4  O   UNL     1      -4.336  11.352  16.390  0.00  0.00    +0.000 OA
ATOM      5  C   UNL     1      -4.281  12.130  18.648  0.00  0.00    +0.000 A 
ATOM      6  C   UNL     1      -3.479  12.378  19.694  0.00  0.00    +0.000 A 
ATOM      7  C   UNL     1      -2.162  11.767  19.764  0.00  0.00    +0.000 A 
ATOM      8  C   UNL     1      -1.262  11.985  20.784  0.00  0.00    +0.000 A 
ATOM      9  N   UNL     1      -0.065  11.365  20.874  0.00  0.00    +0.000 NA
ATOM     10  C   UNL     1       0.211  10.453  19.934  0.00  0.00    +0.000 A 
ATOM     11  N   UNL     1       1.441   9.804  20.012  0.00  0.00    +0.000 N 
ATOM     12  N   UNL     1      -0.608  10.171  18.910  0.00  0.00    +0.000 NA
ATOM     13  C   UNL     1      -1.764  10.841  18.823  0.00  0.00    +0.000 A 
ATOM     14  H   UNL     1       1.991  10.165  20.780  0.00  0.00    +0.000 HD
ENDROOT
BRANCH  11  15
ATOM     15  C   UNL     1       1.749   8.495  19.616  0.00  0.00    +0.000 A 
ATOM     16  C   UNL     1       1.727   7.473  20.559  0.00  0.00    +0.000 A 
ATOM     17  C   UNL     1       2.074   6.157  20.205  0.00  0.00    +0.000 A 
ATOM     18  C   UNL     1       2.457   5.806  18.903  0.00  0.00    +0.000 A 
ATOM     19  C   UNL     1       2.442   6.845  17.963  0.00  0.00    +0.000 A 
ATOM     20  C   UNL     1       2.108   8.163  18.310  0.00  0.00    +0.000 A 
BRANCH  18  21
ATOM     21  N   UNL     1       2.824   4.523  18.556  0.00  0.00    +0.000 N 
ATOM     22  C   UNL     1       2.229   3.755  17.466  0.00  0.00    +0.000 C 
ATOM     23  C   UNL     1       2.252   2.322  17.983  0.00  0.00    +0.000 C 
ATOM     24  C   UNL     1       3.527   2.269  18.804  0.00  0.00    +0.000 C 
ATOM     25  C   UNL     1       3.611   3.657  19.438  0.00  0.00    +0.000 C 
ENDBRANCH  18  21
ENDBRANCH  11  15
BRANCH   5  26
ATOM     26  O   UNL     1      -5.594  12.595  18.706  0.00  0.00    +0.000 OA
BRANCH  26  27
ATOM     27  C   UNL     1      -6.346  12.493  19.857  0.00  0.00    +0.000 A 
ATOM     28  C   UNL     1      -6.573  13.529  20.779  0.00  0.00    +0.000 A 
ATOM     29 CL   UNL     1      -6.079  15.170  20.518  0.00  0.00    +0.000 Cl
ATOM     30  C   UNL     1      -7.311  13.289  21.945  0.00  0.00    +0.000 A 
ATOM     31  C   UNL     1      -7.915  12.052  22.158  0.00  0.00    +0.000 A 
ATOM     32  C   UNL     1      -7.791  11.053  21.197  0.00  0.00    +0.000 A 
ATOM     33  C   UNL     1      -7.005  11.269  20.059  0.00  0.00    +0.000 A 
ATOM     34 CL   UNL     1      -6.914   9.993  18.894  0.00  0.00    +0.000 Cl
ENDBRANCH  26  27
ENDBRANCH   5  26
TORSDOF 4
ENDMDL
MODEL 2
REMARK VINA RESULT:      -8.5      0.910      1.796
REMARK  Name = 
REMARK  5 active torsions:
REMARK  status: ('A' for Active; 'I' for Inactive)
REMARK    1  A    between atoms: C_1  and  N_2
REMARK    2  A    between atoms: C_5  and  O_6
REMARK    3  A    between atoms: O_6  and  C_7
REMARK    4  A    between atoms: N_20  and  C_21
REMARK    5  A    between atoms: C_24  and  N_25
REMARK                            x       y       z     vdW  Elec       q    Type
REMARK                         _______ _______ _______ _____ _____    ______ ____
ROOT
ATOM      1  C   UNL     1      -1.793   9.820  17.262  0.00  0.00    +0.000 C 
ATOM      2  N   UNL     1      -2.137  10.738  18.335  0.00  0.00    +0.000 N 
ATOM      3  C   UNL     1      -3.183  11.637  18.184  0.00  0.00    +0.000 A 
ATOM      4  O   UNL     1      -3.745  11.842  17.109  0.00  0.00    +0.000 OA
ATOM      5  C   UNL     1      -3.654  12.328  19.447  0.00  0.00    +0.000 A 
ATOM      6  C   UNL     1      -2.854  12.348  20.523  0.00  0.00    +0.000 A 
ATOM      7  C   UNL     1      -1.623  11.576  20.530  0.00  0.00    +0.000 A 
ATOM      8  C   UNL     1      -0.728  11.556  21.579  0.00  0.00    +0.000 A 
ATOM      9  N   UNL     1       0.382  10.788  21.604  0.00  0.00    +0.000 NA
ATOM     10  C   UNL     1       0.569   9.969  20.562  0.00  0.00    +0.000 A 
ATOM     11  N   UNL     1       1.710   9.170  20.571  0.00  0.00    +0.000 N 
ATOM     12  N   UNL     1      -0.251   9.916  19.502  0.00  0.00    +0.000 NA
ATOM     13  C   UNL     1      -1.315  10.729  19.487  0.00  0.00    +0.000 A 
ATOM     14  H   UNL     1       2.280   9.365  21.384  0.00  0.00    +0.000 HD
ENDROOT
BRANCH  11  15
ATOM     15  C   UNL     1       1.868   7.890  20.020  0.00  0.00    +0.000 A 
ATOM     16  C   UNL     1       1.556   6.772  20.787  0.00  0.00    +0.000 A 
ATOM     17  C   UNL     1       1.745   5.474  20.280  0.00  0.00    +0.000 A 
ATOM     18  C   UNL     1       2.251   5.236  18.995  0.00  0.00    +0.000 A 
ATOM     19  C   UNL     1       2.529   6.376  18.229  0.00  0.00    +0.000 A 
ATOM     20  C   UNL     1       2.354   7.675  18.731  0.00  0.00    +0.000 A 
BRANCH  18  21
ATOM     21  N   UNL     1       2.463   3.966  18.503  0.00  0.00    +0.000 N 
ATOM     22  C   UNL     1       1.490   2.880  18.561  0.00  0.00    +0.000 C 
ATOM     23  C   UNL     1       2.350   1.637  18.752  0.00  0.00    +0.000 C 
ATOM     24  C   UNL     1       3.603   1.956  17.957  0.00  0.00    +0.000 C 
ATOM     25  C   UNL     1       3.796   3.457  18.168  0.00  0.00    +0.000 C 
ENDBRANCH  18  21
ENDBRANCH  11  15
BRANCH   5  26
ATOM     26  O   UNL     1      -4.902  12.940  19.548  0.00  0.00    +0.000 OA
BRANCH  26  27
ATOM     27  C   UNL     1      -5.901  12.416  20.340  0.00  0.00    +0.000 A 
ATOM     28  C   UNL     1      -6.661  11.271  20.047  0.00  0.00    +0.000 A 
ATOM     29 CL   UNL     1      -6.337  10.223  18.704  0.00  0.00    +0.000 Cl
ATOM     30  C   UNL     1      -7.690  10.866  20.906  0.00  0.00    +0.000 A 
ATOM     31  C   UNL     1      -7.907  11.530  22.111  0.00  0.00    +0.000 A 
ATOM     32  C   UNL     1      -7.086  12.596  22.466  0.00  0.00    +0.000 A 
ATOM     33  C   UNL     1      -6.096  13.041  21.583  0.00  0.00    +0.000 A 
ATOM     34 CL   UNL     1      -5.096  14.357  22.098  0.00  0.00    +0.000 Cl
ENDBRANCH  26  27
ENDBRANCH   5  26
TORSDOF 4
ENDMDL
MODEL 3
REMARK VINA RESULT:      -8.5      0.937      1.114
REMARK  Name = 
REMARK  5 active torsions:
REMARK  status: ('A' for Active; 'I' for Inactive)
REMARK    1  A    between atoms: C_1  and  N_2
REMARK    2  A    between atoms: C_5  and  O_6
REMARK    3  A    between atoms: O_6  and  C_7
REMARK    4  A    between atoms: N_20  and  C_21
REMARK    5  A    between atoms: C_24  and  N_25
REMARK                            x       y       z     vdW  Elec       q    Type
REMARK                         _______ _______ _______ _____ _____    ______ ____
ROOT
ATOM      1  C   UNL     1      -2.552   9.962  16.813  0.00  0.00    +0.000 C 
ATOM      2  N   UNL     1      -3.052  10.891  17.813  0.00  0.00    +0.000 N 
ATOM      3  C   UNL     1      -4.288  11.501  17.651  0.00  0.00    +0.000 A 
ATOM      4  O   UNL     1      -4.934  11.447  16.606  0.00  0.00    +0.000 OA
ATOM      5  C   UNL     1      -4.848  12.202  18.871  0.00  0.00    +0.000 A 
ATOM      6  C   UNL     1      -4.025  12.528  19.879  0.00  0.00    +0.000 A 
ATOM      7  C   UNL     1      -2.646  12.068  19.871  0.00  0.00    +0.000 A 
ATOM      8  C   UNL     1      -1.723  12.375  20.847  0.00  0.00    +0.000 A 
ATOM      9  N   UNL     1      -0.462  11.893  20.866  0.00  0.00    +0.000 NA
ATOM     10  C   UNL     1      -0.135  11.027  19.899  0.00  0.00    +0.000 A 
ATOM     11  N   UNL     1       1.162  10.520  19.903  0.00  0.00    +0.000 N 
ATOM     12  N   UNL     1      -0.970  10.666  18.913  0.00  0.00    +0.000 NA
ATOM     13  C   UNL     1      -2.197  11.203  18.896  0.00  0.00    +0.000 A 
ATOM     14  H   UNL     1       1.707  10.933  20.648  0.00  0.00    +0.000 HD
ENDROOT
BRANCH  11  15
ATOM     15  C   UNL     1       1.593   9.259  19.471  0.00  0.00    +0.000 A 
ATOM     16  C   UNL     1       1.608   8.196  20.368  0.00  0.00    +0.000 A 
ATOM     17  C   UNL     1       2.076   6.928  19.979  0.00  0.00    +0.000 A 
ATOM     18  C   UNL     1       2.549   6.667  18.685  0.00  0.00    +0.000 A 
ATOM     19  C   UNL     1       2.495   7.743  17.789  0.00  0.00    +0.000 A 
ATOM     20  C   UNL     1       2.040   9.015  18.172  0.00  0.00    +0.000 A 
BRANCH  18  21
ATOM     21  N   UNL     1       3.034   5.434  18.306  0.00  0.00    +0.000 N 
ATOM     22  C   UNL     1       2.835   4.197  19.055  0.00  0.00    +0.000 C 
ATOM     23  C   UNL     1       4.128   3.425  18.823  0.00  0.00    +0.000 C 
ATOM     24  C   UNL     1       4.512   3.808  17.406  0.00  0.00    +0.000 C 
ATOM     25  C   UNL     1       4.081   5.270  17.294  0.00  0.00    +0.000 C 
ENDBRANCH  18  21
ENDBRANCH  11  15
BRANCH   5  26
ATOM     26  O   UNL     1      -6.200  12.516  19.003  0.00  0.00    +0.000 OA
BRANCH  26  27
ATOM     27  C   UNL     1      -6.757  12.805  20.231  0.00  0.00    +0.000 A 
ATOM     28  C   UNL     1      -6.925  14.092  20.769  0.00  0.00    +0.000 A 
ATOM     29 CL   UNL     1      -6.612  15.550  19.884  0.00  0.00    +0.000 Cl
ATOM     30  C   UNL     1      -7.455  14.257  22.055  0.00  0.00    +0.000 A 
ATOM     31  C   UNL     1      -7.916  13.159  22.776  0.00  0.00    +0.000 A 
ATOM     32  C   UNL     1      -7.859  11.890  22.207  0.00  0.00    +0.000 A 
ATOM     33  C   UNL     1      -7.276  11.714  20.947  0.00  0.00    +0.000 A 
ATOM     34 CL   UNL     1      -7.259  10.113  20.289  0.00  0.00    +0.000 Cl
ENDBRANCH  26  27
ENDBRANCH   5  26
TORSDOF 4
ENDMDL
MODEL 4
REMARK VINA RESULT:      -8.3      0.694      1.273
REMARK  Name = 
REMARK  5 active torsions:
REMARK  status: ('A' for Active; 'I' for Inactive)
REMARK    1  A    between atoms: C_1  and  N_2
REMARK    2  A    between atoms: C_5  and  O_6
REMARK    3  A    between atoms: O_6  and  C_7
REMARK    4  A    between atoms: N_20  and  C_21
REMARK    5  A    between atoms: C_24  and  N_25
REMARK                            x       y       z     vdW  Elec       q    Type
REMARK                         _______ _______ _______ _____ _____    ______ ____
ROOT
ATOM      1  C   UNL     1      -1.972   9.663  17.346  0.00  0.00    +0.000 C 
ATOM      2  N   UNL     1      -2.328  10.688  18.313  0.00  0.00    +0.000 N 
ATOM      3  C   UNL     1      -3.409  11.526  18.085  0.00  0.00    +0.000 A 
ATOM      4  O   UNL     1      -4.002  11.583  17.009  0.00  0.00    +0.000 OA
ATOM      5  C   UNL     1      -3.879  12.343  19.270  0.00  0.00    +0.000 A 
ATOM      6  C   UNL     1      -3.057  12.518  20.316  0.00  0.00    +0.000 A 
ATOM      7  C   UNL     1      -1.798  11.796  20.381  0.00  0.00    +0.000 A 
ATOM      8  C   UNL     1      -0.881  11.932  21.401  0.00  0.00    +0.000 A 
ATOM      9  N   UNL     1       0.258  11.211  21.487  0.00  0.00    +0.000 NA
ATOM     10  C   UNL     1       0.454  10.283  20.544  0.00  0.00    +0.000 A 
ATOM     11  N   UNL     1       1.624   9.531  20.617  0.00  0.00    +0.000 N 
ATOM     12  N   UNL     1      -0.386  10.076  19.519  0.00  0.00    +0.000 NA
ATOM     13  C   UNL     1      -1.481  10.843  19.437  0.00  0.00    +0.000 A 
ATOM     14  H   UNL     1       2.203   9.840  21.386  0.00  0.00    +0.000 HD
ENDROOT
BRANCH  11  15
ATOM     15  C   UNL     1       1.818   8.202  20.216  0.00  0.00    +0.000 A 
ATOM     16  C   UNL     1       2.303   7.937  18.939  0.00  0.00    +0.000 A 
ATOM     17  C   UNL     1       2.468   6.615  18.489  0.00  0.00    +0.000 A 
ATOM     18  C   UNL     1       2.156   5.505  19.288  0.00  0.00    +0.000 A 
ATOM     19  C   UNL     1       1.698   5.795  20.580  0.00  0.00    +0.000 A 
ATOM     20  C   UNL     1       1.521   7.112  21.033  0.00  0.00    +0.000 A 
BRANCH  18  21
ATOM     21  N   UNL     1       2.289   4.208  18.842  0.00  0.00    +0.000 N 
ATOM     22  C   UNL     1       2.881   3.121  19.617  0.00  0.00    +0.000 C 
ATOM     23  C   UNL     1       3.579   2.269  18.565  0.00  0.00    +0.000 C 
ATOM     24  C   UNL     1       2.671   2.397  17.355  0.00  0.00    +0.000 C 
ATOM     25  C   UNL     1       2.164   3.837  17.430  0.00  0.00    +0.000 C 
ENDBRANCH  18  21
ENDBRANCH  11  15
BRANCH   5  26
ATOM     26  O   UNL     1      -5.147  12.919  19.331  0.00  0.00    +0.000 OA
BRANCH  26  27
ATOM     27  C   UNL     1      -6.037  12.599  20.335  0.00  0.00    +0.000 A 
ATOM     28  C   UNL     1      -6.215  13.319  21.529  0.00  0.00    +0.000 A 
ATOM     29 CL   UNL     1      -5.455  14.843  21.853  0.00  0.00    +0.000 Cl
ATOM     30  C   UNL     1      -7.114  12.863  22.502  0.00  0.00    +0.000 A 
ATOM     31  C   UNL     1      -7.916  11.751  22.257  0.00  0.00    +0.000 A 
ATOM     32  C   UNL     1      -7.829  11.097  21.032  0.00  0.00    +0.000 A 
ATOM     33  C   UNL     1      -6.891  11.513  20.081  0.00  0.00    +0.000 A 
ATOM     34 CL   UNL     1      -6.852  10.670  18.570  0.00  0.00    +0.000 Cl
ENDBRANCH  26  27
ENDBRANCH   5  26
TORSDOF 4
ENDMDL
MODEL 5
REMARK VINA RESULT:      -8.3      1.178      1.621
REMARK  Name = 
REMARK  5 active torsions:
REMARK  status: ('A' for Active; 'I' for Inactive)
REMARK    1  A    between atoms: C_1  and  N_2
REMARK    2  A    between atoms: C_5  and  O_6
REMARK    3  A    between atoms: O_6  and  C_7
REMARK    4  A    between atoms: N_20  and  C_21
REMARK    5  A    between atoms: C_24  and  N_25
REMARK                            x       y       z     vdW  Elec       q    Type
REMARK                         _______ _______ _______ _____ _____    ______ ____
ROOT
ATOM      1  C   UNL     1      -3.122   9.760  17.413  0.00  0.00    +0.000 C 
ATOM      2  N   UNL     1      -3.485  10.899  18.240  0.00  0.00    +0.000 N 
ATOM      3  C   UNL     1      -4.758  11.445  18.168  0.00  0.00    +0.000 A 
ATOM      4  O   UNL     1      -5.575  11.137  17.302  0.00  0.00    +0.000 OA
ATOM      5  C   UNL     1      -5.129  12.415  19.270  0.00  0.00    +0.000 A 
ATOM      6  C   UNL     1      -4.159  12.980  20.005  0.00  0.00    +0.000 A 
ATOM      7  C   UNL     1      -2.782  12.540  19.853  0.00  0.00    +0.000 A 
ATOM      8  C   UNL     1      -1.718  13.078  20.544  0.00  0.00    +0.000 A 
ATOM      9  N   UNL     1      -0.451  12.622  20.445  0.00  0.00    +0.000 NA
ATOM     10  C   UNL     1      -0.257  11.552  19.666  0.00  0.00    +0.000 A 
ATOM     11  N   UNL     1       1.044  11.069  19.552  0.00  0.00    +0.000 N 
ATOM     12  N   UNL     1      -1.233  10.959  18.963  0.00  0.00    +0.000 NA
ATOM     13  C   UNL     1      -2.469  11.468  19.045  0.00  0.00    +0.000 A 
ATOM     14  H   UNL     1       1.691  11.652  20.067  0.00  0.00    +0.000 HD
ENDROOT
BRANCH  11  15
ATOM     15  C   UNL     1       1.455   9.743  19.358  0.00  0.00    +0.000 A 
ATOM     16  C   UNL     1       1.880   9.336  18.098  0.00  0.00    +0.000 A 
ATOM     17  C   UNL     1       2.256   8.002  17.858  0.00  0.00    +0.000 A 
ATOM     18  C   UNL     1       2.224   7.021  18.859  0.00  0.00    +0.000 A 
ATOM     19  C   UNL     1       1.822   7.460  20.128  0.00  0.00    +0.000 A 
ATOM     20  C   UNL     1       1.434   8.786  20.373  0.00  0.00    +0.000 A 
BRANCH  18  21
ATOM     21  N   UNL     1       2.565   5.707  18.623  0.00  0.00    +0.000 N 
ATOM     22  C   UNL     1       2.087   4.571  19.407  0.00  0.00    +0.000 C 
ATOM     23  C   UNL     1       3.269   3.610  19.404  0.00  0.00    +0.000 C 
ATOM     24  C   UNL     1       3.890   3.826  18.036  0.00  0.00    +0.000 C 
ATOM     25  C   UNL     1       3.700   5.321  17.781  0.00  0.00    +0.000 C 
ENDBRANCH  18  21
ENDBRANCH  11  15
BRANCH   5  26
ATOM     26  O   UNL     1      -6.451  12.743  19.569  0.00  0.00    +0.000 OA
BRANCH  26  27
ATOM     27  C   UNL     1      -6.894  12.835  20.872  0.00  0.00    +0.000 A 
ATOM     28  C   UNL     1      -6.927  14.009  21.643  0.00  0.00    +0.000 A 
ATOM     29 CL   UNL     1      -6.570  15.583  21.010  0.00  0.00    +0.000 Cl
ATOM     30  C   UNL     1      -7.348  13.966  22.978  0.00  0.00    +0.000 A 
ATOM     31  C   UNL     1      -7.837  12.784  23.528  0.00  0.00    +0.000 A 
ATOM     32  C   UNL     1      -7.916  11.641  22.738  0.00  0.00    +0.000 A 
ATOM     33  C   UNL     1      -7.441  11.664  21.423  0.00  0.00    +0.000 A 
ATOM     34 CL   UNL     1      -7.591  10.214  20.490  0.00  0.00    +0.000 Cl
ENDBRANCH  26  27
ENDBRANCH   5  26
TORSDOF 4
ENDMDL
MODEL 6
REMARK VINA RESULT:      -8.3      0.966      1.464
REMARK  Name = 
REMARK  5 active torsions:
REMARK  status: ('A' for Active; 'I' for Inactive)
REMARK    1  A    between atoms: C_1  and  N_2
REMARK    2  A    between atoms: C_5  and  O_6
REMARK    3  A    between atoms: O_6  and  C_7
REMARK    4  A    between atoms: N_20  and  C_21
REMARK    5  A    between atoms: C_24  and  N_25
REMARK                            x       y       z     vdW  Elec       q    Type
REMARK                         _______ _______ _______ _____ _____    ______ ____
ROOT
ATOM      1  C   UNL     1      -2.202   9.650  16.576  0.00  0.00    +0.000 C 
ATOM      2  N   UNL     1      -2.805  10.597  17.499  0.00  0.00    +0.000 N 
ATOM      3  C   UNL     1      -4.011  11.211  17.191  0.00  0.00    +0.000 A 
ATOM      4  O   UNL     1      -4.535  11.145  16.080  0.00  0.00    +0.000 OA
ATOM      5  C   UNL     1      -4.700  11.933  18.329  0.00  0.00    +0.000 A 
ATOM      6  C   UNL     1      -3.994  12.270  19.418  0.00  0.00    +0.000 A 
ATOM      7  C   UNL     1      -2.626  11.803  19.573  0.00  0.00    +0.000 A 
ATOM      8  C   UNL     1      -1.817  12.120  20.643  0.00  0.00    +0.000 A 
ATOM      9  N   UNL     1      -0.570  11.631  20.811  0.00  0.00    +0.000 NA
ATOM     10  C   UNL     1      -0.142  10.749  19.899  0.00  0.00    +0.000 A 
ATOM     11  N   UNL     1       1.143  10.235  20.058  0.00  0.00    +0.000 N 
ATOM     12  N   UNL     1      -0.863  10.377  18.831  0.00  0.00    +0.000 NA
ATOM     13  C   UNL     1      -2.076  10.920  18.668  0.00  0.00    +0.000 A 
ATOM     14  H   UNL     1       1.603  10.656  20.854  0.00  0.00    +0.000 HD
ENDROOT
BRANCH  11  15
ATOM     15  C   UNL     1       1.611   8.965  19.695  0.00  0.00    +0.000 A 
ATOM     16  C   UNL     1       2.117   8.762  18.416  0.00  0.00    +0.000 A 
ATOM     17  C   UNL     1       2.554   7.489  18.005  0.00  0.00    +0.000 A 
ATOM     18  C   UNL     1       2.503   6.370  18.848  0.00  0.00    +0.000 A 
ATOM     19  C   UNL     1       2.019   6.604  20.142  0.00  0.00    +0.000 A 
ATOM     20  C   UNL     1       1.570   7.868  20.556  0.00  0.00    +0.000 A 
BRANCH  18  21
ATOM     21  N   UNL     1       2.904   5.115  18.442  0.00  0.00    +0.000 N 
ATOM     22  C   UNL     1       4.250   4.781  17.986  0.00  0.00    +0.000 C 
ATOM     23  C   UNL     1       4.014   3.723  16.916  0.00  0.00    +0.000 C 
ATOM     24  C   UNL     1       2.804   2.967  17.434  0.00  0.00    +0.000 C 
ATOM     25  C   UNL     1       1.957   4.051  18.102  0.00  0.00    +0.000 C 
ENDBRANCH  18  21
ENDBRANCH  11  15
BRANCH   5  26
ATOM     26  O   UNL     1      -6.056  12.256  18.303  0.00  0.00    +0.000 OA
BRANCH  26  27
ATOM     27  C   UNL     1      -6.658  12.926  19.347  0.00  0.00    +0.000 A 
ATOM     28  C   UNL     1      -6.845  14.316  19.427  0.00  0.00    +0.000 A 
ATOM     29 CL   UNL     1      -6.497  15.407  18.125  0.00  0.00    +0.000 Cl
ATOM     30  C   UNL     1      -7.423  14.888  20.568  0.00  0.00    +0.000 A 
ATOM     31  C   UNL     1      -7.912  14.081  21.592  0.00  0.00    +0.000 A 
ATOM     32  C   UNL     1      -7.835  12.697  21.473  0.00  0.00    +0.000 A 
ATOM     33  C   UNL     1      -7.205  12.124  20.362  0.00  0.00    +0.000 A 
ATOM     34 CL   UNL     1      -7.165  10.396  20.266  0.00  0.00    +0.000 Cl
ENDBRANCH  26  27
ENDBRANCH   5  26
TORSDOF 4
ENDMDL
MODEL 7
REMARK VINA RESULT:      -8.2      0.811      1.822
REMARK  Name = 
REMARK  5 active torsions:
REMARK  status: ('A' for Active; 'I' for Inactive)
REMARK    1  A    between atoms: C_1  and  N_2
REMARK    2  A    between atoms: C_5  and  O_6
REMARK    3  A    between atoms: O_6  and  C_7
REMARK    4  A    between atoms: N_20  and  C_21
REMARK    5  A    between atoms: C_24  and  N_25
REMARK                            x       y       z     vdW  Elec       q    Type
REMARK                         _______ _______ _______ _____ _____    ______ ____
ROOT
ATOM      1  C   UNL     1      -2.603   9.899  17.053  0.00  0.00    +0.000 C 
ATOM      2  N   UNL     1      -2.974  10.884  18.054  0.00  0.00    +0.000 N 
ATOM      3  C   UNL     1      -4.174  11.573  17.953  0.00  0.00    +0.000 A 
ATOM      4  O   UNL     1      -4.889  11.537  16.953  0.00  0.00    +0.000 OA
ATOM      5  C   UNL     1      -4.606  12.341  19.185  0.00  0.00    +0.000 A 
ATOM      6  C   UNL     1      -3.699  12.636  20.129  0.00  0.00    +0.000 A 
ATOM      7  C   UNL     1      -2.357  12.083  20.047  0.00  0.00    +0.000 A 
ATOM      8  C   UNL     1      -1.355  12.350  20.954  0.00  0.00    +0.000 A 
ATOM      9  N   UNL     1      -0.130  11.783  20.907  0.00  0.00    +0.000 NA
ATOM     10  C   UNL     1       0.075  10.874  19.947  0.00  0.00    +0.000 A 
ATOM     11  N   UNL     1       1.333  10.280  19.884  0.00  0.00    +0.000 N 
ATOM     12  N   UNL     1      -0.844  10.545  19.027  0.00  0.00    +0.000 NA
ATOM     13  C   UNL     1      -2.031  11.164  19.072  0.00  0.00    +0.000 A 
ATOM     14  H   UNL     1       1.952  10.672  20.581  0.00  0.00    +0.000 HD
ENDROOT
BRANCH  11  15
ATOM     15  C   UNL     1       1.650   8.981  19.463  0.00  0.00    +0.000 A 
ATOM     16  C   UNL     1       1.702   7.952  20.398  0.00  0.00    +0.000 A 
ATOM     17  C   UNL     1       2.061   6.647  20.016  0.00  0.00    +0.000 A 
ATOM     18  C   UNL     1       2.382   6.313  18.692  0.00  0.00    +0.000 A 
ATOM     19  C   UNL     1       2.292   7.358  17.763  0.00  0.00    +0.000 A 
ATOM     20  C   UNL     1       1.947   8.666  18.137  0.00  0.00    +0.000 A 
BRANCH  18  21
ATOM     21  N   UNL     1       2.760   5.042  18.317  0.00  0.00    +0.000 N 
ATOM     22  C   UNL     1       2.343   3.818  18.995  0.00  0.00    +0.000 C 
ATOM     23  C   UNL     1       3.556   2.905  18.866  0.00  0.00    +0.000 C 
ATOM     24  C   UNL     1       4.128   3.277  17.510  0.00  0.00    +0.000 C 
ATOM     25  C   UNL     1       3.882   4.782  17.411  0.00  0.00    +0.000 C 
ENDBRANCH  18  21
ENDBRANCH  11  15
BRANCH   5  26
ATOM     26  O   UNL     1      -5.922  12.750  19.393  0.00  0.00    +0.000 OA
BRANCH  26  27
ATOM     27  C   UNL     1      -6.586  12.475  20.570  0.00  0.00    +0.000 A 
ATOM     28  C   UNL     1      -7.201  11.254  20.895  0.00  0.00    +0.000 A 
ATOM     29 CL   UNL     1      -7.070   9.824  19.922  0.00  0.00    +0.000 Cl
ATOM     30  C   UNL     1      -7.896  11.112  22.103  0.00  0.00    +0.000 A 
ATOM     31  C   UNL     1      -7.900  12.140  23.041  0.00  0.00    +0.000 A 
ATOM     32  C   UNL     1      -7.198  13.313  22.778  0.00  0.00    +0.000 A 
ATOM     33  C   UNL     1      -6.553  13.482  21.548  0.00  0.00    +0.000 A 
ATOM     34 CL   UNL     1      -5.680  14.955  21.297  0.00  0.00    +0.000 Cl
ENDBRANCH  26  27
ENDBRANCH   5  26
TORSDOF 4
ENDMDL
MODEL 8
REMARK VINA RESULT:      -8.2      1.653      2.382
REMARK  Name = 
REMARK  5 active torsions:
REMARK  status: ('A' for Active; 'I' for Inactive)
REMARK    1  A    between atoms: C_1  and  N_2
REMARK    2  A    between atoms: C_5  and  O_6
REMARK    3  A    between atoms: O_6  and  C_7
REMARK    4  A    between atoms: N_20  and  C_21
REMARK    5  A    between atoms: C_24  and  N_25
REMARK                            x       y       z     vdW  Elec       q    Type
REMARK                         _______ _______ _______ _____ _____    ______ ____
ROOT
ATOM      1  C   UNL     1      -2.851   9.827  17.064  0.00  0.00    +0.000 C 
ATOM      2  N   UNL     1      -3.307  10.857  17.984  0.00  0.00    +0.000 N 
ATOM      3  C   UNL     1      -4.570  11.414  17.847  0.00  0.00    +0.000 A 
ATOM      4  O   UNL     1      -5.289  11.220  16.867  0.00  0.00    +0.000 OA
ATOM      5  C   UNL     1      -5.062  12.242  19.015  0.00  0.00    +0.000 A 
ATOM      6  C   UNL     1      -4.179  12.705  19.912  0.00  0.00    +0.000 A 
ATOM      7  C   UNL     1      -2.790  12.281  19.852  0.00  0.00    +0.000 A 
ATOM      8  C   UNL     1      -1.809  12.723  20.713  0.00  0.00    +0.000 A 
ATOM      9  N   UNL     1      -0.535  12.277  20.692  0.00  0.00    +0.000 NA
ATOM     10  C   UNL     1      -0.252  11.310  19.811  0.00  0.00    +0.000 A 
ATOM     11  N   UNL     1       1.058  10.838  19.776  0.00  0.00    +0.000 N 
ATOM     12  N   UNL     1      -1.143  10.814  18.941  0.00  0.00    +0.000 NA
ATOM     13  C   UNL     1      -2.385  11.316  18.955  0.00  0.00    +0.000 A 
ATOM     14  H   UNL     1       1.643  11.349  20.423  0.00  0.00    +0.000 HD
ENDROOT
BRANCH  11  15
ATOM     15  C   UNL     1       1.497   9.544  19.463  0.00  0.00    +0.000 A 
ATOM     16  C   UNL     1       1.903   9.255  18.164  0.00  0.00    +0.000 A 
ATOM     17  C   UNL     1       2.307   7.956  17.806  0.00  0.00    +0.000 A 
ATOM     18  C   UNL     1       2.322   6.895  18.722  0.00  0.00    +0.000 A 
ATOM     19  C   UNL     1       1.940   7.216  20.031  0.00  0.00    +0.000 A 
ATOM     20  C   UNL     1       1.524   8.507  20.395  0.00  0.00    +0.000 A 
BRANCH  18  21
ATOM     21  N   UNL     1       2.691   5.615  18.370  0.00  0.00    +0.000 N 
ATOM     22  C   UNL     1       4.067   5.177  18.153  0.00  0.00    +0.000 C 
ATOM     23  C   UNL     1       3.945   4.146  17.039  0.00  0.00    +0.000 C 
ATOM     24  C   UNL     1       2.607   3.486  17.321  0.00  0.00    +0.000 C 
ATOM     25  C   UNL     1       1.740   4.630  17.848  0.00  0.00    +0.000 C 
ENDBRANCH  18  21
ENDBRANCH  11  15
BRANCH   5  26
ATOM     26  O   UNL     1      -6.410  12.537  19.212  0.00  0.00    +0.000 OA
BRANCH  26  27
ATOM     27  C   UNL     1      -6.856  13.838  19.317  0.00  0.00    +0.000 A 
ATOM     28  C   UNL     1      -6.952  14.757  18.258  0.00  0.00    +0.000 A 
ATOM     29 CL   UNL     1      -6.684  14.338  16.597  0.00  0.00    +0.000 Cl
ATOM     30  C   UNL     1      -7.368  16.072  18.499  0.00  0.00    +0.000 A 
ATOM     31  C   UNL     1      -7.790  16.459  19.769  0.00  0.00    +0.000 A 
ATOM     32  C   UNL     1      -7.807  15.526  20.801  0.00  0.00    +0.000 A 
ATOM     33  C   UNL     1      -7.335  14.227  20.579  0.00  0.00    +0.000 A 
ATOM     34 CL   UNL     1      -7.406  13.111  21.899  0.00  0.00    +0.000 Cl
ENDBRANCH  26  27
ENDBRANCH   5  26
TORSDOF 4
ENDMDL
MODEL 9
REMARK VINA RESULT:      -8.2      2.807      4.051
REMARK  Name = 
REMARK  5 active torsions:
REMARK  status: ('A' for Active; 'I' for Inactive)
REMARK    1  A    between atoms: C_1  and  N_2
REMARK    2  A    between atoms: C_5  and  O_6
REMARK    3  A    between atoms: O_6  and  C_7
REMARK    4  A    between atoms: N_20  and  C_21
REMARK    5  A    between atoms: C_24  and  N_25
REMARK                            x       y       z     vdW  Elec       q    Type
REMARK                         _______ _______ _______ _____ _____    ______ ____
ROOT
ATOM      1  C   UNL     1       2.168  10.778  17.902  0.00  0.00    +0.000 C 
ATOM      2  N   UNL     1       1.039  10.815  18.816  0.00  0.00    +0.000 N 
ATOM      3  C   UNL     1       0.237  11.943  18.899  0.00  0.00    +0.000 A 
ATOM      4  O   UNL     1       0.524  13.015  18.368  0.00  0.00    +0.000 OA
ATOM      5  C   UNL     1      -1.073  11.775  19.642  0.00  0.00    +0.000 A 
ATOM      6  C   UNL     1      -1.230  10.734  20.472  0.00  0.00    +0.000 A 
ATOM      7  C   UNL     1      -0.219   9.691  20.532  0.00  0.00    +0.000 A 
ATOM      8  C   UNL     1      -0.282   8.600  21.371  0.00  0.00    +0.000 A 
ATOM      9  N   UNL     1       0.629   7.604  21.377  0.00  0.00    +0.000 NA
ATOM     10  C   UNL     1       1.609   7.680  20.468  0.00  0.00    +0.000 A 
ATOM     11  N   UNL     1       2.557   6.660  20.460  0.00  0.00    +0.000 N 
ATOM     12  N   UNL     1       1.745   8.699  19.607  0.00  0.00    +0.000 NA
ATOM     13  C   UNL     1       0.852   9.696  19.663  0.00  0.00    +0.000 A 
ATOM     14  H   UNL     1       2.383   6.001  21.207  0.00  0.00    +0.000 HD
ENDROOT
BRANCH  11  15
ATOM     15  C   UNL     1       3.262   6.151  19.361  0.00  0.00    +0.000 A 
ATOM     16  C   UNL     1       3.855   4.896  19.450  0.00  0.00    +0.000 A 
ATOM     17  C   UNL     1       4.607   4.374  18.382  0.00  0.00    +0.000 A 
ATOM     18  C   UNL     1       4.801   5.079  17.186  0.00  0.00    +0.000 A 
ATOM     19  C   UNL     1       4.168   6.327  17.105  0.00  0.00    +0.000 A 
ATOM     20  C   UNL     1       3.426   6.860  18.171  0.00  0.00    +0.000 A 
BRANCH  18  21
ATOM     21  N   UNL     1       5.559   4.584  16.146  0.00  0.00    +0.000 N 
ATOM     22  C   UNL     1       7.015   4.652  16.076  0.00  0.00    +0.000 C 
ATOM     23  C   UNL     1       7.295   4.833  14.589  0.00  0.00    +0.000 C 
ATOM     24  C   UNL     1       6.193   4.026  13.927  0.00  0.00    +0.000 C 
ATOM     25  C   UNL     1       4.987   4.235  14.843  0.00  0.00    +0.000 C 
ENDBRANCH  18  21
ENDBRANCH  11  15
BRANCH   5  26
ATOM     26  O   UNL     1      -2.141  12.657  19.490  0.00  0.00    +0.000 OA
BRANCH  26  27
ATOM     27  C   UNL     1      -3.383  12.222  19.077  0.00  0.00    +0.000 A 
ATOM     28  C   UNL     1      -3.658  11.570  17.862  0.00  0.00    +0.000 A 
ATOM     29 CL   UNL     1      -2.431  11.049  16.754  0.00  0.00    +0.000 Cl
ATOM     30  C   UNL     1      -4.974  11.225  17.528  0.00  0.00    +0.000 A 
ATOM     31  C   UNL     1      -6.011  11.428  18.435  0.00  0.00    +0.000 A 
ATOM     32  C   UNL     1      -5.732  11.969  19.687  0.00  0.00    +0.000 A 
ATOM     33  C   UNL     1      -4.430  12.371  20.002  0.00  0.00    +0.000 A 
ATOM     34 CL   UNL     1      -4.149  13.015  21.584  0.00  0.00    +0.000 Cl
ENDBRANCH  26  27
ENDBRANCH   5  26
TORSDOF 4
ENDMDL
