MODEL 1
REMARK VINA RESULT:      -8.6      0.000      0.000
REMARK  Name = 
REMARK  7 active torsions:
REMARK  status: ('A' for Active; 'I' for Inactive)
REMARK    1  A    between atoms: C_1  and  C_2
REMARK    2  A    between atoms: C_2  and  C_3
REMARK    3  A    between atoms: C_4  and  C_5
REMARK    4  A    between atoms: N_7  and  C_8
REMARK    5  A    between atoms: C_12  and  O_13
REMARK    6  A    between atoms: O_13  and  C_14
REMARK    7  A    between atoms: N_21  and  C_22
REMARK                            x       y       z     vdW  Elec       q    Type
REMARK                         _______ _______ _______ _____ _____    ______ ____
ROOT
ATOM      1  C   UNL     1      -1.058  12.516  21.205  0.00  0.00    +0.000 A 
ATOM      2  N   UNL     1      -1.768  11.993  20.197  0.00  0.00    +0.000 NA
ATOM      3  C   UNL     1      -2.958  12.519  19.914  0.00  0.00    +0.000 A 
ATOM      4  N   UNL     1      -3.726  11.991  18.880  0.00  0.00    +0.000 N 
ATOM      5  C   UNL     1      -3.332  11.166  17.888  0.00  0.00    +0.000 A 
ATOM      6  C   UNL     1      -2.250  10.254  17.941  0.00  0.00    +0.000 A 
ATOM      7  C   UNL     1      -2.149   9.724  16.678  0.00  0.00    +0.000 A 
ATOM      8  N   UNL     1      -3.155  10.299  15.967  0.00  0.00    +0.000 N 
ATOM      9  C   UNL     1      -3.402  10.141  14.555  0.00  0.00    +0.000 C 
ATOM     10  N   UNL     1      -3.927  11.136  16.688  0.00  0.00    +0.000 NA
ATOM     11  N   UNL     1      -3.455  13.564  20.585  0.00  0.00    +0.000 NA
ATOM     12  C   UNL     1      -2.694  14.128  21.556  0.00  0.00    +0.000 A 
ATOM     13  C   UNL     1      -1.437  13.647  21.899  0.00  0.00    +0.000 A 
ATOM     14  C   UNL     1      -0.564  14.203  22.976  0.00  0.00    +0.000 C 
ATOM     15  S   UNL     1      -0.946  15.902  23.474  0.00  0.00    +0.000 S 
ATOM     16  C   UNL     1      -2.746  15.719  23.557  0.00  0.00    +0.000 C 
ATOM     17  C   UNL     1      -3.299  15.356  22.188  0.00  0.00    +0.000 C 
ATOM     18  H   UNL     1      -4.526  12.581  18.711  0.00  0.00    +0.000 HD
ENDROOT
BRANCH   1  19
ATOM     19  O   UNL     1       0.118  11.855  21.569  0.00  0.00    +0.000 OA
BRANCH  19  24
ATOM     20  C   UNL     1       1.298   8.575  20.360  0.00  0.00    +0.000 A 
ATOM     21  C   UNL     1       1.565   8.889  19.022  0.00  0.00    +0.000 A 
ATOM     22  C   UNL     1       1.336  10.165  18.516  0.00  0.00    +0.000 A 
ATOM     23  C   UNL     1       0.823  11.151  19.344  0.00  0.00    +0.000 A 
ATOM     24  C   UNL     1       0.580  10.881  20.695  0.00  0.00    +0.000 A 
ATOM     25  C   UNL     1       0.776   9.580  21.195  0.00  0.00    +0.000 A 
BRANCH  20  28
ATOM     26  C   UNL     1       2.239   6.282  20.229  0.00  0.00    +0.000 C 
ATOM     27  O   UNL     1       2.747   6.369  19.116  0.00  0.00    +0.000 OA
ATOM     28  N   UNL     1       1.550   7.279  20.892  0.00  0.00    +0.000 N 
ATOM     29  H   UNL     1       1.294   7.121  21.859  0.00  0.00    +0.000 HD
BRANCH  26  33
ATOM     30  C   UNL     1       1.672   2.690  21.557  0.00  0.00    +0.000 C 
ATOM     31  C   UNL     1       1.645   3.903  20.670  0.00  0.00    +0.000 C 
ATOM     32  C   UNL     1       0.779   3.800  19.436  0.00  0.00    +0.000 C 
ATOM     33  C   UNL     1       2.360   5.005  20.992  0.00  0.00    +0.000 C 
ENDBRANCH  26  33
ENDBRANCH  20  28
ENDBRANCH  19  24
ENDBRANCH   1  19
TORSDOF 4
ENDMDL
MODEL 2
REMARK VINA RESULT:      -8.4      5.682      8.722
REMARK  Name = 
REMARK  7 active torsions:
REMARK  status: ('A' for Active; 'I' for Inactive)
REMARK    1  A    between atoms: C_1  and  C_2
REMARK    2  A    between atoms: C_2  and  C_3
REMARK    3  A    between atoms: C_4  and  C_5
REMARK    4  A    between atoms: N_7  and  C_8
REMARK    5  A    between atoms: C_12  and  O_13
REMARK    6  A    between atoms: O_13  and  C_14
REMARK    7  A    between atoms: N_21  and  C_22
REMARK                            x       y       z     vdW  Elec       q    Type
REMARK                         _______ _______ _______ _____ _____    ______ ____
ROOT
ATOM      1  C   UNL     1       2.778   6.606  18.449  0.00  0.00    +0.000 A 
ATOM      2  N   UNL     1       2.201   7.705  18.953  0.00  0.00    +0.000 NA
ATOM      3  C   UNL     1       1.630   7.633  20.154  0.00  0.00    +0.000 A 
ATOM      4  N   UNL     1       1.012   8.754  20.701  0.00  0.00    +0.000 N 
ATOM      5  C   UNL     1       1.134  10.041  20.318  0.00  0.00    +0.000 A 
ATOM      6  C   UNL     1       1.469  10.498  19.021  0.00  0.00    +0.000 A 
ATOM      7  C   UNL     1       1.596  11.862  19.128  0.00  0.00    +0.000 A 
ATOM      8  N   UNL     1       1.312  12.146  20.427  0.00  0.00    +0.000 N 
ATOM      9  C   UNL     1       1.412  13.438  21.060  0.00  0.00    +0.000 C 
ATOM     10  N   UNL     1       0.972  11.069  21.162  0.00  0.00    +0.000 NA
ATOM     11  N   UNL     1       1.635   6.510  20.882  0.00  0.00    +0.000 NA
ATOM     12  C   UNL     1       2.284   5.425  20.389  0.00  0.00    +0.000 A 
ATOM     13  C   UNL     1       2.918   5.427  19.153  0.00  0.00    +0.000 A 
ATOM     14  C   UNL     1       3.622   4.259  18.543  0.00  0.00    +0.000 C 
ATOM     15  S   UNL     1       4.126   2.970  19.710  0.00  0.00    +0.000 S 
ATOM     16  C   UNL     1       2.583   2.901  20.657  0.00  0.00    +0.000 C 
ATOM     17  C   UNL     1       2.316   4.241  21.322  0.00  0.00    +0.000 C 
ATOM     18  H   UNL     1       0.753   8.570  21.658  0.00  0.00    +0.000 HD
ENDROOT
BRANCH   1  19
ATOM     19  O   UNL     1       3.242   6.674  17.133  0.00  0.00    +0.000 OA
BRANCH  19  24
ATOM     20  C   UNL     1       6.215   5.072  15.649  0.00  0.00    +0.000 A 
ATOM     21  C   UNL     1       7.213   5.587  16.484  0.00  0.00    +0.000 A 
ATOM     22  C   UNL     1       6.912   6.475  17.513  0.00  0.00    +0.000 A 
ATOM     23  C   UNL     1       5.600   6.871  17.718  0.00  0.00    +0.000 A 
ATOM     24  C   UNL     1       4.574   6.345  16.925  0.00  0.00    +0.000 A 
ATOM     25  C   UNL     1       4.884   5.479  15.861  0.00  0.00    +0.000 A 
BRANCH  20  28
ATOM     26  C   UNL     1       7.021   4.496  13.373  0.00  0.00    +0.000 C 
ATOM     27  O   UNL     1       7.312   5.629  13.002  0.00  0.00    +0.000 OA
ATOM     28  N   UNL     1       6.511   4.147  14.608  0.00  0.00    +0.000 N 
ATOM     29  H   UNL     1       6.437   3.162  14.834  0.00  0.00    +0.000 HD
BRANCH  26  33
ATOM     30  C   UNL     1       6.440   1.484  11.012  0.00  0.00    +0.000 C 
ATOM     31  C   UNL     1       6.207   2.737  11.808  0.00  0.00    +0.000 C 
ATOM     32  C   UNL     1       4.784   3.243  11.841  0.00  0.00    +0.000 C 
ATOM     33  C   UNL     1       7.232   3.346  12.446  0.00  0.00    +0.000 C 
ENDBRANCH  26  33
ENDBRANCH  20  28
ENDBRANCH  19  24
ENDBRANCH   1  19
TORSDOF 4
ENDMDL
MODEL 3
REMARK VINA RESULT:      -8.3      2.289      2.919
REMARK  Name = 
REMARK  7 active torsions:
REMARK  status: ('A' for Active; 'I' for Inactive)
REMARK    1  A    between atoms: C_1  and  C_2
REMARK    2  A    between atoms: C_2  and  C_3
REMARK    3  A    between atoms: C_4  and  C_5
REMARK    4  A    between atoms: N_7  and  C_8
REMARK    5  A    between atoms: C_12  and  O_13
REMARK    6  A    between atoms: O_13  and  C_14
REMARK    7  A    between atoms: N_21  and  C_22
REMARK                            x       y       z     vdW  Elec       q    Type
REMARK                         _______ _______ _______ _____ _____    ______ ____
ROOT
ATOM      1  C   UNL     1      -0.132  11.681  19.285  0.00  0.00    +0.000 A 
ATOM      2  N   UNL     1      -1.103  11.242  18.473  0.00  0.00    +0.000 NA
ATOM      3  C   UNL     1      -2.349  11.663  18.683  0.00  0.00    +0.000 A 
ATOM      4  N   UNL     1      -3.383  11.217  17.863  0.00  0.00    +0.000 N 
ATOM      5  C   UNL     1      -3.289  10.610  16.662  0.00  0.00    +0.000 A 
ATOM      6  C   UNL     1      -2.198   9.835  16.201  0.00  0.00    +0.000 A 
ATOM      7  C   UNL     1      -2.488   9.524  14.895  0.00  0.00    +0.000 A 
ATOM      8  N   UNL     1      -3.705  10.081  14.657  0.00  0.00    +0.000 N 
ATOM      9  C   UNL     1      -4.395  10.118  13.391  0.00  0.00    +0.000 C 
ATOM     10  N   UNL     1      -4.245  10.698  15.727  0.00  0.00    +0.000 NA
ATOM     11  N   UNL     1      -2.659  12.524  19.658  0.00  0.00    +0.000 NA
ATOM     12  C   UNL     1      -1.654  13.014  20.428  0.00  0.00    +0.000 A 
ATOM     13  C   UNL     1      -0.328  12.637  20.261  0.00  0.00    +0.000 A 
ATOM     14  C   UNL     1       0.816  13.116  21.093  0.00  0.00    +0.000 C 
ATOM     15  S   UNL     1       0.519  14.659  21.993  0.00  0.00    +0.000 S 
ATOM     16  C   UNL     1      -1.138  14.255  22.602  0.00  0.00    +0.000 C 
ATOM     17  C   UNL     1      -2.089  14.049  21.435  0.00  0.00    +0.000 C 
ATOM     18  H   UNL     1      -4.227  11.728  18.068  0.00  0.00    +0.000 HD
ENDROOT
BRANCH   1  19
ATOM     19  O   UNL     1       1.136  11.114  19.131  0.00  0.00    +0.000 OA
BRANCH  19  24
ATOM     20  C   UNL     1       2.045   7.539  19.112  0.00  0.00    +0.000 A 
ATOM     21  C   UNL     1       1.586   7.163  20.380  0.00  0.00    +0.000 A 
ATOM     22  C   UNL     1       1.004   8.086  21.244  0.00  0.00    +0.000 A 
ATOM     23  C   UNL     1       0.879   9.409  20.855  0.00  0.00    +0.000 A 
ATOM     24  C   UNL     1       1.293   9.810  19.580  0.00  0.00    +0.000 A 
ATOM     25  C   UNL     1       1.916   8.885  18.723  0.00  0.00    +0.000 A 
BRANCH  20  28
ATOM     26  C   UNL     1       3.678   5.763  18.526  0.00  0.00    +0.000 C 
ATOM     27  O   UNL     1       4.250   5.692  19.609  0.00  0.00    +0.000 OA
ATOM     28  N   UNL     1       2.622   6.597  18.214  0.00  0.00    +0.000 N 
ATOM     29  H   UNL     1       2.155   6.465  17.324  0.00  0.00    +0.000 HD
BRANCH  26  33
ATOM     30  C   UNL     1       5.274   4.422  15.264  0.00  0.00    +0.000 C 
ATOM     31  C   UNL     1       4.986   5.285  16.460  0.00  0.00    +0.000 C 
ATOM     32  C   UNL     1       5.719   6.605  16.516  0.00  0.00    +0.000 C 
ATOM     33  C   UNL     1       4.112   4.875  17.408  0.00  0.00    +0.000 C 
ENDBRANCH  26  33
ENDBRANCH  20  28
ENDBRANCH  19  24
ENDBRANCH   1  19
TORSDOF 4
ENDMDL
MODEL 4
REMARK VINA RESULT:      -8.3      1.565      2.007
REMARK  Name = 
REMARK  7 active torsions:
REMARK  status: ('A' for Active; 'I' for Inactive)
REMARK    1  A    between atoms: C_1  and  C_2
REMARK    2  A    between atoms: C_2  and  C_3
REMARK    3  A    between atoms: C_4  and  C_5
REMARK    4  A    between atoms: N_7  and  C_8
REMARK    5  A    between atoms: C_12  and  O_13
REMARK    6  A    between atoms: O_13  and  C_14
REMARK    7  A    between atoms: N_21  and  C_22
REMARK                            x       y       z     vdW  Elec       q    Type
REMARK                         _______ _______ _______ _____ _____    ______ ____
ROOT
ATOM      1  C   UNL     1      -1.324  12.568  20.429  0.00  0.00    +0.000 A 
ATOM      2  N   UNL     1      -2.034  11.970  19.464  0.00  0.00    +0.000 NA
ATOM      3  C   UNL     1      -3.333  12.248  19.360  0.00  0.00    +0.000 A 
ATOM      4  N   UNL     1      -4.102  11.635  18.374  0.00  0.00    +0.000 N 
ATOM      5  C   UNL     1      -3.676  10.976  17.277  0.00  0.00    +0.000 A 
ATOM      6  C   UNL     1      -2.434  10.313  17.131  0.00  0.00    +0.000 A 
ATOM      7  C   UNL     1      -2.386   9.896  15.823  0.00  0.00    +0.000 A 
ATOM      8  N   UNL     1      -3.569  10.287  15.280  0.00  0.00    +0.000 N 
ATOM      9  C   UNL     1      -3.955  10.169  13.895  0.00  0.00    +0.000 C 
ATOM     10  N   UNL     1      -4.399  10.895  16.152  0.00  0.00    +0.000 NA
ATOM     11  N   UNL     1      -3.944  13.121  20.169  0.00  0.00    +0.000 NA
ATOM     12  C   UNL     1      -3.197  13.772  21.097  0.00  0.00    +0.000 A 
ATOM     13  C   UNL     1      -1.835  13.548  21.256  0.00  0.00    +0.000 A 
ATOM     14  C   UNL     1      -0.965  14.209  22.275  0.00  0.00    +0.000 C 
ATOM     15  S   UNL     1      -1.618  15.753  22.957  0.00  0.00    +0.000 S 
ATOM     16  C   UNL     1      -3.318  15.188  23.222  0.00  0.00    +0.000 C 
ATOM     17  C   UNL     1      -3.954  14.802  21.896  0.00  0.00    +0.000 C 
ATOM     18  H   UNL     1      -5.019  12.052  18.347  0.00  0.00    +0.000 HD
ENDROOT
BRANCH   1  19
ATOM     19  O   UNL     1      -0.002  12.150  20.602  0.00  0.00    +0.000 OA
BRANCH  19  24
ATOM     20  C   UNL     1       1.264   8.686  20.699  0.00  0.00    +0.000 A 
ATOM     21  C   UNL     1       0.567   8.203  21.814  0.00  0.00    +0.000 A 
ATOM     22  C   UNL     1      -0.293   9.019  22.542  0.00  0.00    +0.000 A 
ATOM     23  C   UNL     1      -0.466  10.342  22.170  0.00  0.00    +0.000 A 
ATOM     24  C   UNL     1       0.186  10.847  21.039  0.00  0.00    +0.000 A 
ATOM     25  C   UNL     1       1.085  10.032  20.327  0.00  0.00    +0.000 A 
BRANCH  20  28
ATOM     26  C   UNL     1       2.251   7.905  18.560  0.00  0.00    +0.000 C 
ATOM     27  O   UNL     1       1.662   8.675  17.808  0.00  0.00    +0.000 OA
ATOM     28  N   UNL     1       2.129   7.854  19.935  0.00  0.00    +0.000 N 
ATOM     29  H   UNL     1       2.768   7.260  20.450  0.00  0.00    +0.000 HD
BRANCH  26  33
ATOM     30  C   UNL     1       3.939   4.623  17.391  0.00  0.00    +0.000 C 
ATOM     31  C   UNL     1       2.893   5.616  17.815  0.00  0.00    +0.000 C 
ATOM     32  C   UNL     1       1.504   5.063  18.028  0.00  0.00    +0.000 C 
ATOM     33  C   UNL     1       3.214   6.919  17.990  0.00  0.00    +0.000 C 
ENDBRANCH  26  33
ENDBRANCH  20  28
ENDBRANCH  19  24
ENDBRANCH   1  19
TORSDOF 4
ENDMDL
MODEL 5
REMARK VINA RESULT:      -8.3      1.576      1.949
REMARK  Name = 
REMARK  7 active torsions:
REMARK  status: ('A' for Active; 'I' for Inactive)
REMARK    1  A    between atoms: C_1  and  C_2
REMARK    2  A    between atoms: C_2  and  C_3
REMARK    3  A    between atoms: C_4  and  C_5
REMARK    4  A    between atoms: N_7  and  C_8
REMARK    5  A    between atoms: C_12  and  O_13
REMARK    6  A    between atoms: O_13  and  C_14
REMARK    7  A    between atoms: N_21  and  C_22
REMARK                            x       y       z     vdW  Elec       q    Type
REMARK                         _______ _______ _______ _____ _____    ______ ____
ROOT
ATOM      1  C   UNL     1      -1.348  11.923  20.679  0.00  0.00    +0.000 A 
ATOM      2  N   UNL     1      -2.108  11.532  19.648  0.00  0.00    +0.000 NA
ATOM      3  C   UNL     1      -3.268  12.152  19.438  0.00  0.00    +0.000 A 
ATOM      4  N   UNL     1      -4.086  11.762  18.380  0.00  0.00    +0.000 N 
ATOM      5  C   UNL     1      -3.762  11.003  17.314  0.00  0.00    +0.000 A 
ATOM      6  C   UNL     1      -2.739  10.026  17.265  0.00  0.00    +0.000 A 
ATOM      7  C   UNL     1      -2.694   9.600  15.959  0.00  0.00    +0.000 A 
ATOM      8  N   UNL     1      -3.675  10.293  15.324  0.00  0.00    +0.000 N 
ATOM      9  C   UNL     1      -3.957  10.272  13.909  0.00  0.00    +0.000 C 
ATOM     10  N   UNL     1      -4.380  11.111  16.130  0.00  0.00    +0.000 NA
ATOM     11  N   UNL     1      -3.686  13.165  20.205  0.00  0.00    +0.000 NA
ATOM     12  C   UNL     1      -2.874  13.596  21.203  0.00  0.00    +0.000 A 
ATOM     13  C   UNL     1      -1.643  13.012  21.474  0.00  0.00    +0.000 A 
ATOM     14  C   UNL     1      -0.718  13.420  22.573  0.00  0.00    +0.000 C 
ATOM     15  S   UNL     1      -0.983  15.090  23.221  0.00  0.00    +0.000 S 
ATOM     16  C   UNL     1      -2.789  15.010  23.330  0.00  0.00    +0.000 C 
ATOM     17  C   UNL     1      -3.389  14.801  21.950  0.00  0.00    +0.000 C 
ATOM     18  H   UNL     1      -4.850  12.412  18.281  0.00  0.00    +0.000 HD
ENDROOT
BRANCH   1  19
ATOM     19  O   UNL     1      -0.209  11.163  20.958  0.00  0.00    +0.000 OA
BRANCH  19  24
ATOM     20  C   UNL     1       1.779   9.344  18.438  0.00  0.00    +0.000 A 
ATOM     21  C   UNL     1       2.453  10.415  17.840  0.00  0.00    +0.000 A 
ATOM     22  C   UNL     1       2.236  11.728  18.246  0.00  0.00    +0.000 A 
ATOM     23  C   UNL     1       1.329  11.994  19.259  0.00  0.00    +0.000 A 
ATOM     24  C   UNL     1       0.666  10.943  19.904  0.00  0.00    +0.000 A 
ATOM     25  C   UNL     1       0.857   9.620  19.465  0.00  0.00    +0.000 A 
BRANCH  20  28
ATOM     26  C   UNL     1       2.313   6.967  18.915  0.00  0.00    +0.000 C 
ATOM     27  O   UNL     1       2.403   7.054  20.135  0.00  0.00    +0.000 OA
ATOM     28  N   UNL     1       2.010   7.996  18.044  0.00  0.00    +0.000 N 
ATOM     29  H   UNL     1       1.838   7.765  17.073  0.00  0.00    +0.000 HD
BRANCH  26  33
ATOM     30  C   UNL     1       3.830   4.036  16.892  0.00  0.00    +0.000 C 
ATOM     31  C   UNL     1       3.704   5.306  17.685  0.00  0.00    +0.000 C 
ATOM     32  C   UNL     1       4.954   6.149  17.786  0.00  0.00    +0.000 C 
ATOM     33  C   UNL     1       2.526   5.645  18.256  0.00  0.00    +0.000 C 
ENDBRANCH  26  33
ENDBRANCH  20  28
ENDBRANCH  19  24
ENDBRANCH   1  19
TORSDOF 4
ENDMDL
MODEL 6
REMARK VINA RESULT:      -8.3      1.267      1.875
REMARK  Name = 
REMARK  7 active torsions:
REMARK  status: ('A' for Active; 'I' for Inactive)
REMARK    1  A    between atoms: C_1  and  C_2
REMARK    2  A    between atoms: C_2  and  C_3
REMARK    3  A    between atoms: C_4  and  C_5
REMARK    4  A    between atoms: N_7  and  C_8
REMARK    5  A    between atoms: C_12  and  O_13
REMARK    6  A    between atoms: O_13  and  C_14
REMARK    7  A    between atoms: N_21  and  C_22
REMARK                            x       y       z     vdW  Elec       q    Type
REMARK                         _______ _______ _______ _____ _____    ______ ____
ROOT
ATOM      1  C   UNL     1      -1.141  12.926  21.400  0.00  0.00    +0.000 A 
ATOM      2  N   UNL     1      -1.809  12.354  20.389  0.00  0.00    +0.000 NA
ATOM      3  C   UNL     1      -3.026  12.805  20.091  0.00  0.00    +0.000 A 
ATOM      4  N   UNL     1      -3.751  12.225  19.053  0.00  0.00    +0.000 N 
ATOM      5  C   UNL     1      -3.298  11.420  18.072  0.00  0.00    +0.000 A 
ATOM      6  C   UNL     1      -2.164  10.575  18.141  0.00  0.00    +0.000 A 
ATOM      7  C   UNL     1      -2.018  10.044  16.882  0.00  0.00    +0.000 A 
ATOM      8  N   UNL     1      -3.050  10.552  16.159  0.00  0.00    +0.000 N 
ATOM      9  C   UNL     1      -3.274  10.370  14.745  0.00  0.00    +0.000 C 
ATOM     10  N   UNL     1      -3.879  11.345  16.866  0.00  0.00    +0.000 NA
ATOM     11  N   UNL     1      -3.591  13.823  20.750  0.00  0.00    +0.000 NA
ATOM     12  C   UNL     1      -2.875  14.439  21.724  0.00  0.00    +0.000 A 
ATOM     13  C   UNL     1      -1.594  14.037  22.081  0.00  0.00    +0.000 A 
ATOM     14  C   UNL     1      -0.767  14.652  23.163  0.00  0.00    +0.000 C 
ATOM     15  S   UNL     1      -1.255  16.327  23.645  0.00  0.00    +0.000 S 
ATOM     16  C   UNL     1      -3.042  16.036  23.712  0.00  0.00    +0.000 C 
ATOM     17  C   UNL     1      -3.559  15.632  22.342  0.00  0.00    +0.000 C 
ATOM     18  H   UNL     1      -4.582  12.765  18.873  0.00  0.00    +0.000 HD
ENDROOT
BRANCH   1  19
ATOM     19  O   UNL     1       0.069  12.339  21.779  0.00  0.00    +0.000 OA
BRANCH  19  24
ATOM     20  C   UNL     1       1.009   8.916  20.775  0.00  0.00    +0.000 A 
ATOM     21  C   UNL     1       0.218   8.175  21.661  0.00  0.00    +0.000 A 
ATOM     22  C   UNL     1      -0.600   8.799  22.599  0.00  0.00    +0.000 A 
ATOM     23  C   UNL     1      -0.634  10.182  22.671  0.00  0.00    +0.000 A 
ATOM     24  C   UNL     1       0.116  10.952  21.775  0.00  0.00    +0.000 A 
ATOM     25  C   UNL     1       0.972  10.321  20.855  0.00  0.00    +0.000 A 
BRANCH  20  28
ATOM     26  C   UNL     1       2.222   6.962  19.840  0.00  0.00    +0.000 C 
ATOM     27  O   UNL     1       1.904   6.139  20.692  0.00  0.00    +0.000 OA
ATOM     28  N   UNL     1       1.833   8.287  19.799  0.00  0.00    +0.000 N 
ATOM     29  H   UNL     1       2.057   8.826  18.971  0.00  0.00    +0.000 HD
BRANCH  26  33
ATOM     30  C   UNL     1       3.933   4.903  17.044  0.00  0.00    +0.000 C 
ATOM     31  C   UNL     1       2.935   5.361  18.069  0.00  0.00    +0.000 C 
ATOM     32  C   UNL     1       1.776   4.426  18.327  0.00  0.00    +0.000 C 
ATOM     33  C   UNL     1       3.098   6.543  18.707  0.00  0.00    +0.000 C 
ENDBRANCH  26  33
ENDBRANCH  20  28
ENDBRANCH  19  24
ENDBRANCH   1  19
TORSDOF 4
ENDMDL
MODEL 7
REMARK VINA RESULT:      -8.3      5.157      8.805
REMARK  Name = 
REMARK  7 active torsions:
REMARK  status: ('A' for Active; 'I' for Inactive)
REMARK    1  A    between atoms: C_1  and  C_2
REMARK    2  A    between atoms: C_2  and  C_3
REMARK    3  A    between atoms: C_4  and  C_5
REMARK    4  A    between atoms: N_7  and  C_8
REMARK    5  A    between atoms: C_12  and  O_13
REMARK    6  A    between atoms: O_13  and  C_14
REMARK    7  A    between atoms: N_21  and  C_22
REMARK                            x       y       z     vdW  Elec       q    Type
REMARK                         _______ _______ _______ _____ _____    ______ ____
ROOT
ATOM      1  C   UNL     1       2.846   5.912  18.437  0.00  0.00    +0.000 A 
ATOM      2  N   UNL     1       2.287   7.079  18.782  0.00  0.00    +0.000 NA
ATOM      3  C   UNL     1       1.693   7.177  19.970  0.00  0.00    +0.000 A 
ATOM      4  N   UNL     1       1.092   8.373  20.354  0.00  0.00    +0.000 N 
ATOM      5  C   UNL     1       1.253   9.596  19.810  0.00  0.00    +0.000 A 
ATOM      6  C   UNL     1       1.621   9.874  18.471  0.00  0.00    +0.000 A 
ATOM      7  C   UNL     1       1.780  11.236  18.403  0.00  0.00    +0.000 A 
ATOM      8  N   UNL     1       1.480  11.693  19.647  0.00  0.00    +0.000 N 
ATOM      9  C   UNL     1       1.599  13.055  20.110  0.00  0.00    +0.000 C 
ATOM     10  N   UNL     1       1.101  10.729  20.509  0.00  0.00    +0.000 NA
ATOM     11  N   UNL     1       1.658   6.159  20.837  0.00  0.00    +0.000 NA
ATOM     12  C   UNL     1       2.289   5.005  20.503  0.00  0.00    +0.000 A 
ATOM     13  C   UNL     1       2.944   4.832  19.290  0.00  0.00    +0.000 A 
ATOM     14  C   UNL     1       3.631   3.580  18.852  0.00  0.00    +0.000 C 
ATOM     15  S   UNL     1       4.083   2.444  20.186  0.00  0.00    +0.000 S 
ATOM     16  C   UNL     1       2.522   2.531  21.102  0.00  0.00    +0.000 C 
ATOM     17  C   UNL     1       2.276   3.952  21.582  0.00  0.00    +0.000 C 
ATOM     18  H   UNL     1       0.813   8.321  21.320  0.00  0.00    +0.000 HD
ENDROOT
BRANCH   1  19
ATOM     19  O   UNL     1       3.334   5.798  17.132  0.00  0.00    +0.000 OA
BRANCH  19  24
ATOM     20  C   UNL     1       6.959   6.304  17.591  0.00  0.00    +0.000 A 
ATOM     21  C   UNL     1       7.455   5.322  16.726  0.00  0.00    +0.000 A 
ATOM     22  C   UNL     1       6.602   4.483  16.015  0.00  0.00    +0.000 A 
ATOM     23  C   UNL     1       5.230   4.609  16.167  0.00  0.00    +0.000 A 
ATOM     24  C   UNL     1       4.701   5.604  16.995  0.00  0.00    +0.000 A 
ATOM     25  C   UNL     1       5.565   6.426  17.742  0.00  0.00    +0.000 A 
BRANCH  20  28
ATOM     26  C   UNL     1       8.000   8.519  18.009  0.00  0.00    +0.000 C 
ATOM     27  O   UNL     1       7.432   9.145  17.119  0.00  0.00    +0.000 OA
ATOM     28  N   UNL     1       7.824   7.181  18.306  0.00  0.00    +0.000 N 
ATOM     29  H   UNL     1       8.254   6.818  19.147  0.00  0.00    +0.000 HD
BRANCH  26  33
ATOM     30  C   UNL     1      10.359  11.172  19.552  0.00  0.00    +0.000 C 
ATOM     31  C   UNL     1       9.259  10.537  18.748  0.00  0.00    +0.000 C 
ATOM     32  C   UNL     1       8.529  11.450  17.791  0.00  0.00    +0.000 C 
ATOM     33  C   UNL     1       8.972   9.224  18.895  0.00  0.00    +0.000 C 
ENDBRANCH  26  33
ENDBRANCH  20  28
ENDBRANCH  19  24
ENDBRANCH   1  19
TORSDOF 4
ENDMDL
MODEL 8
REMARK VINA RESULT:      -8.2      1.098      1.375
REMARK  Name = 
REMARK  7 active torsions:
REMARK  status: ('A' for Active; 'I' for Inactive)
REMARK    1  A    between atoms: C_1  and  C_2
REMARK    2  A    between atoms: C_2  and  C_3
REMARK    3  A    between atoms: C_4  and  C_5
REMARK    4  A    between atoms: N_7  and  C_8
REMARK    5  A    between atoms: C_12  and  O_13
REMARK    6  A    between atoms: O_13  and  C_14
REMARK    7  A    between atoms: N_21  and  C_22
REMARK                            x       y       z     vdW  Elec       q    Type
REMARK                         _______ _______ _______ _____ _____    ______ ____
ROOT
ATOM      1  C   UNL     1      -1.155  12.110  20.719  0.00  0.00    +0.000 A 
ATOM      2  N   UNL     1      -1.930  11.680  19.715  0.00  0.00    +0.000 NA
ATOM      3  C   UNL     1      -3.104  12.276  19.514  0.00  0.00    +0.000 A 
ATOM      4  N   UNL     1      -3.938  11.846  18.485  0.00  0.00    +0.000 N 
ATOM      5  C   UNL     1      -3.625  11.063  17.433  0.00  0.00    +0.000 A 
ATOM      6  C   UNL     1      -2.588  10.101  17.387  0.00  0.00    +0.000 A 
ATOM      7  C   UNL     1      -2.564   9.641  16.093  0.00  0.00    +0.000 A 
ATOM      8  N   UNL     1      -3.569  10.302  15.460  0.00  0.00    +0.000 N 
ATOM      9  C   UNL     1      -3.881  10.238  14.053  0.00  0.00    +0.000 C 
ATOM     10  N   UNL     1      -4.270  11.130  16.260  0.00  0.00    +0.000 NA
ATOM     11  N   UNL     1      -3.522  13.303  20.263  0.00  0.00    +0.000 NA
ATOM     12  C   UNL     1      -2.695  13.773  21.231  0.00  0.00    +0.000 A 
ATOM     13  C   UNL     1      -1.450  13.216  21.490  0.00  0.00    +0.000 A 
ATOM     14  C   UNL     1      -0.508  13.667  22.559  0.00  0.00    +0.000 C 
ATOM     15  S   UNL     1      -0.786  15.349  23.167  0.00  0.00    +0.000 S 
ATOM     16  C   UNL     1      -2.588  15.245  23.318  0.00  0.00    +0.000 C 
ATOM     17  C   UNL     1      -3.213  14.989  21.957  0.00  0.00    +0.000 C 
ATOM     18  H   UNL     1      -4.714  12.481  18.385  0.00  0.00    +0.000 HD
ENDROOT
BRANCH   1  19
ATOM     19  O   UNL     1       0.001  11.375  20.993  0.00  0.00    +0.000 OA
BRANCH  19  24
ATOM     20  C   UNL     1       1.509   9.155  18.462  0.00  0.00    +0.000 A 
ATOM     21  C   UNL     1       2.295  10.079  17.763  0.00  0.00    +0.000 A 
ATOM     22  C   UNL     1       2.308  11.427  18.107  0.00  0.00    +0.000 A 
ATOM     23  C   UNL     1       1.525  11.877  19.157  0.00  0.00    +0.000 A 
ATOM     24  C   UNL     1       0.757  10.974  19.900  0.00  0.00    +0.000 A 
ATOM     25  C   UNL     1       0.714   9.618  19.527  0.00  0.00    +0.000 A 
BRANCH  20  28
ATOM     26  C   UNL     1       2.488   6.874  18.505  0.00  0.00    +0.000 C 
ATOM     27  O   UNL     1       3.479   7.126  19.184  0.00  0.00    +0.000 OA
ATOM     28  N   UNL     1       1.505   7.771  18.131  0.00  0.00    +0.000 N 
ATOM     29  H   UNL     1       0.674   7.408  17.681  0.00  0.00    +0.000 HD
BRANCH  26  33
ATOM     30  C   UNL     1       1.760   3.075  18.361  0.00  0.00    +0.000 C 
ATOM     31  C   UNL     1       1.818   4.499  18.840  0.00  0.00    +0.000 C 
ATOM     32  C   UNL     1       1.358   4.738  20.259  0.00  0.00    +0.000 C 
ATOM     33  C   UNL     1       2.265   5.480  18.023  0.00  0.00    +0.000 C 
ENDBRANCH  26  33
ENDBRANCH  20  28
ENDBRANCH  19  24
ENDBRANCH   1  19
TORSDOF 4
ENDMDL
MODEL 9
REMARK VINA RESULT:      -8.1      1.852      2.333
REMARK  Name = 
REMARK  7 active torsions:
REMARK  status: ('A' for Active; 'I' for Inactive)
REMARK    1  A    between atoms: C_1  and  C_2
REMARK    2  A    between atoms: C_2  and  C_3
REMARK    3  A    between atoms: C_4  and  C_5
REMARK    4  A    between atoms: N_7  and  C_8
REMARK    5  A    between atoms: C_12  and  O_13
REMARK    6  A    between atoms: O_13  and  C_14
REMARK    7  A    between atoms: N_21  and  C_22
REMARK                            x       y       z     vdW  Elec       q    Type
REMARK                         _______ _______ _______ _____ _____    ______ ____
ROOT
ATOM      1  C   UNL     1      -0.601  12.031  19.653  0.00  0.00    +0.000 A 
ATOM      2  N   UNL     1      -1.468  11.506  18.778  0.00  0.00    +0.000 NA
ATOM      3  C   UNL     1      -2.760  11.806  18.901  0.00  0.00    +0.000 A 
ATOM      4  N   UNL     1      -3.689  11.267  18.014  0.00  0.00    +0.000 N 
ATOM      5  C   UNL     1      -3.457  10.676  16.824  0.00  0.00    +0.000 A 
ATOM      6  C   UNL     1      -2.269  10.009  16.440  0.00  0.00    +0.000 A 
ATOM      7  C   UNL     1      -2.439   9.678  15.118  0.00  0.00    +0.000 A 
ATOM      8  N   UNL     1      -3.684  10.118  14.796  0.00  0.00    +0.000 N 
ATOM      9  C   UNL     1      -4.287  10.095  13.486  0.00  0.00    +0.000 C 
ATOM     10  N   UNL     1      -4.351  10.678  15.826  0.00  0.00    +0.000 NA
ATOM     11  N   UNL     1      -3.215  12.631  19.850  0.00  0.00    +0.000 NA
ATOM     12  C   UNL     1      -2.316  13.211  20.685  0.00  0.00    +0.000 A 
ATOM     13  C   UNL     1      -0.952  12.961  20.610  0.00  0.00    +0.000 A 
ATOM     14  C   UNL     1       0.083  13.543  21.517  0.00  0.00    +0.000 C 
ATOM     15  S   UNL     1      -0.419  15.047  22.390  0.00  0.00    +0.000 S 
ATOM     16  C   UNL     1      -2.068  14.486  22.887  0.00  0.00    +0.000 C 
ATOM     17  C   UNL     1      -2.914  14.195  21.658  0.00  0.00    +0.000 C 
ATOM     18  H   UNL     1      -4.589  11.696  18.159  0.00  0.00    +0.000 HD
ENDROOT
BRANCH   1  19
ATOM     19  O   UNL     1       0.722  11.587  19.586  0.00  0.00    +0.000 OA
BRANCH  19  24
ATOM     20  C   UNL     1       1.860   8.077  19.562  0.00  0.00    +0.000 A 
ATOM     21  C   UNL     1       1.441   7.676  20.836  0.00  0.00    +0.000 A 
ATOM     22  C   UNL     1       0.812   8.562  21.706  0.00  0.00    +0.000 A 
ATOM     23  C   UNL     1       0.597   9.874  21.316  0.00  0.00    +0.000 A 
ATOM     24  C   UNL     1       0.969  10.297  20.035  0.00  0.00    +0.000 A 
ATOM     25  C   UNL     1       1.640   9.412  19.172  0.00  0.00    +0.000 A 
BRANCH  20  28
ATOM     26  C   UNL     1       2.421   5.797  18.759  0.00  0.00    +0.000 C 
ATOM     27  O   UNL     1       1.810   5.160  19.611  0.00  0.00    +0.000 OA
ATOM     28  N   UNL     1       2.485   7.173  18.658  0.00  0.00    +0.000 N 
ATOM     29  H   UNL     1       2.914   7.572  17.832  0.00  0.00    +0.000 HD
BRANCH  26  33
ATOM     30  C   UNL     1       5.243   4.175  16.663  0.00  0.00    +0.000 C 
ATOM     31  C   UNL     1       4.485   4.767  17.818  0.00  0.00    +0.000 C 
ATOM     32  C   UNL     1       5.280   4.997  19.082  0.00  0.00    +0.000 C 
ATOM     33  C   UNL     1       3.172   5.066  17.696  0.00  0.00    +0.000 C 
ENDBRANCH  26  33
ENDBRANCH  20  28
ENDBRANCH  19  24
ENDBRANCH   1  19
TORSDOF 4
ENDMDL
