MODEL 1
REMARK VINA RESULT:      -7.6      0.000      0.000
REMARK  Name = 
REMARK  4 active torsions:
REMARK  status: ('A' for Active; 'I' for Inactive)
REMARK    1  A    between atoms: C_1  and  C_2
REMARK    2  A    between atoms: N_7  and  C_8
REMARK    3  A    between atoms: C_10  and  C_11
REMARK    4  A    between atoms: C_17  and  C_18
REMARK                            x       y       z     vdW  Elec       q    Type
REMARK                         _______ _______ _______ _____ _____    ______ ____
ROOT
ATOM      1  C   UNL     1       0.338  10.848  19.161  0.00  0.00    +0.000 A 
ATOM      2  N   UNL     1      -1.001  10.754  19.264  0.00  0.00    +0.000 NA
ATOM      3  C   UNL     1      -1.717  11.902  19.172  0.00  0.00    +0.000 A 
ATOM      4  N   UNL     1      -1.197  13.132  19.093  0.00  0.00    +0.000 NA
ATOM      5  C   UNL     1       0.119  13.178  18.946  0.00  0.00    +0.000 A 
ATOM      6  C   UNL     1       0.902  12.059  18.845  0.00  0.00    +0.000 A 
ATOM      7  C   UNL     1       2.241  12.417  18.306  0.00  0.00    +0.000 C 
ATOM      8  C   UNL     1       2.194  13.968  18.327  0.00  0.00    +0.000 C 
ATOM      9  C   UNL     1       3.342  14.554  19.160  0.00  0.00    +0.000 C 
ATOM     10  O   UNL     1       3.048  15.845  19.697  0.00  0.00    +0.000 OA
ATOM     11  C   UNL     1       1.899  15.750  20.551  0.00  0.00    +0.000 C 
ATOM     12  C   UNL     1       0.635  15.431  19.744  0.00  0.00    +0.000 C 
ATOM     13  N   UNL     1       0.836  14.367  18.756  0.00  0.00    +0.000 N 
ENDROOT
BRANCH   3  14
ATOM     14  C   UNL     1      -3.136  11.795  18.841  0.00  0.00    +0.000 A 
ATOM     15  C   UNL     1      -4.093  12.228  19.752  0.00  0.00    +0.000 A 
ATOM     16  N   UNL     1      -5.430  12.100  19.611  0.00  0.00    +0.000 NA
ATOM     17  C   UNL     1      -5.847  11.492  18.506  0.00  0.00    +0.000 A 
ATOM     18  N   UNL     1      -7.200  11.346  18.317  0.00  0.00    +0.000 N 
ATOM     19  N   UNL     1      -5.036  11.050  17.548  0.00  0.00    +0.000 NA
ATOM     20  C   UNL     1      -3.678  11.187  17.713  0.00  0.00    +0.000 A 
ATOM     21  H   UNL     1      -7.704  12.037  18.853  0.00  0.00    +0.000 HD
ATOM     22  H   UNL     1      -7.411  11.273  17.331  0.00  0.00    +0.000 HD
BRANCH  20  23
ATOM     23  C   UNL     1      -2.847  10.627  16.567  0.00  0.00    +0.000 C 
ATOM     24  F   UNL     1      -2.040   9.566  16.842  0.00  0.00    +0.000 F 
ATOM     25  F   UNL     1      -3.607  10.255  15.495  0.00  0.00    +0.000 F 
ATOM     26  F   UNL     1      -1.980  11.572  16.080  0.00  0.00    +0.000 F 
ENDBRANCH  20  23
ENDBRANCH   3  14
BRANCH   1  33
ATOM     27  C   UNL     1       0.340   9.401  21.723  0.00  0.00    +0.000 C 
ATOM     28  C   UNL     1       0.735   8.769  20.391  0.00  0.00    +0.000 C 
ATOM     29  C   UNL     1       1.915   7.785  20.599  0.00  0.00    +0.000 C 
ATOM     30  O   UNL     1       2.185   7.044  19.395  0.00  0.00    +0.000 OA
ATOM     31  C   UNL     1       2.478   7.929  18.299  0.00  0.00    +0.000 C 
ATOM     32  C   UNL     1       1.346   8.950  18.065  0.00  0.00    +0.000 C 
ATOM     33  N   UNL     1       1.162   9.728  19.317  0.00  0.00    +0.000 N 
ENDBRANCH   1  33
TORSDOF 3
ENDMDL
MODEL 2
REMARK VINA RESULT:      -7.6      5.780     10.338
REMARK  Name = 
REMARK  4 active torsions:
REMARK  status: ('A' for Active; 'I' for Inactive)
REMARK    1  A    between atoms: C_1  and  C_2
REMARK    2  A    between atoms: N_7  and  C_8
REMARK    3  A    between atoms: C_10  and  C_11
REMARK    4  A    between atoms: C_17  and  C_18
REMARK                            x       y       z     vdW  Elec       q    Type
REMARK                         _______ _______ _______ _____ _____    ______ ____
ROOT
ATOM      1  C   UNL     1       2.686   6.374  18.317  0.00  0.00    +0.000 A 
ATOM      2  N   UNL     1       3.790   6.484  17.555  0.00  0.00    +0.000 NA
ATOM      3  C   UNL     1       4.544   5.369  17.384  0.00  0.00    +0.000 A 
ATOM      4  N   UNL     1       4.338   4.197  17.994  0.00  0.00    +0.000 NA
ATOM      5  C   UNL     1       3.217   4.116  18.695  0.00  0.00    +0.000 A 
ATOM      6  C   UNL     1       2.307   5.136  18.772  0.00  0.00    +0.000 A 
ATOM      7  C   UNL     1       1.007   4.625  19.286  0.00  0.00    +0.000 C 
ATOM      8  C   UNL     1       1.376   3.181  19.719  0.00  0.00    +0.000 C 
ATOM      9  C   UNL     1       1.058   2.940  21.201  0.00  0.00    +0.000 C 
ATOM     10  O   UNL     1       1.863   1.920  21.793  0.00  0.00    +0.000 OA
ATOM     11  C   UNL     1       3.244   2.298  21.704  0.00  0.00    +0.000 C 
ATOM     12  C   UNL     1       3.725   2.297  20.248  0.00  0.00    +0.000 C 
ATOM     13  N   UNL     1       2.783   2.945  19.330  0.00  0.00    +0.000 N 
ENDROOT
BRANCH   3  14
ATOM     14  C   UNL     1       5.463   5.337  16.248  0.00  0.00    +0.000 A 
ATOM     15  C   UNL     1       5.171   4.541  15.146  0.00  0.00    +0.000 A 
ATOM     16  N   UNL     1       5.976   4.350  14.078  0.00  0.00    +0.000 NA
ATOM     17  C   UNL     1       7.150   4.970  14.110  0.00  0.00    +0.000 A 
ATOM     18  N   UNL     1       7.998   4.810  13.040  0.00  0.00    +0.000 N 
ATOM     19  N   UNL     1       7.540   5.775  15.096  0.00  0.00    +0.000 NA
ATOM     20  C   UNL     1       6.708   5.954  16.175  0.00  0.00    +0.000 A 
ATOM     21  H   UNL     1       7.477   4.545  12.218  0.00  0.00    +0.000 HD
ATOM     22  H   UNL     1       8.622   5.601  12.965  0.00  0.00    +0.000 HD
BRANCH  20  23
ATOM     23  C   UNL     1       7.265   6.875  17.251  0.00  0.00    +0.000 C 
ATOM     24  F   UNL     1       6.432   7.831  17.746  0.00  0.00    +0.000 F 
ATOM     25  F   UNL     1       7.742   6.193  18.334  0.00  0.00    +0.000 F 
ATOM     26  F   UNL     1       8.335   7.592  16.781  0.00  0.00    +0.000 F 
ENDBRANCH  20  23
ENDBRANCH   3  14
BRANCH   1  33
ATOM     27  C   UNL     1       1.984   6.952  21.115  0.00  0.00    +0.000 C 
ATOM     28  C   UNL     1       2.015   8.007  20.013  0.00  0.00    +0.000 C 
ATOM     29  C   UNL     1       0.858   9.019  20.214  0.00  0.00    +0.000 C 
ATOM     30  O   UNL     1       0.974  10.122  19.296  0.00  0.00    +0.000 OA
ATOM     31  C   UNL     1       0.985   9.660  17.933  0.00  0.00    +0.000 C 
ATOM     32  C   UNL     1       2.102   8.627  17.683  0.00  0.00    +0.000 C 
ATOM     33  N   UNL     1       1.888   7.486  18.610  0.00  0.00    +0.000 N 
ENDBRANCH   1  33
TORSDOF 3
ENDMDL
MODEL 3
REMARK VINA RESULT:      -7.4      1.913      2.331
REMARK  Name = 
REMARK  4 active torsions:
REMARK  status: ('A' for Active; 'I' for Inactive)
REMARK    1  A    between atoms: C_1  and  C_2
REMARK    2  A    between atoms: N_7  and  C_8
REMARK    3  A    between atoms: C_10  and  C_11
REMARK    4  A    between atoms: C_17  and  C_18
REMARK                            x       y       z     vdW  Elec       q    Type
REMARK                         _______ _______ _______ _____ _____    ______ ____
ROOT
ATOM      1  C   UNL     1       0.541  10.854  18.981  0.00  0.00    +0.000 A 
ATOM      2  N   UNL     1      -0.800  10.783  19.071  0.00  0.00    +0.000 NA
ATOM      3  C   UNL     1      -1.493  11.948  19.021  0.00  0.00    +0.000 A 
ATOM      4  N   UNL     1      -0.948  13.170  18.997  0.00  0.00    +0.000 NA
ATOM      5  C   UNL     1       0.370  13.195  18.861  0.00  0.00    +0.000 A 
ATOM      6  C   UNL     1       1.131  12.066  18.720  0.00  0.00    +0.000 A 
ATOM      7  C   UNL     1       2.481  12.418  18.206  0.00  0.00    +0.000 C 
ATOM      8  C   UNL     1       2.465  13.968  18.290  0.00  0.00    +0.000 C 
ATOM      9  C   UNL     1       3.618  14.496  19.155  0.00  0.00    +0.000 C 
ATOM     10  O   UNL     1       3.346  15.769  19.743  0.00  0.00    +0.000 OA
ATOM     11  C   UNL     1       2.189  15.662  20.584  0.00  0.00    +0.000 C 
ATOM     12  C   UNL     1       0.924  15.402  19.756  0.00  0.00    +0.000 C 
ATOM     13  N   UNL     1       1.112  14.376  18.726  0.00  0.00    +0.000 N 
ENDROOT
BRANCH   3  14
ATOM     14  C   UNL     1      -2.911  11.884  18.677  0.00  0.00    +0.000 A 
ATOM     15  C   UNL     1      -3.296  11.457  17.411  0.00  0.00    +0.000 A 
ATOM     16  N   UNL     1      -4.560  11.439  16.936  0.00  0.00    +0.000 NA
ATOM     17  C   UNL     1      -5.501  11.889  17.758  0.00  0.00    +0.000 A 
ATOM     18  N   UNL     1      -6.804  11.883  17.320  0.00  0.00    +0.000 N 
ATOM     19  N   UNL     1      -5.268  12.305  19.001  0.00  0.00    +0.000 NA
ATOM     20  C   UNL     1      -3.973  12.318  19.464  0.00  0.00    +0.000 A 
ATOM     21  H   UNL     1      -6.921  11.205  16.581  0.00  0.00    +0.000 HD
ATOM     22  H   UNL     1      -7.439  11.834  18.104  0.00  0.00    +0.000 HD
BRANCH  20  23
ATOM     23  C   UNL     1      -3.821  12.834  20.887  0.00  0.00    +0.000 C 
ATOM     24  F   UNL     1      -2.962  12.166  21.705  0.00  0.00    +0.000 F 
ATOM     25  F   UNL     1      -3.444  14.146  20.936  0.00  0.00    +0.000 F 
ATOM     26  F   UNL     1      -5.014  12.780  21.562  0.00  0.00    +0.000 F 
ENDBRANCH  20  23
ENDBRANCH   3  14
BRANCH   1  33
ATOM     27  C   UNL     1       0.564   9.355  21.513  0.00  0.00    +0.000 C 
ATOM     28  C   UNL     1       0.914   8.741  20.160  0.00  0.00    +0.000 C 
ATOM     29  C   UNL     1       2.075   7.726  20.323  0.00  0.00    +0.000 C 
ATOM     30  O   UNL     1       2.301   7.004  19.099  0.00  0.00    +0.000 OA
ATOM     31  C   UNL     1       2.591   7.904  18.014  0.00  0.00    +0.000 C 
ATOM     32  C   UNL     1       1.479   8.956  17.825  0.00  0.00    +0.000 C 
ATOM     33  N   UNL     1       1.341   9.712  19.097  0.00  0.00    +0.000 N 
ENDBRANCH   1  33
TORSDOF 3
ENDMDL
MODEL 4
REMARK VINA RESULT:      -7.3      5.495      9.073
REMARK  Name = 
REMARK  4 active torsions:
REMARK  status: ('A' for Active; 'I' for Inactive)
REMARK    1  A    between atoms: C_1  and  C_2
REMARK    2  A    between atoms: N_7  and  C_8
REMARK    3  A    between atoms: C_10  and  C_11
REMARK    4  A    between atoms: C_17  and  C_18
REMARK                            x       y       z     vdW  Elec       q    Type
REMARK                         _______ _______ _______ _____ _____    ______ ____
ROOT
ATOM      1  C   UNL     1       2.587   5.421  19.199  0.00  0.00    +0.000 A 
ATOM      2  N   UNL     1       3.414   5.131  18.178  0.00  0.00    +0.000 NA
ATOM      3  C   UNL     1       3.835   6.162  17.403  0.00  0.00    +0.000 A 
ATOM      4  N   UNL     1       3.413   7.427  17.506  0.00  0.00    +0.000 NA
ATOM      5  C   UNL     1       2.638   7.679  18.551  0.00  0.00    +0.000 A 
ATOM      6  C   UNL     1       2.312   6.734  19.487  0.00  0.00    +0.000 A 
ATOM      7  C   UNL     1       1.777   7.389  20.711  0.00  0.00    +0.000 C 
ATOM      8  C   UNL     1       1.625   8.862  20.250  0.00  0.00    +0.000 C 
ATOM      9  C   UNL     1       0.181   9.357  20.415  0.00  0.00    +0.000 C 
ATOM     10  O   UNL     1      -0.159  10.417  19.520  0.00  0.00    +0.000 OA
ATOM     11  C   UNL     1      -0.012   9.957  18.169  0.00  0.00    +0.000 C 
ATOM     12  C   UNL     1       1.461   9.697  17.830  0.00  0.00    +0.000 C 
ATOM     13  N   UNL     1       2.171   8.959  18.879  0.00  0.00    +0.000 N 
ENDROOT
BRANCH   3  14
ATOM     14  C   UNL     1       5.037   5.962  16.596  0.00  0.00    +0.000 A 
ATOM     15  C   UNL     1       4.986   6.159  15.221  0.00  0.00    +0.000 A 
ATOM     16  N   UNL     1       5.994   5.919  14.354  0.00  0.00    +0.000 NA
ATOM     17  C   UNL     1       7.116   5.439  14.878  0.00  0.00    +0.000 A 
ATOM     18  N   UNL     1       8.171   5.188  14.033  0.00  0.00    +0.000 N 
ATOM     19  N   UNL     1       7.299   5.226  16.179  0.00  0.00    +0.000 NA
ATOM     20  C   UNL     1       6.260   5.473  17.044  0.00  0.00    +0.000 A 
ATOM     21  H   UNL     1       8.084   5.738  13.192  0.00  0.00    +0.000 HD
ATOM     22  H   UNL     1       9.045   5.237  14.539  0.00  0.00    +0.000 HD
BRANCH  20  23
ATOM     23  C   UNL     1       6.573   5.173  18.503  0.00  0.00    +0.000 C 
ATOM     24  F   UNL     1       6.165   6.084  19.429  0.00  0.00    +0.000 F 
ATOM     25  F   UNL     1       6.075   3.969  18.913  0.00  0.00    +0.000 F 
ATOM     26  F   UNL     1       7.926   5.089  18.710  0.00  0.00    +0.000 F 
ENDBRANCH  20  23
ENDBRANCH   3  14
BRANCH   1  33
ATOM     27  C   UNL     1       1.043   3.247  17.955  0.00  0.00    +0.000 C 
ATOM     28  C   UNL     1       1.754   3.121  19.299  0.00  0.00    +0.000 C 
ATOM     29  C   UNL     1       0.901   2.268  20.273  0.00  0.00    +0.000 C 
ATOM     30  O   UNL     1       1.629   1.984  21.481  0.00  0.00    +0.000 OA
ATOM     31  C   UNL     1       2.042   3.199  22.133  0.00  0.00    +0.000 C 
ATOM     32  C   UNL     1       2.872   4.101  21.199  0.00  0.00    +0.000 C 
ATOM     33  N   UNL     1       2.044   4.414  20.006  0.00  0.00    +0.000 N 
ENDBRANCH   1  33
TORSDOF 3
ENDMDL
MODEL 5
REMARK VINA RESULT:      -7.3      4.425      7.266
REMARK  Name = 
REMARK  4 active torsions:
REMARK  status: ('A' for Active; 'I' for Inactive)
REMARK    1  A    between atoms: C_1  and  C_2
REMARK    2  A    between atoms: N_7  and  C_8
REMARK    3  A    between atoms: C_10  and  C_11
REMARK    4  A    between atoms: C_17  and  C_18
REMARK                            x       y       z     vdW  Elec       q    Type
REMARK                         _______ _______ _______ _____ _____    ______ ____
ROOT
ATOM      1  C   UNL     1       2.520   5.424  18.675  0.00  0.00    +0.000 A 
ATOM      2  N   UNL     1       1.918   6.528  19.158  0.00  0.00    +0.000 NA
ATOM      3  C   UNL     1       2.432   7.730  18.794  0.00  0.00    +0.000 A 
ATOM      4  N   UNL     1       3.550   7.907  18.081  0.00  0.00    +0.000 NA
ATOM      5  C   UNL     1       4.084   6.800  17.586  0.00  0.00    +0.000 A 
ATOM      6  C   UNL     1       3.527   5.560  17.753  0.00  0.00    +0.000 A 
ATOM      7  C   UNL     1       4.116   4.600  16.781  0.00  0.00    +0.000 C 
ATOM      8  C   UNL     1       5.279   5.427  16.173  0.00  0.00    +0.000 C 
ATOM      9  C   UNL     1       6.629   4.718  16.356  0.00  0.00    +0.000 C 
ATOM     10  O   UNL     1       7.741   5.614  16.370  0.00  0.00    +0.000 OA
ATOM     11  C   UNL     1       7.587   6.537  17.457  0.00  0.00    +0.000 C 
ATOM     12  C   UNL     1       6.403   7.482  17.219  0.00  0.00    +0.000 C 
ATOM     13  N   UNL     1       5.202   6.790  16.742  0.00  0.00    +0.000 N 
ENDROOT
BRANCH   3  14
ATOM     14  C   UNL     1       1.573   8.905  18.924  0.00  0.00    +0.000 A 
ATOM     15  C   UNL     1       1.477   9.810  17.874  0.00  0.00    +0.000 A 
ATOM     16  N   UNL     1       0.797  10.977  17.899  0.00  0.00    +0.000 NA
ATOM     17  C   UNL     1       0.189  11.275  19.042  0.00  0.00    +0.000 A 
ATOM     18  N   UNL     1      -0.522  12.450  19.111  0.00  0.00    +0.000 N 
ATOM     19  N   UNL     1       0.187  10.486  20.113  0.00  0.00    +0.000 NA
ATOM     20  C   UNL     1       0.888   9.304  20.067  0.00  0.00    +0.000 A 
ATOM     21  H   UNL     1      -0.792  12.750  18.186  0.00  0.00    +0.000 HD
ATOM     22  H   UNL     1      -1.246  12.381  19.812  0.00  0.00    +0.000 HD
BRANCH  20  23
ATOM     23  C   UNL     1       0.836   8.493  21.354  0.00  0.00    +0.000 C 
ATOM     24  F   UNL     1       0.244   7.269  21.297  0.00  0.00    +0.000 F 
ATOM     25  F   UNL     1       2.072   8.290  21.900  0.00  0.00    +0.000 F 
ATOM     26  F   UNL     1       0.122   9.151  22.323  0.00  0.00    +0.000 F 
ENDBRANCH  20  23
ENDBRANCH   3  14
BRANCH   1  33
ATOM     27  C   UNL     1       2.481   4.704  21.528  0.00  0.00    +0.000 C 
ATOM     28  C   UNL     1       1.615   4.026  20.470  0.00  0.00    +0.000 C 
ATOM     29  C   UNL     1       1.496   2.510  20.772  0.00  0.00    +0.000 C 
ATOM     30  O   UNL     1       0.541   1.885  19.895  0.00  0.00    +0.000 OA
ATOM     31  C   UNL     1       0.902   2.078  18.516  0.00  0.00    +0.000 C 
ATOM     32  C   UNL     1       1.062   3.571  18.166  0.00  0.00    +0.000 C 
ATOM     33  N   UNL     1       2.106   4.143  19.055  0.00  0.00    +0.000 N 
ENDBRANCH   1  33
TORSDOF 3
ENDMDL
MODEL 6
REMARK VINA RESULT:      -7.2      2.917      5.977
REMARK  Name = 
REMARK  4 active torsions:
REMARK  status: ('A' for Active; 'I' for Inactive)
REMARK    1  A    between atoms: C_1  and  C_2
REMARK    2  A    between atoms: N_7  and  C_8
REMARK    3  A    between atoms: C_10  and  C_11
REMARK    4  A    between atoms: C_17  and  C_18
REMARK                            x       y       z     vdW  Elec       q    Type
REMARK                         _______ _______ _______ _____ _____    ______ ____
ROOT
ATOM      1  C   UNL     1      -0.943  11.854  18.667  0.00  0.00    +0.000 A 
ATOM      2  N   UNL     1      -0.391  10.634  18.528  0.00  0.00    +0.000 NA
ATOM      3  C   UNL     1       0.959  10.544  18.624  0.00  0.00    +0.000 A 
ATOM      4  N   UNL     1       1.796  11.582  18.740  0.00  0.00    +0.000 NA
ATOM      5  C   UNL     1       1.212  12.757  18.921  0.00  0.00    +0.000 A 
ATOM      6  C   UNL     1      -0.144  12.913  19.020  0.00  0.00    +0.000 A 
ATOM      7  C   UNL     1      -0.466  14.245  19.600  0.00  0.00    +0.000 C 
ATOM      8  C   UNL     1       0.922  14.938  19.608  0.00  0.00    +0.000 C 
ATOM      9  C   UNL     1       0.899  16.252  18.815  0.00  0.00    +0.000 C 
ATOM     10  O   UNL     1       2.177  16.622  18.296  0.00  0.00    +0.000 OA
ATOM     11  C   UNL     1       2.641  15.592  17.412  0.00  0.00    +0.000 C 
ATOM     12  C   UNL     1       2.956  14.303  18.179  0.00  0.00    +0.000 C 
ATOM     13  N   UNL     1       1.918  13.945  19.152  0.00  0.00    +0.000 N 
ENDROOT
BRANCH   3  14
ATOM     14  C   UNL     1       1.536   9.233  18.916  0.00  0.00    +0.000 A 
ATOM     15  C   UNL     1       2.144   8.505  17.901  0.00  0.00    +0.000 A 
ATOM     16  N   UNL     1       2.630   7.249  18.015  0.00  0.00    +0.000 NA
ATOM     17  C   UNL     1       2.490   6.673  19.203  0.00  0.00    +0.000 A 
ATOM     18  N   UNL     1       2.977   5.398  19.367  0.00  0.00    +0.000 N 
ATOM     19  N   UNL     1       1.945   7.269  20.261  0.00  0.00    +0.000 NA
ATOM     20  C   UNL     1       1.454   8.546  20.122  0.00  0.00    +0.000 A 
ATOM     21  H   UNL     1       3.695   5.207  18.684  0.00  0.00    +0.000 HD
ATOM     22  H   UNL     1       3.197   5.229  20.339  0.00  0.00    +0.000 HD
BRANCH  20  23
ATOM     23  C   UNL     1       0.833   9.120  21.388  0.00  0.00    +0.000 C 
ATOM     24  F   UNL     1       0.931  10.464  21.576  0.00  0.00    +0.000 F 
ATOM     25  F   UNL     1      -0.493   8.817  21.510  0.00  0.00    +0.000 F 
ATOM     26  F   UNL     1       1.424   8.595  22.508  0.00  0.00    +0.000 F 
ENDBRANCH  20  23
ENDBRANCH   3  14
BRANCH   1  33
ATOM     27  C   UNL     1      -2.292  10.806  16.272  0.00  0.00    +0.000 C 
ATOM     28  C   UNL     1      -3.003  11.080  17.594  0.00  0.00    +0.000 C 
ATOM     29  C   UNL     1      -4.421  11.646  17.328  0.00  0.00    +0.000 C 
ATOM     30  O   UNL     1      -5.175  11.742  18.550  0.00  0.00    +0.000 OA
ATOM     31  C   UNL     1      -4.494  12.568  19.513  0.00  0.00    +0.000 C 
ATOM     32  C   UNL     1      -3.064  12.065  19.795  0.00  0.00    +0.000 C 
ATOM     33  N   UNL     1      -2.319  12.054  18.510  0.00  0.00    +0.000 N 
ENDBRANCH   1  33
TORSDOF 3
ENDMDL
MODEL 7
REMARK VINA RESULT:      -7.0      2.768      3.317
REMARK  Name = 
REMARK  4 active torsions:
REMARK  status: ('A' for Active; 'I' for Inactive)
REMARK    1  A    between atoms: C_1  and  C_2
REMARK    2  A    between atoms: N_7  and  C_8
REMARK    3  A    between atoms: C_10  and  C_11
REMARK    4  A    between atoms: C_17  and  C_18
REMARK                            x       y       z     vdW  Elec       q    Type
REMARK                         _______ _______ _______ _____ _____    ______ ____
ROOT
ATOM      1  C   UNL     1       0.325  11.379  19.859  0.00  0.00    +0.000 A 
ATOM      2  N   UNL     1      -0.893  11.318  20.430  0.00  0.00    +0.000 NA
ATOM      3  C   UNL     1      -1.507  12.492  20.721  0.00  0.00    +0.000 A 
ATOM      4  N   UNL     1      -0.958  13.704  20.583  0.00  0.00    +0.000 NA
ATOM      5  C   UNL     1       0.219  13.724  19.974  0.00  0.00    +0.000 A 
ATOM      6  C   UNL     1       0.828  12.600  19.484  0.00  0.00    +0.000 A 
ATOM      7  C   UNL     1       1.910  12.975  18.535  0.00  0.00    +0.000 C 
ATOM      8  C   UNL     1       1.990  14.513  18.727  0.00  0.00    +0.000 C 
ATOM      9  C   UNL     1       3.400  14.955  19.143  0.00  0.00    +0.000 C 
ATOM     10  O   UNL     1       3.414  16.180  19.877  0.00  0.00    +0.000 OA
ATOM     11  C   UNL     1       2.642  16.021  21.074  0.00  0.00    +0.000 C 
ATOM     12  C   UNL     1       1.152  15.845  20.754  0.00  0.00    +0.000 C 
ATOM     13  N   UNL     1       0.908  14.902  19.658  0.00  0.00    +0.000 N 
ENDROOT
BRANCH   3  14
ATOM     14  C   UNL     1      -2.954  12.474  20.918  0.00  0.00    +0.000 A 
ATOM     15  C   UNL     1      -3.802  12.614  19.826  0.00  0.00    +0.000 A 
ATOM     16  N   UNL     1      -5.149  12.707  19.881  0.00  0.00    +0.000 NA
ATOM     17  C   UNL     1      -5.689  12.676  21.094  0.00  0.00    +0.000 A 
ATOM     18  N   UNL     1      -7.057  12.760  21.197  0.00  0.00    +0.000 N 
ATOM     19  N   UNL     1      -4.990  12.524  22.216  0.00  0.00    +0.000 NA
ATOM     20  C   UNL     1      -3.621  12.435  22.139  0.00  0.00    +0.000 A 
ATOM     21  H   UNL     1      -7.491  12.467  20.335  0.00  0.00    +0.000 HD
ATOM     22  H   UNL     1      -7.372  12.323  22.053  0.00  0.00    +0.000 HD
BRANCH  20  23
ATOM     23  C   UNL     1      -2.924  12.287  23.483  0.00  0.00    +0.000 C 
ATOM     24  F   UNL     1      -2.066  13.277  23.854  0.00  0.00    +0.000 F 
ATOM     25  F   UNL     1      -3.801  12.140  24.520  0.00  0.00    +0.000 F 
ATOM     26  F   UNL     1      -2.145  11.159  23.513  0.00  0.00    +0.000 F 
ENDBRANCH  20  23
ENDBRANCH   3  14
BRANCH   1  33
ATOM     27  C   UNL     1       0.766   9.418  22.008  0.00  0.00    +0.000 C 
ATOM     28  C   UNL     1       0.802   9.071  20.522  0.00  0.00    +0.000 C 
ATOM     29  C   UNL     1       1.910   8.022  20.249  0.00  0.00    +0.000 C 
ATOM     30  O   UNL     1       1.845   7.546  18.892  0.00  0.00    +0.000 OA
ATOM     31  C   UNL     1       1.964   8.634  17.957  0.00  0.00    +0.000 C 
ATOM     32  C   UNL     1       0.901   9.723  18.201  0.00  0.00    +0.000 C 
ATOM     33  N   UNL     1       1.064  10.221  19.592  0.00  0.00    +0.000 N 
ENDBRANCH   1  33
TORSDOF 3
ENDMDL
MODEL 8
REMARK VINA RESULT:      -7.0      4.601      8.237
REMARK  Name = 
REMARK  4 active torsions:
REMARK  status: ('A' for Active; 'I' for Inactive)
REMARK    1  A    between atoms: C_1  and  C_2
REMARK    2  A    between atoms: N_7  and  C_8
REMARK    3  A    between atoms: C_10  and  C_11
REMARK    4  A    between atoms: C_17  and  C_18
REMARK                            x       y       z     vdW  Elec       q    Type
REMARK                         _______ _______ _______ _____ _____    ______ ____
ROOT
ATOM      1  C   UNL     1       4.234   6.274  18.188  0.00  0.00    +0.000 A 
ATOM      2  N   UNL     1       3.557   7.431  18.064  0.00  0.00    +0.000 NA
ATOM      3  C   UNL     1       2.311   7.486  18.599  0.00  0.00    +0.000 A 
ATOM      4  N   UNL     1       1.661   6.454  19.148  0.00  0.00    +0.000 NA
ATOM      5  C   UNL     1       2.378   5.350  19.294  0.00  0.00    +0.000 A 
ATOM      6  C   UNL     1       3.699   5.263  18.947  0.00  0.00    +0.000 A 
ATOM      7  C   UNL     1       4.317   4.065  19.576  0.00  0.00    +0.000 C 
ATOM      8  C   UNL     1       3.080   3.333  20.161  0.00  0.00    +0.000 C 
ATOM      9  C   UNL     1       2.963   1.903  19.615  0.00  0.00    +0.000 C 
ATOM     10  O   UNL     1       1.625   1.403  19.624  0.00  0.00    +0.000 OA
ATOM     11  C   UNL     1       0.801   2.246  18.807  0.00  0.00    +0.000 C 
ATOM     12  C   UNL     1       0.639   3.636  19.433  0.00  0.00    +0.000 C 
ATOM     13  N   UNL     1       1.901   4.195  19.928  0.00  0.00    +0.000 N 
ENDROOT
BRANCH   3  14
ATOM     14  C   UNL     1       1.745   8.805  18.869  0.00  0.00    +0.000 A 
ATOM     15  C   UNL     1       1.848   9.810  17.915  0.00  0.00    +0.000 A 
ATOM     16  N   UNL     1       1.452  11.092  18.074  0.00  0.00    +0.000 NA
ATOM     17  C   UNL     1       0.938  11.403  19.259  0.00  0.00    +0.000 A 
ATOM     18  N   UNL     1       0.514  12.695  19.464  0.00  0.00    +0.000 N 
ATOM     19  N   UNL     1       0.766  10.530  20.248  0.00  0.00    +0.000 NA
ATOM     20  C   UNL     1       1.178   9.231  20.067  0.00  0.00    +0.000 A 
ATOM     21  H   UNL     1       0.311  13.140  18.581  0.00  0.00    +0.000 HD
ATOM     22  H   UNL     1      -0.201  12.721  20.177  0.00  0.00    +0.000 HD
BRANCH  20  23
ATOM     23  C   UNL     1       0.954   8.327  21.270  0.00  0.00    +0.000 C 
ATOM     24  F   UNL     1      -0.035   7.397  21.176  0.00  0.00    +0.000 F 
ATOM     25  F   UNL     1       2.080   7.645  21.635  0.00  0.00    +0.000 F 
ATOM     26  F   UNL     1       0.604   9.057  22.377  0.00  0.00    +0.000 F 
ENDBRANCH  20  23
ENDBRANCH   3  14
BRANCH   1  33
ATOM     27  C   UNL     1       4.576   4.273  16.058  0.00  0.00    +0.000 C 
ATOM     28  C   UNL     1       5.479   5.490  16.231  0.00  0.00    +0.000 C 
ATOM     29  C   UNL     1       6.946   5.114  15.900  0.00  0.00    +0.000 C 
ATOM     30  O   UNL     1       7.785   6.283  15.880  0.00  0.00    +0.000 OA
ATOM     31  C   UNL     1       7.734   6.977  17.140  0.00  0.00    +0.000 C 
ATOM     32  C   UNL     1       6.291   7.352  17.533  0.00  0.00    +0.000 C 
ATOM     33  N   UNL     1       5.494   6.100  17.604  0.00  0.00    +0.000 N 
ENDBRANCH   1  33
TORSDOF 3
ENDMDL
MODEL 9
REMARK VINA RESULT:      -6.9      4.522      7.129
REMARK  Name = 
REMARK  4 active torsions:
REMARK  status: ('A' for Active; 'I' for Inactive)
REMARK    1  A    between atoms: C_1  and  C_2
REMARK    2  A    between atoms: N_7  and  C_8
REMARK    3  A    between atoms: C_10  and  C_11
REMARK    4  A    between atoms: C_17  and  C_18
REMARK                            x       y       z     vdW  Elec       q    Type
REMARK                         _______ _______ _______ _____ _____    ______ ____
ROOT
ATOM      1  C   UNL     1      -3.703  13.284  23.069  0.00  0.00    +0.000 A 
ATOM      2  N   UNL     1      -3.018  12.353  22.380  0.00  0.00    +0.000 NA
ATOM      3  C   UNL     1      -1.663  12.415  22.423  0.00  0.00    +0.000 A 
ATOM      4  N   UNL     1      -0.953  13.386  23.008  0.00  0.00    +0.000 NA
ATOM      5  C   UNL     1      -1.662  14.255  23.715  0.00  0.00    +0.000 A 
ATOM      6  C   UNL     1      -3.018  14.161  23.874  0.00  0.00    +0.000 A 
ATOM      7  C   UNL     1      -3.462  15.018  25.006  0.00  0.00    +0.000 C 
ATOM      8  C   UNL     1      -2.170  15.812  25.336  0.00  0.00    +0.000 C 
ATOM      9  C   UNL     1      -2.403  17.326  25.244  0.00  0.00    +0.000 C 
ATOM     10  O   UNL     1      -1.214  18.064  24.956  0.00  0.00    +0.000 OA
ATOM     11  C   UNL     1      -0.685  17.632  23.695  0.00  0.00    +0.000 C 
ATOM     12  C   UNL     1      -0.169  16.190  23.776  0.00  0.00    +0.000 C 
ATOM     13  N   UNL     1      -1.092  15.287  24.471  0.00  0.00    +0.000 N 
ENDROOT
BRANCH   3  14
ATOM     14  C   UNL     1      -0.915  11.210  22.073  0.00  0.00    +0.000 A 
ATOM     15  C   UNL     1      -0.483  10.349  23.076  0.00  0.00    +0.000 A 
ATOM     16  N   UNL     1       0.292   9.258  22.898  0.00  0.00    +0.000 NA
ATOM     17  C   UNL     1       0.679   9.012  21.651  0.00  0.00    +0.000 A 
ATOM     18  N   UNL     1       1.463   7.906  21.421  0.00  0.00    +0.000 N 
ATOM     19  N   UNL     1       0.318   9.745  20.601  0.00  0.00    +0.000 NA
ATOM     20  C   UNL     1      -0.469  10.854  20.805  0.00  0.00    +0.000 A 
ATOM     21  H   UNL     1       1.339   7.230  22.160  0.00  0.00    +0.000 HD
ATOM     22  H   UNL     1       1.349   7.587  20.469  0.00  0.00    +0.000 HD
BRANCH  20  23
ATOM     23  C   UNL     1      -0.801  11.629  19.538  0.00  0.00    +0.000 C 
ATOM     24  F   UNL     1      -0.492  12.955  19.519  0.00  0.00    +0.000 F 
ATOM     25  F   UNL     1      -0.223  11.092  18.423  0.00  0.00    +0.000 F 
ATOM     26  F   UNL     1      -2.148  11.610  19.287  0.00  0.00    +0.000 F 
ENDBRANCH  20  23
ENDBRANCH   3  14
BRANCH   1  33
ATOM     27  C   UNL     1      -5.052  13.583  20.472  0.00  0.00    +0.000 C 
ATOM     28  C   UNL     1      -5.710  12.967  21.703  0.00  0.00    +0.000 C 
ATOM     29  C   UNL     1      -7.202  13.381  21.772  0.00  0.00    +0.000 C 
ATOM     30  O   UNL     1      -7.886  12.669  22.820  0.00  0.00    +0.000 OA
ATOM     31  C   UNL     1      -7.259  12.899  24.094  0.00  0.00    +0.000 C 
ATOM     32  C   UNL     1      -5.762  12.530  24.075  0.00  0.00    +0.000 C 
ATOM     33  N   UNL     1      -5.100  13.344  23.024  0.00  0.00    +0.000 N 
ENDBRANCH   1  33
TORSDOF 3
ENDMDL
