MODEL 1
REMARK VINA RESULT:      -8.8      0.000      0.000
REMARK  Name = 
REMARK  7 active torsions:
REMARK  status: ('A' for Active; 'I' for Inactive)
REMARK    1  A    between atoms: C_2  and  C_3
REMARK    2  A    between atoms: C_3  and  C_4
REMARK    3  A    between atoms: N_10  and  C_11
REMARK    4  A    between atoms: N_20  and  C_21
REMARK    5  A    between atoms: C_21  and  C_22
REMARK    6  A    between atoms: C_25  and  C_26
REMARK    7  A    between atoms: N_28  and  O_29
REMARK                            x       y       z     vdW  Elec       q    Type
REMARK                         _______ _______ _______ _____ _____    ______ ____
ROOT
ATOM      1  C   UNL     1       8.142   7.000  18.548  0.00  0.00    +0.000 A 
ATOM      2  C   UNL     1       8.525   5.706  18.932  0.00  0.00    +0.000 A 
ATOM      3  C   UNL     1       7.676   4.622  18.654  0.00  0.00    +0.000 A 
ATOM      4  C   UNL     1       6.529   4.866  17.913  0.00  0.00    +0.000 A 
ATOM      5  C   UNL     1       6.549   5.973  17.101  0.00  0.00    +0.000 A 
ATOM      6  C   UNL     1       7.163   7.123  17.560  0.00  0.00    +0.000 A 
ATOM      7  S   UNL     1       5.087   5.931  16.165  0.00  0.00    +0.000 S 
ATOM      8  O   UNL     1       4.827   7.266  15.653  0.00  0.00    +0.000 OA
ATOM      9  O   UNL     1       5.075   4.743  15.353  0.00  0.00    +0.000 OA
ATOM     10  N   UNL     1       4.248   5.638  17.609  0.00  0.00    +0.000 N 
ATOM     11  C   UNL     1       5.062   4.755  18.414  0.00  0.00    +0.000 C 
ATOM     12  O   UNL     1       4.713   4.159  19.412  0.00  0.00    +0.000 OA
ENDROOT
BRANCH   1  15
ATOM     13  O   UNL     1       8.171   9.769  17.570  0.00  0.00    +0.000 OA
ATOM     14  C   UNL     1       8.692   9.436  18.633  0.00  0.00    +0.000 C 
ATOM     15  N   UNL     1       8.602   8.172  19.196  0.00  0.00    +0.000 N 
ATOM     16  H   UNL     1       8.908   8.075  20.157  0.00  0.00    +0.000 HD
BRANCH  14  17
ATOM     17  C   UNL     1       9.507  10.444  19.436  0.00  0.00    +0.000 C 
BRANCH  17  18
ATOM     18  C   UNL     1       9.976  11.633  18.635  0.00  0.00    +0.000 A 
ATOM     19  C   UNL     1      11.231  11.616  18.009  0.00  0.00    +0.000 A 
ATOM     20  C   UNL     1      11.678  12.726  17.287  0.00  0.00    +0.000 A 
ATOM     21  C   UNL     1      10.869  13.854  17.165  0.00  0.00    +0.000 A 
ATOM     22  C   UNL     1       9.601  13.862  17.741  0.00  0.00    +0.000 A 
ATOM     23  C   UNL     1       9.154  12.756  18.466  0.00  0.00    +0.000 A 
ENDBRANCH  17  18
ENDBRANCH  14  17
ENDBRANCH   1  15
BRANCH  10  24
ATOM     24  C   UNL     1       2.915   6.265  17.610  0.00  0.00    +0.000 C 
BRANCH  24  25
ATOM     25  C   UNL     1       2.389   7.383  18.493  0.00  0.00    +0.000 A 
ATOM     26  C   UNL     1       1.982   8.588  17.855  0.00  0.00    +0.000 A 
ATOM     27  C   UNL     1       1.313   9.614  18.543  0.00  0.00    +0.000 A 
ATOM     28  C   UNL     1       1.019   9.476  19.902  0.00  0.00    +0.000 A 
ATOM     29  C   UNL     1       1.453   8.308  20.548  0.00  0.00    +0.000 A 
ATOM     30  C   UNL     1       2.120   7.275  19.852  0.00  0.00    +0.000 A 
BRANCH  28  31
ATOM     31  C   UNL     1       0.246  10.568  20.580  0.00  0.00    +0.000 C 
ATOM     32  O   UNL     1       0.673  11.121  21.594  0.00  0.00    +0.000 OA
ATOM     33  N   UNL     1      -0.948  10.956  20.013  0.00  0.00    +0.000 N 
ATOM     34  H   UNL     1      -1.279  10.696  19.094  0.00  0.00    +0.000 HD
BRANCH  33  35
ATOM     35  O   UNL     1      -1.607  12.055  20.616  0.00  0.00    +0.000 OA
ATOM     36  H   UNL     1      -1.210  12.823  20.148  0.00  0.00    +0.000 HD
ENDBRANCH  33  35
ENDBRANCH  28  31
ENDBRANCH  24  25
ENDBRANCH  10  24
TORSDOF 7
ENDMDL
MODEL 2
REMARK VINA RESULT:      -8.8      5.205     11.691
REMARK  Name = 
REMARK  7 active torsions:
REMARK  status: ('A' for Active; 'I' for Inactive)
REMARK    1  A    between atoms: C_2  and  C_3
REMARK    2  A    between atoms: C_3  and  C_4
REMARK    3  A    between atoms: N_10  and  C_11
REMARK    4  A    between atoms: N_20  and  C_21
REMARK    5  A    between atoms: C_21  and  C_22
REMARK    6  A    between atoms: C_25  and  C_26
REMARK    7  A    between atoms: N_28  and  O_29
REMARK                            x       y       z     vdW  Elec       q    Type
REMARK                         _______ _______ _______ _____ _____    ______ ____
ROOT
ATOM      1  C   UNL     1      -2.995  12.666  21.295  0.00  0.00    +0.000 A 
ATOM      2  C   UNL     1      -2.847  12.311  22.645  0.00  0.00    +0.000 A 
ATOM      3  C   UNL     1      -1.651  11.715  23.077  0.00  0.00    +0.000 A 
ATOM      4  C   UNL     1      -0.616  11.593  22.160  0.00  0.00    +0.000 A 
ATOM      5  C   UNL     1      -0.626  12.471  21.106  0.00  0.00    +0.000 A 
ATOM      6  C   UNL     1      -1.837  12.802  20.528  0.00  0.00    +0.000 A 
ATOM      7  S   UNL     1       0.857  12.225  20.237  0.00  0.00    +0.000 S 
ATOM      8  O   UNL     1       0.702  12.761  18.895  0.00  0.00    +0.000 OA
ATOM      9  O   UNL     1       1.970  12.525  21.099  0.00  0.00    +0.000 OA
ATOM     10  N   UNL     1       0.535  10.560  20.289  0.00  0.00    +0.000 N 
ATOM     11  C   UNL     1      -0.042  10.270  21.582  0.00  0.00    +0.000 C 
ATOM     12  O   UNL     1      -0.210   9.170  22.068  0.00  0.00    +0.000 OA
ENDROOT
BRANCH   1  15
ATOM     13  O   UNL     1      -4.976  14.829  21.422  0.00  0.00    +0.000 OA
ATOM     14  C   UNL     1      -5.192  13.766  20.844  0.00  0.00    +0.000 C 
ATOM     15  N   UNL     1      -4.252  12.765  20.651  0.00  0.00    +0.000 N 
ATOM     16  H   UNL     1      -4.494  12.027  19.999  0.00  0.00    +0.000 HD
BRANCH  14  17
ATOM     17  C   UNL     1      -6.575  13.471  20.273  0.00  0.00    +0.000 C 
BRANCH  17  18
ATOM     18  C   UNL     1      -6.901  12.001  20.180  0.00  0.00    +0.000 A 
ATOM     19  C   UNL     1      -7.582  11.357  21.223  0.00  0.00    +0.000 A 
ATOM     20  C   UNL     1      -7.864   9.991  21.150  0.00  0.00    +0.000 A 
ATOM     21  C   UNL     1      -7.488   9.258  20.026  0.00  0.00    +0.000 A 
ATOM     22  C   UNL     1      -6.855   9.897  18.962  0.00  0.00    +0.000 A 
ATOM     23  C   UNL     1      -6.569  11.262  19.035  0.00  0.00    +0.000 A 
ENDBRANCH  17  18
ENDBRANCH  14  17
ENDBRANCH   1  15
BRANCH  10  24
ATOM     24  C   UNL     1       1.005   9.869  19.077  0.00  0.00    +0.000 C 
BRANCH  24  25
ATOM     25  C   UNL     1       1.899   8.646  18.964  0.00  0.00    +0.000 A 
ATOM     26  C   UNL     1       1.864   7.706  20.032  0.00  0.00    +0.000 A 
ATOM     27  C   UNL     1       2.502   6.457  19.956  0.00  0.00    +0.000 A 
ATOM     28  C   UNL     1       3.202   6.093  18.803  0.00  0.00    +0.000 A 
ATOM     29  C   UNL     1       3.277   7.031  17.762  0.00  0.00    +0.000 A 
ATOM     30  C   UNL     1       2.628   8.283  17.838  0.00  0.00    +0.000 A 
BRANCH  28  31
ATOM     31  C   UNL     1       3.813   4.724  18.741  0.00  0.00    +0.000 C 
ATOM     32  O   UNL     1       3.217   3.779  18.222  0.00  0.00    +0.000 OA
ATOM     33  N   UNL     1       5.078   4.561  19.260  0.00  0.00    +0.000 N 
ATOM     34  H   UNL     1       5.708   5.305  19.529  0.00  0.00    +0.000 HD
BRANCH  33  35
ATOM     35  O   UNL     1       5.668   3.284  19.100  0.00  0.00    +0.000 OA
ATOM     36  H   UNL     1       6.262   3.225  19.882  0.00  0.00    +0.000 HD
ENDBRANCH  33  35
ENDBRANCH  28  31
ENDBRANCH  24  25
ENDBRANCH  10  24
TORSDOF 7
ENDMDL
MODEL 3
REMARK VINA RESULT:      -8.8      0.671      1.104
REMARK  Name = 
REMARK  7 active torsions:
REMARK  status: ('A' for Active; 'I' for Inactive)
REMARK    1  A    between atoms: C_2  and  C_3
REMARK    2  A    between atoms: C_3  and  C_4
REMARK    3  A    between atoms: N_10  and  C_11
REMARK    4  A    between atoms: N_20  and  C_21
REMARK    5  A    between atoms: C_21  and  C_22
REMARK    6  A    between atoms: C_25  and  C_26
REMARK    7  A    between atoms: N_28  and  O_29
REMARK                            x       y       z     vdW  Elec       q    Type
REMARK                         _______ _______ _______ _____ _____    ______ ____
ROOT
ATOM      1  C   UNL     1       8.137   6.978  18.559  0.00  0.00    +0.000 A 
ATOM      2  C   UNL     1       8.503   5.698  19.001  0.00  0.00    +0.000 A 
ATOM      3  C   UNL     1       7.676   4.601  18.709  0.00  0.00    +0.000 A 
ATOM      4  C   UNL     1       6.570   4.817  17.899  0.00  0.00    +0.000 A 
ATOM      5  C   UNL     1       6.631   5.899  17.058  0.00  0.00    +0.000 A 
ATOM      6  C   UNL     1       7.214   7.066  17.516  0.00  0.00    +0.000 A 
ATOM      7  S   UNL     1       5.223   5.821  16.044  0.00  0.00    +0.000 S 
ATOM      8  O   UNL     1       4.985   7.139  15.479  0.00  0.00    +0.000 OA
ATOM      9  O   UNL     1       5.261   4.610  15.268  0.00  0.00    +0.000 OA
ATOM     10  N   UNL     1       4.306   5.565  17.448  0.00  0.00    +0.000 N 
ATOM     11  C   UNL     1       5.079   4.712  18.322  0.00  0.00    +0.000 C 
ATOM     12  O   UNL     1       4.678   4.143  19.317  0.00  0.00    +0.000 OA
ENDROOT
BRANCH   1  15
ATOM     13  O   UNL     1       8.220   9.715  17.498  0.00  0.00    +0.000 OA
ATOM     14  C   UNL     1       8.677   9.417  18.600  0.00  0.00    +0.000 C 
ATOM     15  N   UNL     1       8.555   8.171  19.196  0.00  0.00    +0.000 N 
ATOM     16  H   UNL     1       8.803   8.105  20.177  0.00  0.00    +0.000 HD
BRANCH  14  17
ATOM     17  C   UNL     1       9.440  10.452  19.418  0.00  0.00    +0.000 C 
BRANCH  17  18
ATOM     18  C   UNL     1       9.889  11.655  18.625  0.00  0.00    +0.000 A 
ATOM     19  C   UNL     1      11.074  11.609  17.876  0.00  0.00    +0.000 A 
ATOM     20  C   UNL     1      11.503  12.730  17.159  0.00  0.00    +0.000 A 
ATOM     21  C   UNL     1      10.745  13.898  17.168  0.00  0.00    +0.000 A 
ATOM     22  C   UNL     1       9.542  13.939  17.868  0.00  0.00    +0.000 A 
ATOM     23  C   UNL     1       9.112  12.822  18.587  0.00  0.00    +0.000 A 
ENDBRANCH  17  18
ENDBRANCH  14  17
ENDBRANCH   1  15
BRANCH  10  24
ATOM     24  C   UNL     1       2.973   6.184  17.357  0.00  0.00    +0.000 C 
BRANCH  24  25
ATOM     25  C   UNL     1       2.285   7.114  18.341  0.00  0.00    +0.000 A 
ATOM     26  C   UNL     1       2.151   6.665  19.685  0.00  0.00    +0.000 A 
ATOM     27  C   UNL     1       1.702   7.506  20.717  0.00  0.00    +0.000 A 
ATOM     28  C   UNL     1       1.370   8.837  20.448  0.00  0.00    +0.000 A 
ATOM     29  C   UNL     1       1.460   9.275  19.118  0.00  0.00    +0.000 A 
ATOM     30  C   UNL     1       1.919   8.429  18.083  0.00  0.00    +0.000 A 
BRANCH  28  31
ATOM     31  C   UNL     1       0.958   9.715  21.592  0.00  0.00    +0.000 C 
ATOM     32  O   UNL     1       1.382   9.523  22.732  0.00  0.00    +0.000 OA
ATOM     33  N   UNL     1       0.111  10.767  21.322  0.00  0.00    +0.000 N 
ATOM     34  H   UNL     1      -0.132  11.110  20.403  0.00  0.00    +0.000 HD
BRANCH  33  35
ATOM     35  O   UNL     1      -0.182  11.637  22.400  0.00  0.00    +0.000 OA
ATOM     36  H   UNL     1       0.500  12.338  22.298  0.00  0.00    +0.000 HD
ENDBRANCH  33  35
ENDBRANCH  28  31
ENDBRANCH  24  25
ENDBRANCH  10  24
TORSDOF 7
ENDMDL
MODEL 4
REMARK VINA RESULT:      -8.7      2.465      7.789
REMARK  Name = 
REMARK  7 active torsions:
REMARK  status: ('A' for Active; 'I' for Inactive)
REMARK    1  A    between atoms: C_2  and  C_3
REMARK    2  A    between atoms: C_3  and  C_4
REMARK    3  A    between atoms: N_10  and  C_11
REMARK    4  A    between atoms: N_20  and  C_21
REMARK    5  A    between atoms: C_21  and  C_22
REMARK    6  A    between atoms: C_25  and  C_26
REMARK    7  A    between atoms: N_28  and  O_29
REMARK                            x       y       z     vdW  Elec       q    Type
REMARK                         _______ _______ _______ _____ _____    ______ ____
ROOT
ATOM      1  C   UNL     1       3.428   5.724  19.107  0.00  0.00    +0.000 A 
ATOM      2  C   UNL     1       3.162   5.339  17.785  0.00  0.00    +0.000 A 
ATOM      3  C   UNL     1       4.224   5.205  16.875  0.00  0.00    +0.000 A 
ATOM      4  C   UNL     1       5.517   5.365  17.356  0.00  0.00    +0.000 A 
ATOM      5  C   UNL     1       5.703   5.140  18.697  0.00  0.00    +0.000 A 
ATOM      6  C   UNL     1       4.730   5.562  19.583  0.00  0.00    +0.000 A 
ATOM      7  S   UNL     1       7.413   5.223  18.983  0.00  0.00    +0.000 S 
ATOM      8  O   UNL     1       7.635   5.460  20.400  0.00  0.00    +0.000 OA
ATOM      9  O   UNL     1       8.074   4.190  18.229  0.00  0.00    +0.000 OA
ATOM     10  N   UNL     1       7.427   6.667  18.095  0.00  0.00    +0.000 N 
ATOM     11  C   UNL     1       6.503   6.509  16.994  0.00  0.00    +0.000 C 
ATOM     12  O   UNL     1       6.396   7.240  16.030  0.00  0.00    +0.000 OA
ENDROOT
BRANCH   1  15
ATOM     13  O   UNL     1       2.162   8.349  18.743  0.00  0.00    +0.000 OA
ATOM     14  C   UNL     1       2.008   7.674  19.759  0.00  0.00    +0.000 C 
ATOM     15  N   UNL     1       2.482   6.382  19.930  0.00  0.00    +0.000 N 
ATOM     16  H   UNL     1       2.129   5.865  20.728  0.00  0.00    +0.000 HD
BRANCH  14  17
ATOM     17  C   UNL     1       1.245   8.244  20.950  0.00  0.00    +0.000 C 
BRANCH  17  18
ATOM     18  C   UNL     1       0.612   9.589  20.688  0.00  0.00    +0.000 A 
ATOM     19  C   UNL     1      -0.541   9.689  19.896  0.00  0.00    +0.000 A 
ATOM     20  C   UNL     1      -1.114  10.935  19.633  0.00  0.00    +0.000 A 
ATOM     21  C   UNL     1      -0.556  12.091  20.174  0.00  0.00    +0.000 A 
ATOM     22  C   UNL     1       0.560  11.999  21.003  0.00  0.00    +0.000 A 
ATOM     23  C   UNL     1       1.137  10.755  21.265  0.00  0.00    +0.000 A 
ENDBRANCH  17  18
ENDBRANCH  14  17
ENDBRANCH   1  15
BRANCH  10  24
ATOM     24  C   UNL     1       8.417   7.626  18.616  0.00  0.00    +0.000 C 
BRANCH  24  25
ATOM     25  C   UNL     1       8.440   9.139  18.480  0.00  0.00    +0.000 A 
ATOM     26  C   UNL     1       9.385   9.854  19.267  0.00  0.00    +0.000 A 
ATOM     27  C   UNL     1       9.623  11.228  19.092  0.00  0.00    +0.000 A 
ATOM     28  C   UNL     1       8.925  11.945  18.116  0.00  0.00    +0.000 A 
ATOM     29  C   UNL     1       7.962  11.256  17.364  0.00  0.00    +0.000 A 
ATOM     30  C   UNL     1       7.730   9.873  17.538  0.00  0.00    +0.000 A 
BRANCH  28  31
ATOM     31  C   UNL     1       9.260  13.395  17.921  0.00  0.00    +0.000 C 
ATOM     32  O   UNL     1       8.716  14.273  18.590  0.00  0.00    +0.000 OA
ATOM     33  N   UNL     1      10.219  13.712  16.985  0.00  0.00    +0.000 N 
ATOM     34  H   UNL     1      10.843  13.058  16.532  0.00  0.00    +0.000 HD
BRANCH  33  35
ATOM     35  O   UNL     1      10.585  15.076  16.891  0.00  0.00    +0.000 OA
ATOM     36  H   UNL     1      10.335  15.300  15.967  0.00  0.00    +0.000 HD
ENDBRANCH  33  35
ENDBRANCH  28  31
ENDBRANCH  24  25
ENDBRANCH  10  24
TORSDOF 7
ENDMDL
MODEL 5
REMARK VINA RESULT:      -8.6      1.256      1.936
REMARK  Name = 
REMARK  7 active torsions:
REMARK  status: ('A' for Active; 'I' for Inactive)
REMARK    1  A    between atoms: C_2  and  C_3
REMARK    2  A    between atoms: C_3  and  C_4
REMARK    3  A    between atoms: N_10  and  C_11
REMARK    4  A    between atoms: N_20  and  C_21
REMARK    5  A    between atoms: C_21  and  C_22
REMARK    6  A    between atoms: C_25  and  C_26
REMARK    7  A    between atoms: N_28  and  O_29
REMARK                            x       y       z     vdW  Elec       q    Type
REMARK                         _______ _______ _______ _____ _____    ______ ____
ROOT
ATOM      1  C   UNL     1       8.112   7.065  18.580  0.00  0.00    +0.000 A 
ATOM      2  C   UNL     1       8.158   5.917  19.385  0.00  0.00    +0.000 A 
ATOM      3  C   UNL     1       7.086   5.010  19.359  0.00  0.00    +0.000 A 
ATOM      4  C   UNL     1       6.060   5.239  18.453  0.00  0.00    +0.000 A 
ATOM      5  C   UNL     1       6.377   5.989  17.348  0.00  0.00    +0.000 A 
ATOM      6  C   UNL     1       7.230   7.066  17.498  0.00  0.00    +0.000 A 
ATOM      7  S   UNL     1       4.985   5.960  16.310  0.00  0.00    +0.000 S 
ATOM      8  O   UNL     1       5.072   7.078  15.385  0.00  0.00    +0.000 OA
ATOM      9  O   UNL     1       4.720   4.603  15.906  0.00  0.00    +0.000 OA
ATOM     10  N   UNL     1       4.044   6.340  17.668  0.00  0.00    +0.000 N 
ATOM     11  C   UNL     1       4.592   5.615  18.793  0.00  0.00    +0.000 C 
ATOM     12  O   UNL     1       4.070   5.466  19.879  0.00  0.00    +0.000 OA
ENDROOT
BRANCH   1  15
ATOM     13  O   UNL     1       7.606   9.804  17.647  0.00  0.00    +0.000 OA
ATOM     14  C   UNL     1       8.591   9.504  18.318  0.00  0.00    +0.000 C 
ATOM     15  N   UNL     1       8.814   8.257  18.884  0.00  0.00    +0.000 N 
ATOM     16  H   UNL     1       9.558   8.189  19.568  0.00  0.00    +0.000 HD
BRANCH  14  17
ATOM     17  C   UNL     1       9.680  10.537  18.586  0.00  0.00    +0.000 C 
BRANCH  17  18
ATOM     18  C   UNL     1       9.326  11.541  19.655  0.00  0.00    +0.000 A 
ATOM     19  C   UNL     1       9.297  11.160  21.004  0.00  0.00    +0.000 A 
ATOM     20  C   UNL     1       8.946  12.083  21.994  0.00  0.00    +0.000 A 
ATOM     21  C   UNL     1       8.642  13.397  21.648  0.00  0.00    +0.000 A 
ATOM     22  C   UNL     1       8.716  13.800  20.317  0.00  0.00    +0.000 A 
ATOM     23  C   UNL     1       9.064  12.878  19.326  0.00  0.00    +0.000 A 
ENDBRANCH  17  18
ENDBRANCH  14  17
ENDBRANCH   1  15
BRANCH  10  24
ATOM     24  C   UNL     1       2.901   7.203  17.324  0.00  0.00    +0.000 C 
BRANCH  24  25
ATOM     25  C   UNL     1       2.111   8.140  18.222  0.00  0.00    +0.000 A 
ATOM     26  C   UNL     1       1.952   7.763  19.585  0.00  0.00    +0.000 A 
ATOM     27  C   UNL     1       1.403   8.630  20.545  0.00  0.00    +0.000 A 
ATOM     28  C   UNL     1       0.992   9.915  20.180  0.00  0.00    +0.000 A 
ATOM     29  C   UNL     1       1.107  10.279  18.830  0.00  0.00    +0.000 A 
ATOM     30  C   UNL     1       1.666   9.407  17.868  0.00  0.00    +0.000 A 
BRANCH  28  31
ATOM     31  C   UNL     1       0.472  10.829  21.251  0.00  0.00    +0.000 C 
ATOM     32  O   UNL     1       0.999  11.919  21.474  0.00  0.00    +0.000 OA
ATOM     33  N   UNL     1      -0.635  10.421  21.962  0.00  0.00    +0.000 N 
ATOM     34  H   UNL     1      -1.236   9.644  21.725  0.00  0.00    +0.000 HD
BRANCH  33  35
ATOM     35  O   UNL     1      -1.162  11.344  22.897  0.00  0.00    +0.000 OA
ATOM     36  H   UNL     1      -0.529  11.272  23.646  0.00  0.00    +0.000 HD
ENDBRANCH  33  35
ENDBRANCH  28  31
ENDBRANCH  24  25
ENDBRANCH  10  24
TORSDOF 7
ENDMDL
MODEL 6
REMARK VINA RESULT:      -8.6      2.471      7.835
REMARK  Name = 
REMARK  7 active torsions:
REMARK  status: ('A' for Active; 'I' for Inactive)
REMARK    1  A    between atoms: C_2  and  C_3
REMARK    2  A    between atoms: C_3  and  C_4
REMARK    3  A    between atoms: N_10  and  C_11
REMARK    4  A    between atoms: N_20  and  C_21
REMARK    5  A    between atoms: C_21  and  C_22
REMARK    6  A    between atoms: C_25  and  C_26
REMARK    7  A    between atoms: N_28  and  O_29
REMARK                            x       y       z     vdW  Elec       q    Type
REMARK                         _______ _______ _______ _____ _____    ______ ____
ROOT
ATOM      1  C   UNL     1       3.441   5.641  19.141  0.00  0.00    +0.000 A 
ATOM      2  C   UNL     1       3.150   5.345  17.800  0.00  0.00    +0.000 A 
ATOM      3  C   UNL     1       4.192   5.293  16.860  0.00  0.00    +0.000 A 
ATOM      4  C   UNL     1       5.493   5.439  17.320  0.00  0.00    +0.000 A 
ATOM      5  C   UNL     1       5.714   5.123  18.638  0.00  0.00    +0.000 A 
ATOM      6  C   UNL     1       4.757   5.466  19.574  0.00  0.00    +0.000 A 
ATOM      7  S   UNL     1       7.430   5.213  18.890  0.00  0.00    +0.000 S 
ATOM      8  O   UNL     1       7.682   5.354  20.315  0.00  0.00    +0.000 OA
ATOM      9  O   UNL     1       8.086   4.246  18.050  0.00  0.00    +0.000 OA
ATOM     10  N   UNL     1       7.401   6.717  18.107  0.00  0.00    +0.000 N 
ATOM     11  C   UNL     1       6.454   6.622  17.018  0.00  0.00    +0.000 C 
ATOM     12  O   UNL     1       6.313   7.417  16.111  0.00  0.00    +0.000 OA
ENDROOT
BRANCH   1  15
ATOM     13  O   UNL     1       2.154   8.277  19.009  0.00  0.00    +0.000 OA
ATOM     14  C   UNL     1       2.022   7.522  19.970  0.00  0.00    +0.000 C 
ATOM     15  N   UNL     1       2.506   6.223  20.029  0.00  0.00    +0.000 N 
ATOM     16  H   UNL     1       2.170   5.642  20.789  0.00  0.00    +0.000 HD
BRANCH  14  17
ATOM     17  C   UNL     1       1.277   7.989  21.216  0.00  0.00    +0.000 C 
BRANCH  17  18
ATOM     18  C   UNL     1       0.496   9.266  21.022  0.00  0.00    +0.000 A 
ATOM     19  C   UNL     1       0.288  10.141  22.099  0.00  0.00    +0.000 A 
ATOM     20  C   UNL     1      -0.454  11.312  21.927  0.00  0.00    +0.000 A 
ATOM     21  C   UNL     1      -0.978  11.632  20.677  0.00  0.00    +0.000 A 
ATOM     22  C   UNL     1      -0.736  10.796  19.589  0.00  0.00    +0.000 A 
ATOM     23  C   UNL     1       0.003   9.623  19.759  0.00  0.00    +0.000 A 
ENDBRANCH  17  18
ENDBRANCH  14  17
ENDBRANCH   1  15
BRANCH  10  24
ATOM     24  C   UNL     1       8.389   7.652  18.670  0.00  0.00    +0.000 C 
BRANCH  24  25
ATOM     25  C   UNL     1       8.459   9.163  18.530  0.00  0.00    +0.000 A 
ATOM     26  C   UNL     1       9.435   9.850  19.304  0.00  0.00    +0.000 A 
ATOM     27  C   UNL     1       9.715  11.215  19.121  0.00  0.00    +0.000 A 
ATOM     28  C   UNL     1       9.028  11.951  18.151  0.00  0.00    +0.000 A 
ATOM     29  C   UNL     1       8.035  11.291  17.413  0.00  0.00    +0.000 A 
ATOM     30  C   UNL     1       7.761   9.917  17.594  0.00  0.00    +0.000 A 
BRANCH  28  31
ATOM     31  C   UNL     1       9.406  13.389  17.948  0.00  0.00    +0.000 C 
ATOM     32  O   UNL     1      10.554  13.785  18.152  0.00  0.00    +0.000 OA
ATOM     33  N   UNL     1       8.431  14.251  17.495  0.00  0.00    +0.000 N 
ATOM     34  H   UNL     1       7.529  13.983  17.126  0.00  0.00    +0.000 HD
BRANCH  33  35
ATOM     35  O   UNL     1       8.840  15.578  17.218  0.00  0.00    +0.000 OA
ATOM     36  H   UNL     1       9.111  15.523  16.274  0.00  0.00    +0.000 HD
ENDBRANCH  33  35
ENDBRANCH  28  31
ENDBRANCH  24  25
ENDBRANCH  10  24
TORSDOF 7
ENDMDL
MODEL 7
REMARK VINA RESULT:      -8.5      1.242      1.967
REMARK  Name = 
REMARK  7 active torsions:
REMARK  status: ('A' for Active; 'I' for Inactive)
REMARK    1  A    between atoms: C_2  and  C_3
REMARK    2  A    between atoms: C_3  and  C_4
REMARK    3  A    between atoms: N_10  and  C_11
REMARK    4  A    between atoms: N_20  and  C_21
REMARK    5  A    between atoms: C_21  and  C_22
REMARK    6  A    between atoms: C_25  and  C_26
REMARK    7  A    between atoms: N_28  and  O_29
REMARK                            x       y       z     vdW  Elec       q    Type
REMARK                         _______ _______ _______ _____ _____    ______ ____
ROOT
ATOM      1  C   UNL     1       8.153   7.094  18.593  0.00  0.00    +0.000 A 
ATOM      2  C   UNL     1       8.202   5.939  19.388  0.00  0.00    +0.000 A 
ATOM      3  C   UNL     1       7.135   5.027  19.353  0.00  0.00    +0.000 A 
ATOM      4  C   UNL     1       6.111   5.258  18.446  0.00  0.00    +0.000 A 
ATOM      5  C   UNL     1       6.426   6.019  17.347  0.00  0.00    +0.000 A 
ATOM      6  C   UNL     1       7.274   7.099  17.508  0.00  0.00    +0.000 A 
ATOM      7  S   UNL     1       5.038   5.990  16.305  0.00  0.00    +0.000 S 
ATOM      8  O   UNL     1       5.122   7.116  15.390  0.00  0.00    +0.000 OA
ATOM      9  O   UNL     1       4.781   4.636  15.891  0.00  0.00    +0.000 OA
ATOM     10  N   UNL     1       4.091   6.355  17.664  0.00  0.00    +0.000 N 
ATOM     11  C   UNL     1       4.640   5.624  18.785  0.00  0.00    +0.000 C 
ATOM     12  O   UNL     1       4.116   5.464  19.869  0.00  0.00    +0.000 OA
ENDROOT
BRANCH   1  15
ATOM     13  O   UNL     1       7.646   9.834  17.666  0.00  0.00    +0.000 OA
ATOM     14  C   UNL     1       8.626   9.534  18.345  0.00  0.00    +0.000 C 
ATOM     15  N   UNL     1       8.848   8.286  18.908  0.00  0.00    +0.000 N 
ATOM     16  H   UNL     1       9.586   8.219  19.599  0.00  0.00    +0.000 HD
BRANCH  14  17
ATOM     17  C   UNL     1       9.709  10.570  18.627  0.00  0.00    +0.000 C 
BRANCH  17  18
ATOM     18  C   UNL     1       9.339  11.572  19.692  0.00  0.00    +0.000 A 
ATOM     19  C   UNL     1       9.064  12.904  19.349  0.00  0.00    +0.000 A 
ATOM     20  C   UNL     1       8.745  13.840  20.337  0.00  0.00    +0.000 A 
ATOM     21  C   UNL     1       8.677  13.451  21.673  0.00  0.00    +0.000 A 
ATOM     22  C   UNL     1       8.899  12.120  22.020  0.00  0.00    +0.000 A 
ATOM     23  C   UNL     1       9.222  11.184  21.035  0.00  0.00    +0.000 A 
ENDBRANCH  17  18
ENDBRANCH  14  17
ENDBRANCH   1  15
BRANCH  10  24
ATOM     24  C   UNL     1       2.945   7.215  17.324  0.00  0.00    +0.000 C 
BRANCH  24  25
ATOM     25  C   UNL     1       2.145   8.138  18.227  0.00  0.00    +0.000 A 
ATOM     26  C   UNL     1       1.915   7.710  19.565  0.00  0.00    +0.000 A 
ATOM     27  C   UNL     1       1.353   8.553  20.538  0.00  0.00    +0.000 A 
ATOM     28  C   UNL     1       0.998   9.865  20.213  0.00  0.00    +0.000 A 
ATOM     29  C   UNL     1       1.183  10.281  18.886  0.00  0.00    +0.000 A 
ATOM     30  C   UNL     1       1.756   9.433  17.911  0.00  0.00    +0.000 A 
BRANCH  28  31
ATOM     31  C   UNL     1       0.461  10.749  21.300  0.00  0.00    +0.000 C 
ATOM     32  O   UNL     1       0.443  10.381  22.475  0.00  0.00    +0.000 OA
ATOM     33  N   UNL     1       0.014  12.002  20.945  0.00  0.00    +0.000 N 
ATOM     34  H   UNL     1       0.163  12.454  20.053  0.00  0.00    +0.000 HD
BRANCH  33  35
ATOM     35  O   UNL     1      -0.395  12.851  22.003  0.00  0.00    +0.000 OA
ATOM     36  H   UNL     1      -1.162  12.365  22.380  0.00  0.00    +0.000 HD
ENDBRANCH  33  35
ENDBRANCH  28  31
ENDBRANCH  24  25
ENDBRANCH  10  24
TORSDOF 7
ENDMDL
MODEL 8
REMARK VINA RESULT:      -8.5      1.267      1.857
REMARK  Name = 
REMARK  7 active torsions:
REMARK  status: ('A' for Active; 'I' for Inactive)
REMARK    1  A    between atoms: C_2  and  C_3
REMARK    2  A    between atoms: C_3  and  C_4
REMARK    3  A    between atoms: N_10  and  C_11
REMARK    4  A    between atoms: N_20  and  C_21
REMARK    5  A    between atoms: C_21  and  C_22
REMARK    6  A    between atoms: C_25  and  C_26
REMARK    7  A    between atoms: N_28  and  O_29
REMARK                            x       y       z     vdW  Elec       q    Type
REMARK                         _______ _______ _______ _____ _____    ______ ____
ROOT
ATOM      1  C   UNL     1       8.115   7.029  18.570  0.00  0.00    +0.000 A 
ATOM      2  C   UNL     1       8.212   5.864  19.346  0.00  0.00    +0.000 A 
ATOM      3  C   UNL     1       7.158   4.936  19.337  0.00  0.00    +0.000 A 
ATOM      4  C   UNL     1       6.096   5.165  18.473  0.00  0.00    +0.000 A 
ATOM      5  C   UNL     1       6.358   5.945  17.375  0.00  0.00    +0.000 A 
ATOM      6  C   UNL     1       7.196   7.036  17.519  0.00  0.00    +0.000 A 
ATOM      7  S   UNL     1       4.931   5.910  16.387  0.00  0.00    +0.000 S 
ATOM      8  O   UNL     1       4.964   7.050  15.486  0.00  0.00    +0.000 OA
ATOM      9  O   UNL     1       4.679   4.558  15.962  0.00  0.00    +0.000 OA
ATOM     10  N   UNL     1       4.032   6.241  17.786  0.00  0.00    +0.000 N 
ATOM     11  C   UNL     1       4.634   5.503  18.874  0.00  0.00    +0.000 C 
ATOM     12  O   UNL     1       4.155   5.319  19.974  0.00  0.00    +0.000 OA
ENDROOT
BRANCH   1  15
ATOM     13  O   UNL     1       7.608   9.756  17.605  0.00  0.00    +0.000 OA
ATOM     14  C   UNL     1       8.583   9.468  18.296  0.00  0.00    +0.000 C 
ATOM     15  N   UNL     1       8.804   8.227  18.876  0.00  0.00    +0.000 N 
ATOM     16  H   UNL     1       9.536   8.171  19.574  0.00  0.00    +0.000 HD
BRANCH  14  17
ATOM     17  C   UNL     1       9.661  10.510  18.573  0.00  0.00    +0.000 C 
BRANCH  17  18
ATOM     18  C   UNL     1       9.325  11.457  19.699  0.00  0.00    +0.000 A 
ATOM     19  C   UNL     1       9.174  12.830  19.451  0.00  0.00    +0.000 A 
ATOM     20  C   UNL     1       8.886  13.712  20.496  0.00  0.00    +0.000 A 
ATOM     21  C   UNL     1       8.726  13.231  21.793  0.00  0.00    +0.000 A 
ATOM     22  C   UNL     1       8.824  11.864  22.043  0.00  0.00    +0.000 A 
ATOM     23  C   UNL     1       9.115  10.981  21.001  0.00  0.00    +0.000 A 
ENDBRANCH  17  18
ENDBRANCH  14  17
ENDBRANCH   1  15
BRANCH  10  24
ATOM     24  C   UNL     1       2.861   7.088  17.502  0.00  0.00    +0.000 C 
BRANCH  24  25
ATOM     25  C   UNL     1       2.154   8.073  18.417  0.00  0.00    +0.000 A 
ATOM     26  C   UNL     1       1.491   9.175  17.809  0.00  0.00    +0.000 A 
ATOM     27  C   UNL     1       0.654  10.042  18.532  0.00  0.00    +0.000 A 
ATOM     28  C   UNL     1       0.444   9.839  19.899  0.00  0.00    +0.000 A 
ATOM     29  C   UNL     1       1.127   8.780  20.514  0.00  0.00    +0.000 A 
ATOM     30  C   UNL     1       1.961   7.905  19.783  0.00  0.00    +0.000 A 
BRANCH  28  31
ATOM     31  C   UNL     1      -0.508  10.751  20.616  0.00  0.00    +0.000 C 
ATOM     32  O   UNL     1      -1.202  11.563  20.004  0.00  0.00    +0.000 OA
ATOM     33  N   UNL     1      -0.603  10.631  21.985  0.00  0.00    +0.000 N 
ATOM     34  H   UNL     1      -0.221   9.878  22.541  0.00  0.00    +0.000 HD
BRANCH  33  35
ATOM     35  O   UNL     1      -1.579  11.433  22.624  0.00  0.00    +0.000 OA
ATOM     36  H   UNL     1      -1.170  12.327  22.597  0.00  0.00    +0.000 HD
ENDBRANCH  33  35
ENDBRANCH  28  31
ENDBRANCH  24  25
ENDBRANCH  10  24
TORSDOF 7
ENDMDL
MODEL 9
REMARK VINA RESULT:      -8.5      5.118      9.594
REMARK  Name = 
REMARK  7 active torsions:
REMARK  status: ('A' for Active; 'I' for Inactive)
REMARK    1  A    between atoms: C_2  and  C_3
REMARK    2  A    between atoms: C_3  and  C_4
REMARK    3  A    between atoms: N_10  and  C_11
REMARK    4  A    between atoms: N_20  and  C_21
REMARK    5  A    between atoms: C_21  and  C_22
REMARK    6  A    between atoms: C_25  and  C_26
REMARK    7  A    between atoms: N_28  and  O_29
REMARK                            x       y       z     vdW  Elec       q    Type
REMARK                         _______ _______ _______ _____ _____    ______ ____
ROOT
ATOM      1  C   UNL     1       0.557   8.942  21.297  0.00  0.00    +0.000 A 
ATOM      2  C   UNL     1       0.160   9.280  22.599  0.00  0.00    +0.000 A 
ATOM      3  C   UNL     1      -0.438  10.528  22.839  0.00  0.00    +0.000 A 
ATOM      4  C   UNL     1      -0.706  11.342  21.748  0.00  0.00    +0.000 A 
ATOM      5  C   UNL     1      -0.846  10.714  20.536  0.00  0.00    +0.000 A 
ATOM      6  C   UNL     1      -0.014   9.650  20.238  0.00  0.00    +0.000 A 
ATOM      7  S   UNL     1      -1.355  11.926  19.402  0.00  0.00    +0.000 S 
ATOM      8  O   UNL     1      -1.071  11.452  18.058  0.00  0.00    +0.000 OA
ATOM      9  O   UNL     1      -2.628  12.459  19.814  0.00  0.00    +0.000 OA
ATOM     10  N   UNL     1      -0.110  12.913  19.996  0.00  0.00    +0.000 N 
ATOM     11  C   UNL     1      -0.037  12.706  21.425  0.00  0.00    +0.000 C 
ATOM     12  O   UNL     1       0.582  13.383  22.222  0.00  0.00    +0.000 OA
ENDROOT
BRANCH   1  15
ATOM     13  O   UNL     1       1.864   8.350  18.735  0.00  0.00    +0.000 OA
ATOM     14  C   UNL     1       2.086   7.704  19.757  0.00  0.00    +0.000 C 
ATOM     15  N   UNL     1       1.590   8.016  21.014  0.00  0.00    +0.000 N 
ATOM     16  H   UNL     1       1.995   7.525  21.802  0.00  0.00    +0.000 HD
BRANCH  14  17
ATOM     17  C   UNL     1       2.966   6.460  19.702  0.00  0.00    +0.000 C 
BRANCH  17  18
ATOM     18  C   UNL     1       2.202   5.174  19.507  0.00  0.00    +0.000 A 
ATOM     19  C   UNL     1       1.664   4.494  20.610  0.00  0.00    +0.000 A 
ATOM     20  C   UNL     1       0.976   3.290  20.435  0.00  0.00    +0.000 A 
ATOM     21  C   UNL     1       0.801   2.764  19.157  0.00  0.00    +0.000 A 
ATOM     22  C   UNL     1       1.288   3.456  18.050  0.00  0.00    +0.000 A 
ATOM     23  C   UNL     1       1.978   4.657  18.223  0.00  0.00    +0.000 A 
ENDBRANCH  17  18
ENDBRANCH  14  17
ENDBRANCH   1  15
BRANCH  10  24
ATOM     24  C   UNL     1       0.476  13.757  18.941  0.00  0.00    +0.000 C 
BRANCH  24  25
ATOM     25  C   UNL     1       1.777  14.541  18.962  0.00  0.00    +0.000 A 
ATOM     26  C   UNL     1       1.728  15.906  18.564  0.00  0.00    +0.000 A 
ATOM     27  C   UNL     1       2.822  16.773  18.717  0.00  0.00    +0.000 A 
ATOM     28  C   UNL     1       4.016  16.310  19.278  0.00  0.00    +0.000 A 
ATOM     29  C   UNL     1       4.086  14.954  19.634  0.00  0.00    +0.000 A 
ATOM     30  C   UNL     1       2.981  14.086  19.486  0.00  0.00    +0.000 A 
BRANCH  28  31
ATOM     31  C   UNL     1       5.136  17.287  19.481  0.00  0.00    +0.000 C 
ATOM     32  O   UNL     1       5.033  18.224  20.274  0.00  0.00    +0.000 OA
ATOM     33  N   UNL     1       6.299  17.088  18.771  0.00  0.00    +0.000 N 
ATOM     34  H   UNL     1       6.539  16.255  18.251  0.00  0.00    +0.000 HD
BRANCH  33  35
ATOM     35  O   UNL     1       7.372  17.966  19.056  0.00  0.00    +0.000 OA
ATOM     36  H   UNL     1       8.107  17.345  19.259  0.00  0.00    +0.000 HD
ENDBRANCH  33  35
ENDBRANCH  28  31
ENDBRANCH  24  25
ENDBRANCH  10  24
TORSDOF 7
ENDMDL
