MODEL 1
REMARK VINA RESULT:      -8.3      0.000      0.000
REMARK  Name = 
REMARK  12 active torsions:
REMARK  status: ('A' for Active; 'I' for Inactive)
REMARK    1  A    between atoms: C_1  and  O_2
REMARK    2  A    between atoms: O_2  and  C_3
REMARK    3  A    between atoms: C_3  and  C_5
REMARK    4  A    between atoms: C_5  and  C_6
REMARK    5  A    between atoms: C_9  and  N_10
REMARK    6  A    between atoms: N_13  and  C_14
REMARK    7  A    between atoms: C_19  and  O_20
REMARK    8  A    between atoms: O_20  and  C_21
REMARK    9  A    between atoms: C_26  and  C_27
REMARK   10  A    between atoms: C_27  and  C_28
REMARK   11  A    between atoms: C_27  and  C_29
REMARK   12  A    between atoms: C_27  and  C_30
REMARK                            x       y       z     vdW  Elec       q    Type
REMARK                         _______ _______ _______ _____ _____    ______ ____
ROOT
ATOM      1  N   UNL     1       8.671   8.216  18.814  0.00  0.00    +0.000 N 
ATOM      2  C   UNL     1       7.875   7.612  17.853  0.00  0.00    +0.000 C 
ATOM      3  O   UNL     1       7.408   8.214  16.893  0.00  0.00    +0.000 OA
ATOM      4  N   UNL     1       7.660   6.259  18.100  0.00  0.00    +0.000 N 
ATOM      5  H   UNL     1       9.277   7.616  19.352  0.00  0.00    +0.000 HD
ATOM      6  H   UNL     1       7.792   5.922  19.044  0.00  0.00    +0.000 HD
ENDROOT
BRANCH   1  10
ATOM      7  C   UNL     1       9.543  12.391  19.042  0.00  0.00    +0.000 A 
ATOM      8  C   UNL     1       9.667  11.574  20.172  0.00  0.00    +0.000 A 
ATOM      9  C   UNL     1       9.336  10.213  20.128  0.00  0.00    +0.000 A 
ATOM     10  C   UNL     1       8.860   9.619  18.956  0.00  0.00    +0.000 A 
ATOM     11  C   UNL     1       8.642  10.443  17.849  0.00  0.00    +0.000 A 
ATOM     12  C   UNL     1       8.967  11.809  17.898  0.00  0.00    +0.000 A 
BRANCH   7  13
ATOM     13  C   UNL     1      10.200  13.768  18.984  0.00  0.00    +0.000 C 
ATOM     14  C   UNL     1      11.526  13.969  18.256  0.00  0.00    +0.000 C 
ATOM     15  C   UNL     1      11.495  13.998  19.751  0.00  0.00    +0.000 C 
BRANCH  13  16
ATOM     16  C   UNL     1       9.205  14.891  18.909  0.00  0.00    +0.000 C 
ATOM     17  O   UNL     1       8.754  15.297  17.847  0.00  0.00    +0.000 OA
BRANCH  16  19
ATOM     18  C   UNL     1       7.655  15.121  20.641  0.00  0.00    +0.000 C 
ATOM     19  O   UNL     1       8.957  15.415  20.141  0.00  0.00    +0.000 OA
ENDBRANCH  16  19
ENDBRANCH  13  16
ENDBRANCH   7  13
ENDBRANCH   1  10
BRANCH   4  20
ATOM     20  C   UNL     1       6.995   5.372  17.200  0.00  0.00    +0.000 A 
ATOM     21  C   UNL     1       7.431   5.195  15.881  0.00  0.00    +0.000 A 
ATOM     22  C   UNL     1       6.748   4.355  14.999  0.00  0.00    +0.000 A 
ATOM     23  C   UNL     1       5.699   3.616  15.489  0.00  0.00    +0.000 A 
ATOM     24  N   UNL     1       5.276   3.692  16.764  0.00  0.00    +0.000 NA
ATOM     25  C   UNL     1       5.868   4.620  17.578  0.00  0.00    +0.000 A 
BRANCH  25  26
ATOM     26  O   UNL     1       5.171   4.950  18.756  0.00  0.00    +0.000 OA
BRANCH  26  27
ATOM     27  C   UNL     1       4.016   5.717  18.567  0.00  0.00    +0.000 A 
ATOM     28  C   UNL     1       4.176   7.078  18.199  0.00  0.00    +0.000 A 
ATOM     29  C   UNL     1       3.102   7.861  17.794  0.00  0.00    +0.000 A 
ATOM     30  C   UNL     1       1.829   7.329  17.831  0.00  0.00    +0.000 A 
ATOM     31  C   UNL     1       1.642   6.037  18.316  0.00  0.00    +0.000 A 
ATOM     32  C   UNL     1       2.714   5.185  18.709  0.00  0.00    +0.000 A 
BRANCH  32  33
ATOM     33  C   UNL     1       2.320   3.791  19.250  0.00  0.00    +0.000 C 
ATOM     34  C   UNL     1       2.062   2.807  18.079  0.00  0.00    +0.000 C 
ATOM     35  C   UNL     1       3.351   3.126  20.180  0.00  0.00    +0.000 C 
ATOM     36  C   UNL     1       1.002   3.904  20.065  0.00  0.00    +0.000 C 
ENDBRANCH  32  33
ENDBRANCH  26  27
ENDBRANCH  25  26
ENDBRANCH   4  20
TORSDOF 8
ENDMDL
MODEL 2
REMARK VINA RESULT:      -8.2      0.898      1.464
REMARK  Name = 
REMARK  12 active torsions:
REMARK  status: ('A' for Active; 'I' for Inactive)
REMARK    1  A    between atoms: C_1  and  O_2
REMARK    2  A    between atoms: O_2  and  C_3
REMARK    3  A    between atoms: C_3  and  C_5
REMARK    4  A    between atoms: C_5  and  C_6
REMARK    5  A    between atoms: C_9  and  N_10
REMARK    6  A    between atoms: N_13  and  C_14
REMARK    7  A    between atoms: C_19  and  O_20
REMARK    8  A    between atoms: O_20  and  C_21
REMARK    9  A    between atoms: C_26  and  C_27
REMARK   10  A    between atoms: C_27  and  C_28
REMARK   11  A    between atoms: C_27  and  C_29
REMARK   12  A    between atoms: C_27  and  C_30
REMARK                            x       y       z     vdW  Elec       q    Type
REMARK                         _______ _______ _______ _____ _____    ______ ____
ROOT
ATOM      1  N   UNL     1       8.710   8.255  18.858  0.00  0.00    +0.000 N 
ATOM      2  C   UNL     1       7.953   7.668  17.856  0.00  0.00    +0.000 C 
ATOM      3  O   UNL     1       7.522   8.287  16.890  0.00  0.00    +0.000 OA
ATOM      4  N   UNL     1       7.733   6.309  18.068  0.00  0.00    +0.000 N 
ATOM      5  H   UNL     1       9.297   7.645  19.408  0.00  0.00    +0.000 HD
ATOM      6  H   UNL     1       7.830   5.955  19.009  0.00  0.00    +0.000 HD
ENDROOT
BRANCH   1  10
ATOM      7  C   UNL     1       9.587  12.415  19.263  0.00  0.00    +0.000 A 
ATOM      8  C   UNL     1       9.441  11.604  20.395  0.00  0.00    +0.000 A 
ATOM      9  C   UNL     1       9.102  10.248  20.282  0.00  0.00    +0.000 A 
ATOM     10  C   UNL     1       8.889   9.655  19.035  0.00  0.00    +0.000 A 
ATOM     11  C   UNL     1       8.939  10.475  17.905  0.00  0.00    +0.000 A 
ATOM     12  C   UNL     1       9.270  11.836  18.022  0.00  0.00    +0.000 A 
BRANCH   7  13
ATOM     13  C   UNL     1      10.266  13.780  19.349  0.00  0.00    +0.000 C 
ATOM     14  C   UNL     1      11.749  13.892  19.694  0.00  0.00    +0.000 C 
ATOM     15  C   UNL     1      10.724  14.289  20.710  0.00  0.00    +0.000 C 
BRANCH  13  16
ATOM     16  C   UNL     1       9.719  14.771  18.362  0.00  0.00    +0.000 C 
ATOM     17  O   UNL     1       8.591  15.235  18.456  0.00  0.00    +0.000 OA
BRANCH  16  19
ATOM     18  C   UNL     1      10.617  16.349  16.893  0.00  0.00    +0.000 C 
ATOM     19  O   UNL     1      10.601  14.998  17.350  0.00  0.00    +0.000 OA
ENDBRANCH  16  19
ENDBRANCH  13  16
ENDBRANCH   7  13
ENDBRANCH   1  10
BRANCH   4  20
ATOM     20  C   UNL     1       7.107   5.439  17.125  0.00  0.00    +0.000 A 
ATOM     21  C   UNL     1       7.450   5.450  15.768  0.00  0.00    +0.000 A 
ATOM     22  C   UNL     1       6.801   4.622  14.849  0.00  0.00    +0.000 A 
ATOM     23  C   UNL     1       5.891   3.711  15.328  0.00  0.00    +0.000 A 
ATOM     24  N   UNL     1       5.569   3.606  16.630  0.00  0.00    +0.000 NA
ATOM     25  C   UNL     1       6.112   4.516  17.498  0.00  0.00    +0.000 A 
BRANCH  25  26
ATOM     26  O   UNL     1       5.480   4.637  18.750  0.00  0.00    +0.000 OA
BRANCH  26  27
ATOM     27  C   UNL     1       4.169   5.125  18.709  0.00  0.00    +0.000 A 
ATOM     28  C   UNL     1       3.983   6.507  18.446  0.00  0.00    +0.000 A 
ATOM     29  C   UNL     1       2.728   7.043  18.186  0.00  0.00    +0.000 A 
ATOM     30  C   UNL     1       1.617   6.228  18.269  0.00  0.00    +0.000 A 
ATOM     31  C   UNL     1       1.772   4.899  18.656  0.00  0.00    +0.000 A 
ATOM     32  C   UNL     1       3.039   4.297  18.899  0.00  0.00    +0.000 A 
BRANCH  32  33
ATOM     33  C   UNL     1       3.021   2.817  19.348  0.00  0.00    +0.000 C 
ATOM     34  C   UNL     1       4.258   2.503  20.230  0.00  0.00    +0.000 C 
ATOM     35  C   UNL     1       1.777   2.381  20.143  0.00  0.00    +0.000 C 
ATOM     36  C   UNL     1       3.091   1.895  18.100  0.00  0.00    +0.000 C 
ENDBRANCH  32  33
ENDBRANCH  26  27
ENDBRANCH  25  26
ENDBRANCH   4  20
TORSDOF 8
ENDMDL
MODEL 3
REMARK VINA RESULT:      -8.1      0.489      1.148
REMARK  Name = 
REMARK  12 active torsions:
REMARK  status: ('A' for Active; 'I' for Inactive)
REMARK    1  A    between atoms: C_1  and  O_2
REMARK    2  A    between atoms: O_2  and  C_3
REMARK    3  A    between atoms: C_3  and  C_5
REMARK    4  A    between atoms: C_5  and  C_6
REMARK    5  A    between atoms: C_9  and  N_10
REMARK    6  A    between atoms: N_13  and  C_14
REMARK    7  A    between atoms: C_19  and  O_20
REMARK    8  A    between atoms: O_20  and  C_21
REMARK    9  A    between atoms: C_26  and  C_27
REMARK   10  A    between atoms: C_27  and  C_28
REMARK   11  A    between atoms: C_27  and  C_29
REMARK   12  A    between atoms: C_27  and  C_30
REMARK                            x       y       z     vdW  Elec       q    Type
REMARK                         _______ _______ _______ _____ _____    ______ ____
ROOT
ATOM      1  N   UNL     1       8.694   8.163  18.804  0.00  0.00    +0.000 N 
ATOM      2  C   UNL     1       7.890   7.585  17.834  0.00  0.00    +0.000 C 
ATOM      3  O   UNL     1       7.412   8.215  16.897  0.00  0.00    +0.000 OA
ATOM      4  N   UNL     1       7.681   6.225  18.042  0.00  0.00    +0.000 N 
ATOM      5  H   UNL     1       9.307   7.548  19.319  0.00  0.00    +0.000 HD
ATOM      6  H   UNL     1       7.823   5.861  18.974  0.00  0.00    +0.000 HD
ENDROOT
BRANCH   1  10
ATOM      7  C   UNL     1       9.572  12.326  19.175  0.00  0.00    +0.000 A 
ATOM      8  C   UNL     1       9.609  11.487  20.295  0.00  0.00    +0.000 A 
ATOM      9  C   UNL     1       9.274  10.129  20.202  0.00  0.00    +0.000 A 
ATOM     10  C   UNL     1       8.881   9.561  18.987  0.00  0.00    +0.000 A 
ATOM     11  C   UNL     1       8.748  10.408  17.883  0.00  0.00    +0.000 A 
ATOM     12  C   UNL     1       9.077  11.770  17.982  0.00  0.00    +0.000 A 
BRANCH   7  13
ATOM     13  C   UNL     1      10.240  13.699  19.192  0.00  0.00    +0.000 C 
ATOM     14  C   UNL     1      11.684  13.868  18.728  0.00  0.00    +0.000 C 
ATOM     15  C   UNL     1      11.363  13.959  20.187  0.00  0.00    +0.000 C 
BRANCH  13  16
ATOM     16  C   UNL     1       9.288  14.818  18.879  0.00  0.00    +0.000 C 
ATOM     17  O   UNL     1       8.396  15.153  19.647  0.00  0.00    +0.000 OA
BRANCH  16  19
ATOM     18  C   UNL     1       9.583  16.745  17.593  0.00  0.00    +0.000 C 
ATOM     19  O   UNL     1       9.508  15.322  17.634  0.00  0.00    +0.000 OA
ENDBRANCH  16  19
ENDBRANCH  13  16
ENDBRANCH   7  13
ENDBRANCH   1  10
BRANCH   4  20
ATOM     20  C   UNL     1       7.009   5.364  17.122  0.00  0.00    +0.000 A 
ATOM     21  C   UNL     1       7.435   5.225  15.795  0.00  0.00    +0.000 A 
ATOM     22  C   UNL     1       6.745   4.410  14.895  0.00  0.00    +0.000 A 
ATOM     23  C   UNL     1       5.700   3.656  15.372  0.00  0.00    +0.000 A 
ATOM     24  N   UNL     1       5.288   3.695  16.652  0.00  0.00    +0.000 NA
ATOM     25  C   UNL     1       5.885   4.600  17.488  0.00  0.00    +0.000 A 
BRANCH  25  26
ATOM     26  O   UNL     1       5.198   4.895  18.680  0.00  0.00    +0.000 OA
BRANCH  26  27
ATOM     27  C   UNL     1       4.024   5.640  18.519  0.00  0.00    +0.000 A 
ATOM     28  C   UNL     1       4.151   7.020  18.211  0.00  0.00    +0.000 A 
ATOM     29  C   UNL     1       3.059   7.792  17.835  0.00  0.00    +0.000 A 
ATOM     30  C   UNL     1       1.799   7.227  17.844  0.00  0.00    +0.000 A 
ATOM     31  C   UNL     1       1.644   5.911  18.272  0.00  0.00    +0.000 A 
ATOM     32  C   UNL     1       2.736   5.071  18.633  0.00  0.00    +0.000 A 
BRANCH  32  33
ATOM     33  C   UNL     1       2.375   3.645  19.112  0.00  0.00    +0.000 C 
ATOM     34  C   UNL     1       1.056   3.664  19.928  0.00  0.00    +0.000 C 
ATOM     35  C   UNL     1       2.203   2.596  17.999  0.00  0.00    +0.000 C 
ATOM     36  C   UNL     1       3.496   3.113  20.047  0.00  0.00    +0.000 C 
ENDBRANCH  32  33
ENDBRANCH  26  27
ENDBRANCH  25  26
ENDBRANCH   4  20
TORSDOF 8
ENDMDL
MODEL 4
REMARK VINA RESULT:      -8.1      7.157     10.909
REMARK  Name = 
REMARK  12 active torsions:
REMARK  status: ('A' for Active; 'I' for Inactive)
REMARK    1  A    between atoms: C_1  and  O_2
REMARK    2  A    between atoms: O_2  and  C_3
REMARK    3  A    between atoms: C_3  and  C_5
REMARK    4  A    between atoms: C_5  and  C_6
REMARK    5  A    between atoms: C_9  and  N_10
REMARK    6  A    between atoms: N_13  and  C_14
REMARK    7  A    between atoms: C_19  and  O_20
REMARK    8  A    between atoms: O_20  and  C_21
REMARK    9  A    between atoms: C_26  and  C_27
REMARK   10  A    between atoms: C_27  and  C_28
REMARK   11  A    between atoms: C_27  and  C_29
REMARK   12  A    between atoms: C_27  and  C_30
REMARK                            x       y       z     vdW  Elec       q    Type
REMARK                         _______ _______ _______ _____ _____    ______ ____
ROOT
ATOM      1  N   UNL     1       0.874  10.407  18.221  0.00  0.00    +0.000 N 
ATOM      2  C   UNL     1       0.651  11.515  19.023  0.00  0.00    +0.000 C 
ATOM      3  O   UNL     1       1.180  11.670  20.118  0.00  0.00    +0.000 OA
ATOM      4  N   UNL     1      -0.240  12.424  18.457  0.00  0.00    +0.000 N 
ATOM      5  H   UNL     1       0.691  10.510  17.234  0.00  0.00    +0.000 HD
ATOM      6  H   UNL     1      -0.865  12.088  17.738  0.00  0.00    +0.000 HD
ENDROOT
BRANCH   1  10
ATOM      7  C   UNL     1       2.621   6.651  19.262  0.00  0.00    +0.000 A 
ATOM      8  C   UNL     1       1.912   7.395  20.213  0.00  0.00    +0.000 A 
ATOM      9  C   UNL     1       1.376   8.653  19.903  0.00  0.00    +0.000 A 
ATOM     10  C   UNL     1       1.537   9.218  18.634  0.00  0.00    +0.000 A 
ATOM     11  C   UNL     1       2.323   8.529  17.708  0.00  0.00    +0.000 A 
ATOM     12  C   UNL     1       2.866   7.272  18.024  0.00  0.00    +0.000 A 
BRANCH   7  13
ATOM     13  C   UNL     1       2.917   5.169  19.477  0.00  0.00    +0.000 C 
ATOM     14  C   UNL     1       1.805   4.129  19.372  0.00  0.00    +0.000 C 
ATOM     15  C   UNL     1       2.361   4.479  20.716  0.00  0.00    +0.000 C 
BRANCH  13  16
ATOM     16  C   UNL     1       4.277   4.765  18.984  0.00  0.00    +0.000 C 
ATOM     17  O   UNL     1       4.433   3.946  18.088  0.00  0.00    +0.000 OA
BRANCH  16  19
ATOM     18  C   UNL     1       6.525   5.396  19.047  0.00  0.00    +0.000 C 
ATOM     19  O   UNL     1       5.263   5.359  19.711  0.00  0.00    +0.000 OA
ENDBRANCH  16  19
ENDBRANCH  13  16
ENDBRANCH   7  13
ENDBRANCH   1  10
BRANCH   4  20
ATOM     20  C   UNL     1      -0.537  13.708  19.006  0.00  0.00    +0.000 A 
ATOM     21  C   UNL     1       0.155  14.859  18.609  0.00  0.00    +0.000 A 
ATOM     22  C   UNL     1      -0.118  16.102  19.183  0.00  0.00    +0.000 A 
ATOM     23  C   UNL     1      -1.164  16.192  20.069  0.00  0.00    +0.000 A 
ATOM     24  N   UNL     1      -1.909  15.134  20.438  0.00  0.00    +0.000 NA
ATOM     25  C   UNL     1      -1.542  13.900  19.972  0.00  0.00    +0.000 A 
BRANCH  25  26
ATOM     26  O   UNL     1      -2.073  12.792  20.657  0.00  0.00    +0.000 OA
BRANCH  26  27
ATOM     27  C   UNL     1      -3.467  12.777  20.773  0.00  0.00    +0.000 A 
ATOM     28  C   UNL     1      -4.233  12.804  19.579  0.00  0.00    +0.000 A 
ATOM     29  C   UNL     1      -5.606  12.590  19.580  0.00  0.00    +0.000 A 
ATOM     30  C   UNL     1      -6.261  12.430  20.785  0.00  0.00    +0.000 A 
ATOM     31  C   UNL     1      -5.541  12.534  21.973  0.00  0.00    +0.000 A 
ATOM     32  C   UNL     1      -4.130  12.718  22.020  0.00  0.00    +0.000 A 
BRANCH  32  33
ATOM     33  C   UNL     1      -3.500  12.839  23.428  0.00  0.00    +0.000 C 
ATOM     34  C   UNL     1      -2.998  14.286  23.675  0.00  0.00    +0.000 C 
ATOM     35  C   UNL     1      -4.428  12.477  24.602  0.00  0.00    +0.000 C 
ATOM     36  C   UNL     1      -2.272  11.894  23.530  0.00  0.00    +0.000 C 
ENDBRANCH  32  33
ENDBRANCH  26  27
ENDBRANCH  25  26
ENDBRANCH   4  20
TORSDOF 8
ENDMDL
MODEL 5
REMARK VINA RESULT:      -8.1      6.250     11.386
REMARK  Name = 
REMARK  12 active torsions:
REMARK  status: ('A' for Active; 'I' for Inactive)
REMARK    1  A    between atoms: C_1  and  O_2
REMARK    2  A    between atoms: O_2  and  C_3
REMARK    3  A    between atoms: C_3  and  C_5
REMARK    4  A    between atoms: C_5  and  C_6
REMARK    5  A    between atoms: C_9  and  N_10
REMARK    6  A    between atoms: N_13  and  C_14
REMARK    7  A    between atoms: C_19  and  O_20
REMARK    8  A    between atoms: O_20  and  C_21
REMARK    9  A    between atoms: C_26  and  C_27
REMARK   10  A    between atoms: C_27  and  C_28
REMARK   11  A    between atoms: C_27  and  C_29
REMARK   12  A    between atoms: C_27  and  C_30
REMARK                            x       y       z     vdW  Elec       q    Type
REMARK                         _______ _______ _______ _____ _____    ______ ____
ROOT
ATOM      1  N   UNL     1       0.291  10.516  19.723  0.00  0.00    +0.000 N 
ATOM      2  C   UNL     1       0.575  11.575  20.571  0.00  0.00    +0.000 C 
ATOM      3  O   UNL     1       1.653  11.711  21.137  0.00  0.00    +0.000 OA
ATOM      4  N   UNL     1      -0.492  12.458  20.712  0.00  0.00    +0.000 N 
ATOM      5  H   UNL     1      -0.451  10.651  19.052  0.00  0.00    +0.000 HD
ATOM      6  H   UNL     1      -1.419  12.121  20.491  0.00  0.00    +0.000 HD
ENDROOT
BRANCH   1  10
ATOM      7  C   UNL     1       2.417   6.868  19.082  0.00  0.00    +0.000 A 
ATOM      8  C   UNL     1       1.892   7.175  20.343  0.00  0.00    +0.000 A 
ATOM      9  C   UNL     1       1.237   8.391  20.584  0.00  0.00    +0.000 A 
ATOM     10  C   UNL     1       1.088   9.348  19.576  0.00  0.00    +0.000 A 
ATOM     11  C   UNL     1       1.690   9.094  18.342  0.00  0.00    +0.000 A 
ATOM     12  C   UNL     1       2.354   7.878  18.105  0.00  0.00    +0.000 A 
BRANCH   7  13
ATOM     13  C   UNL     1       2.830   5.443  18.722  0.00  0.00    +0.000 C 
ATOM     14  C   UNL     1       1.873   4.520  17.973  0.00  0.00    +0.000 C 
ATOM     15  C   UNL     1       2.145   4.278  19.424  0.00  0.00    +0.000 C 
BRANCH  13  16
ATOM     16  C   UNL     1       4.292   5.321  18.395  0.00  0.00    +0.000 C 
ATOM     17  O   UNL     1       5.148   5.197  19.260  0.00  0.00    +0.000 OA
BRANCH  16  19
ATOM     18  C   UNL     1       5.358   4.436  16.515  0.00  0.00    +0.000 C 
ATOM     19  O   UNL     1       4.511   5.447  17.057  0.00  0.00    +0.000 OA
ENDBRANCH  16  19
ENDBRANCH  13  16
ENDBRANCH   7  13
ENDBRANCH   1  10
BRANCH   4  20
ATOM     20  C   UNL     1      -0.422  13.700  21.414  0.00  0.00    +0.000 A 
ATOM     21  C   UNL     1      -0.789  13.809  22.761  0.00  0.00    +0.000 A 
ATOM     22  C   UNL     1      -0.754  15.037  23.424  0.00  0.00    +0.000 A 
ATOM     23  C   UNL     1      -0.241  16.122  22.753  0.00  0.00    +0.000 A 
ATOM     24  N   UNL     1       0.191  16.064  21.480  0.00  0.00    +0.000 NA
ATOM     25  C   UNL     1       0.022  14.887  20.802  0.00  0.00    +0.000 A 
BRANCH  25  26
ATOM     26  O   UNL     1       0.113  14.957  19.399  0.00  0.00    +0.000 OA
BRANCH  26  27
ATOM     27  C   UNL     1       1.387  15.255  18.901  0.00  0.00    +0.000 A 
ATOM     28  C   UNL     1       2.415  14.295  19.093  0.00  0.00    +0.000 A 
ATOM     29  C   UNL     1       3.649  14.405  18.464  0.00  0.00    +0.000 A 
ATOM     30  C   UNL     1       3.918  15.521  17.699  0.00  0.00    +0.000 A 
ATOM     31  C   UNL     1       2.966  16.535  17.610  0.00  0.00    +0.000 A 
ATOM     32  C   UNL     1       1.676  16.451  18.207  0.00  0.00    +0.000 A 
BRANCH  32  33
ATOM     33  C   UNL     1       0.757  17.683  18.029  0.00  0.00    +0.000 C 
ATOM     34  C   UNL     1       0.877  18.630  19.252  0.00  0.00    +0.000 C 
ATOM     35  C   UNL     1       1.022  18.531  16.773  0.00  0.00    +0.000 C 
ATOM     36  C   UNL     1      -0.722  17.217  17.942  0.00  0.00    +0.000 C 
ENDBRANCH  32  33
ENDBRANCH  26  27
ENDBRANCH  25  26
ENDBRANCH   4  20
TORSDOF 8
ENDMDL
MODEL 6
REMARK VINA RESULT:      -8.0      7.325     11.127
REMARK  Name = 
REMARK  12 active torsions:
REMARK  status: ('A' for Active; 'I' for Inactive)
REMARK    1  A    between atoms: C_1  and  O_2
REMARK    2  A    between atoms: O_2  and  C_3
REMARK    3  A    between atoms: C_3  and  C_5
REMARK    4  A    between atoms: C_5  and  C_6
REMARK    5  A    between atoms: C_9  and  N_10
REMARK    6  A    between atoms: N_13  and  C_14
REMARK    7  A    between atoms: C_19  and  O_20
REMARK    8  A    between atoms: O_20  and  C_21
REMARK    9  A    between atoms: C_26  and  C_27
REMARK   10  A    between atoms: C_27  and  C_28
REMARK   11  A    between atoms: C_27  and  C_29
REMARK   12  A    between atoms: C_27  and  C_30
REMARK                            x       y       z     vdW  Elec       q    Type
REMARK                         _______ _______ _______ _____ _____    ______ ____
ROOT
ATOM      1  N   UNL     1       0.610  10.461  18.427  0.00  0.00    +0.000 N 
ATOM      2  C   UNL     1       0.440  11.594  19.208  0.00  0.00    +0.000 C 
ATOM      3  O   UNL     1       1.053  11.789  20.251  0.00  0.00    +0.000 OA
ATOM      4  N   UNL     1      -0.503  12.476  18.685  0.00  0.00    +0.000 N 
ATOM      5  H   UNL     1       0.347  10.529  17.456  0.00  0.00    +0.000 HD
ATOM      6  H   UNL     1      -1.181  12.111  18.030  0.00  0.00    +0.000 HD
ENDROOT
BRANCH   1  10
ATOM      7  C   UNL     1       2.473   6.756  19.448  0.00  0.00    +0.000 A 
ATOM      8  C   UNL     1       1.838   7.529  20.429  0.00  0.00    +0.000 A 
ATOM      9  C   UNL     1       1.267   8.771  20.121  0.00  0.00    +0.000 A 
ATOM     10  C   UNL     1       1.316   9.292  18.825  0.00  0.00    +0.000 A 
ATOM     11  C   UNL     1       2.029   8.575  17.861  0.00  0.00    +0.000 A 
ATOM     12  C   UNL     1       2.608   7.334  18.174  0.00  0.00    +0.000 A 
BRANCH   7  13
ATOM     13  C   UNL     1       2.800   5.285  19.690  0.00  0.00    +0.000 C 
ATOM     14  C   UNL     1       1.716   4.217  19.575  0.00  0.00    +0.000 C 
ATOM     15  C   UNL     1       2.235   4.598  20.926  0.00  0.00    +0.000 C 
BRANCH  13  16
ATOM     16  C   UNL     1       4.180   4.907  19.231  0.00  0.00    +0.000 C 
ATOM     17  O   UNL     1       5.188   5.437  19.680  0.00  0.00    +0.000 OA
BRANCH  16  19
ATOM     18  C   UNL     1       4.550   4.498  16.961  0.00  0.00    +0.000 C 
ATOM     19  O   UNL     1       4.133   3.989  18.226  0.00  0.00    +0.000 OA
ENDBRANCH  16  19
ENDBRANCH  13  16
ENDBRANCH   7  13
ENDBRANCH   1  10
BRANCH   4  20
ATOM     20  C   UNL     1      -0.768  13.776  19.213  0.00  0.00    +0.000 A 
ATOM     21  C   UNL     1      -0.047  14.902  18.800  0.00  0.00    +0.000 A 
ATOM     22  C   UNL     1      -0.290  16.161  19.354  0.00  0.00    +0.000 A 
ATOM     23  C   UNL     1      -1.334  16.290  20.237  0.00  0.00    +0.000 A 
ATOM     24  N   UNL     1      -2.107  15.257  20.621  0.00  0.00    +0.000 NA
ATOM     25  C   UNL     1      -1.769  14.008  20.175  0.00  0.00    +0.000 A 
BRANCH  25  26
ATOM     26  O   UNL     1      -2.328  12.924  20.877  0.00  0.00    +0.000 OA
BRANCH  26  27
ATOM     27  C   UNL     1      -3.693  12.710  20.651  0.00  0.00    +0.000 A 
ATOM     28  C   UNL     1      -4.111  12.439  19.322  0.00  0.00    +0.000 A 
ATOM     29  C   UNL     1      -5.402  12.016  19.029  0.00  0.00    +0.000 A 
ATOM     30  C   UNL     1      -6.331  11.938  20.046  0.00  0.00    +0.000 A 
ATOM     31  C   UNL     1      -5.971  12.329  21.334  0.00  0.00    +0.000 A 
ATOM     32  C   UNL     1      -4.653  12.735  21.688  0.00  0.00    +0.000 A 
BRANCH  32  33
ATOM     33  C   UNL     1      -4.438  13.162  23.159  0.00  0.00    +0.000 C 
ATOM     34  C   UNL     1      -3.335  12.295  23.820  0.00  0.00    +0.000 C 
ATOM     35  C   UNL     1      -4.043  14.634  23.371  0.00  0.00    +0.000 C 
ATOM     36  C   UNL     1      -5.750  12.939  23.961  0.00  0.00    +0.000 C 
ENDBRANCH  32  33
ENDBRANCH  26  27
ENDBRANCH  25  26
ENDBRANCH   4  20
TORSDOF 8
ENDMDL
MODEL 7
REMARK VINA RESULT:      -8.0      1.008      1.402
REMARK  Name = 
REMARK  12 active torsions:
REMARK  status: ('A' for Active; 'I' for Inactive)
REMARK    1  A    between atoms: C_1  and  O_2
REMARK    2  A    between atoms: O_2  and  C_3
REMARK    3  A    between atoms: C_3  and  C_5
REMARK    4  A    between atoms: C_5  and  C_6
REMARK    5  A    between atoms: C_9  and  N_10
REMARK    6  A    between atoms: N_13  and  C_14
REMARK    7  A    between atoms: C_19  and  O_20
REMARK    8  A    between atoms: O_20  and  C_21
REMARK    9  A    between atoms: C_26  and  C_27
REMARK   10  A    between atoms: C_27  and  C_28
REMARK   11  A    between atoms: C_27  and  C_29
REMARK   12  A    between atoms: C_27  and  C_30
REMARK                            x       y       z     vdW  Elec       q    Type
REMARK                         _______ _______ _______ _____ _____    ______ ____
ROOT
ATOM      1  N   UNL     1       8.701   8.417  18.997  0.00  0.00    +0.000 N 
ATOM      2  C   UNL     1       8.058   7.803  17.934  0.00  0.00    +0.000 C 
ATOM      3  O   UNL     1       7.857   8.357  16.860  0.00  0.00    +0.000 OA
ATOM      4  N   UNL     1       7.663   6.498  18.220  0.00  0.00    +0.000 N 
ATOM      5  H   UNL     1       9.123   7.816  19.689  0.00  0.00    +0.000 HD
ATOM      6  H   UNL     1       7.568   6.234  19.191  0.00  0.00    +0.000 HD
ENDROOT
BRANCH   1  10
ATOM      7  C   UNL     1       9.267  12.630  19.410  0.00  0.00    +0.000 A 
ATOM      8  C   UNL     1       9.060  12.059  18.148  0.00  0.00    +0.000 A 
ATOM      9  C   UNL     1       8.924  10.673  17.988  0.00  0.00    +0.000 A 
ATOM     10  C   UNL     1       8.998   9.806  19.082  0.00  0.00    +0.000 A 
ATOM     11  C   UNL     1       9.299  10.355  20.331  0.00  0.00    +0.000 A 
ATOM     12  C   UNL     1       9.443  11.744  20.487  0.00  0.00    +0.000 A 
BRANCH   7  13
ATOM     13  C   UNL     1       9.089  14.129  19.639  0.00  0.00    +0.000 C 
ATOM     14  C   UNL     1      10.284  15.075  19.575  0.00  0.00    +0.000 C 
ATOM     15  C   UNL     1       9.669  14.756  20.900  0.00  0.00    +0.000 C 
BRANCH  13  16
ATOM     16  C   UNL     1       7.778  14.650  19.120  0.00  0.00    +0.000 C 
ATOM     17  O   UNL     1       7.635  15.029  17.966  0.00  0.00    +0.000 OA
BRANCH  16  19
ATOM     18  C   UNL     1       5.565  15.159  19.666  0.00  0.00    +0.000 C 
ATOM     19  O   UNL     1       6.844  14.710  20.109  0.00  0.00    +0.000 OA
ENDBRANCH  16  19
ENDBRANCH  13  16
ENDBRANCH   7  13
ENDBRANCH   1  10
BRANCH   4  20
ATOM     20  C   UNL     1       7.108   5.597  17.261  0.00  0.00    +0.000 A 
ATOM     21  C   UNL     1       7.495   5.620  15.916  0.00  0.00    +0.000 A 
ATOM     22  C   UNL     1       6.914   4.760  14.981  0.00  0.00    +0.000 A 
ATOM     23  C   UNL     1       6.031   3.810  15.434  0.00  0.00    +0.000 A 
ATOM     24  N   UNL     1       5.672   3.695  16.726  0.00  0.00    +0.000 NA
ATOM     25  C   UNL     1       6.144   4.631  17.605  0.00  0.00    +0.000 A 
BRANCH  25  26
ATOM     26  O   UNL     1       5.468   4.727  18.836  0.00  0.00    +0.000 OA
BRANCH  26  27
ATOM     27  C   UNL     1       4.123   5.104  18.746  0.00  0.00    +0.000 A 
ATOM     28  C   UNL     1       3.832   6.463  18.460  0.00  0.00    +0.000 A 
ATOM     29  C   UNL     1       2.547   6.892  18.152  0.00  0.00    +0.000 A 
ATOM     30  C   UNL     1       1.505   5.988  18.209  0.00  0.00    +0.000 A 
ATOM     31  C   UNL     1       1.756   4.680  18.618  0.00  0.00    +0.000 A 
ATOM     32  C   UNL     1       3.059   4.188  18.909  0.00  0.00    +0.000 A 
BRANCH  32  33
ATOM     33  C   UNL     1       3.149   2.716  19.377  0.00  0.00    +0.000 C 
ATOM     34  C   UNL     1       3.237   1.763  18.156  0.00  0.00    +0.000 C 
ATOM     35  C   UNL     1       4.338   2.383  20.296  0.00  0.00    +0.000 C 
ATOM     36  C   UNL     1       1.864   2.344  20.168  0.00  0.00    +0.000 C 
ENDBRANCH  32  33
ENDBRANCH  26  27
ENDBRANCH  25  26
ENDBRANCH   4  20
TORSDOF 8
ENDMDL
MODEL 8
REMARK VINA RESULT:      -7.9      6.283     11.160
REMARK  Name = 
REMARK  12 active torsions:
REMARK  status: ('A' for Active; 'I' for Inactive)
REMARK    1  A    between atoms: C_1  and  O_2
REMARK    2  A    between atoms: O_2  and  C_3
REMARK    3  A    between atoms: C_3  and  C_5
REMARK    4  A    between atoms: C_5  and  C_6
REMARK    5  A    between atoms: C_9  and  N_10
REMARK    6  A    between atoms: N_13  and  C_14
REMARK    7  A    between atoms: C_19  and  O_20
REMARK    8  A    between atoms: O_20  and  C_21
REMARK    9  A    between atoms: C_26  and  C_27
REMARK   10  A    between atoms: C_27  and  C_28
REMARK   11  A    between atoms: C_27  and  C_29
REMARK   12  A    between atoms: C_27  and  C_30
REMARK                            x       y       z     vdW  Elec       q    Type
REMARK                         _______ _______ _______ _____ _____    ______ ____
ROOT
ATOM      1  N   UNL     1       0.605  10.189  19.546  0.00  0.00    +0.000 N 
ATOM      2  C   UNL     1       0.473  10.876  20.743  0.00  0.00    +0.000 C 
ATOM      3  O   UNL     1       1.198  10.682  21.712  0.00  0.00    +0.000 OA
ATOM      4  N   UNL     1      -0.569  11.799  20.726  0.00  0.00    +0.000 N 
ATOM      5  H   UNL     1       0.223  10.626  18.721  0.00  0.00    +0.000 HD
ATOM      6  H   UNL     1      -1.303  11.674  20.042  0.00  0.00    +0.000 HD
ENDROOT
BRANCH   1  10
ATOM      7  C   UNL     1       2.767   6.596  18.738  0.00  0.00    +0.000 A 
ATOM      8  C   UNL     1       2.205   6.821  20.001  0.00  0.00    +0.000 A 
ATOM      9  C   UNL     1       1.537   8.017  20.299  0.00  0.00    +0.000 A 
ATOM     10  C   UNL     1       1.412   9.035  19.350  0.00  0.00    +0.000 A 
ATOM     11  C   UNL     1       2.050   8.861  18.119  0.00  0.00    +0.000 A 
ATOM     12  C   UNL     1       2.726   7.665  17.826  0.00  0.00    +0.000 A 
BRANCH   7  13
ATOM     13  C   UNL     1       3.197   5.197  18.302  0.00  0.00    +0.000 C 
ATOM     14  C   UNL     1       4.561   4.642  18.701  0.00  0.00    +0.000 C 
ATOM     15  C   UNL     1       4.321   5.057  17.283  0.00  0.00    +0.000 C 
BRANCH  13  16
ATOM     16  C   UNL     1       2.055   4.223  18.243  0.00  0.00    +0.000 C 
ATOM     17  O   UNL     1       1.199   4.269  17.370  0.00  0.00    +0.000 OA
BRANCH  16  19
ATOM     18  C   UNL     1       0.904   3.446  20.121  0.00  0.00    +0.000 C 
ATOM     19  O   UNL     1       2.073   3.375  19.308  0.00  0.00    +0.000 OA
ENDBRANCH  16  19
ENDBRANCH  13  16
ENDBRANCH   7  13
ENDBRANCH   1  10
BRANCH   4  20
ATOM     20  C   UNL     1      -0.835  12.732  21.774  0.00  0.00    +0.000 A 
ATOM     21  C   UNL     1      -1.966  12.623  22.592  0.00  0.00    +0.000 A 
ATOM     22  C   UNL     1      -2.235  13.565  23.586  0.00  0.00    +0.000 A 
ATOM     23  C   UNL     1      -1.301  14.545  23.821  0.00  0.00    +0.000 A 
ATOM     24  N   UNL     1      -0.162  14.661  23.114  0.00  0.00    +0.000 NA
ATOM     25  C   UNL     1       0.021  13.814  22.054  0.00  0.00    +0.000 A 
BRANCH  25  26
ATOM     26  O   UNL     1       0.998  14.193  21.115  0.00  0.00    +0.000 OA
BRANCH  26  27
ATOM     27  C   UNL     1       0.573  15.120  20.157  0.00  0.00    +0.000 A 
ATOM     28  C   UNL     1      -0.741  15.643  20.277  0.00  0.00    +0.000 A 
ATOM     29  C   UNL     1      -1.181  16.711  19.504  0.00  0.00    +0.000 A 
ATOM     30  C   UNL     1      -0.349  17.224  18.529  0.00  0.00    +0.000 A 
ATOM     31  C   UNL     1       0.894  16.633  18.311  0.00  0.00    +0.000 A 
ATOM     32  C   UNL     1       1.401  15.562  19.101  0.00  0.00    +0.000 A 
BRANCH  32  33
ATOM     33  C   UNL     1       2.789  15.011  18.698  0.00  0.00    +0.000 C 
ATOM     34  C   UNL     1       3.816  15.242  19.838  0.00  0.00    +0.000 C 
ATOM     35  C   UNL     1       2.831  13.512  18.351  0.00  0.00    +0.000 C 
ATOM     36  C   UNL     1       3.305  15.768  17.444  0.00  0.00    +0.000 C 
ENDBRANCH  32  33
ENDBRANCH  26  27
ENDBRANCH  25  26
ENDBRANCH   4  20
TORSDOF 8
ENDMDL
MODEL 9
REMARK VINA RESULT:      -7.9      6.184     10.441
REMARK  Name = 
REMARK  12 active torsions:
REMARK  status: ('A' for Active; 'I' for Inactive)
REMARK    1  A    between atoms: C_1  and  O_2
REMARK    2  A    between atoms: O_2  and  C_3
REMARK    3  A    between atoms: C_3  and  C_5
REMARK    4  A    between atoms: C_5  and  C_6
REMARK    5  A    between atoms: C_9  and  N_10
REMARK    6  A    between atoms: N_13  and  C_14
REMARK    7  A    between atoms: C_19  and  O_20
REMARK    8  A    between atoms: O_20  and  C_21
REMARK    9  A    between atoms: C_26  and  C_27
REMARK   10  A    between atoms: C_27  and  C_28
REMARK   11  A    between atoms: C_27  and  C_29
REMARK   12  A    between atoms: C_27  and  C_30
REMARK                            x       y       z     vdW  Elec       q    Type
REMARK                         _______ _______ _______ _____ _____    ______ ____
ROOT
ATOM      1  N   UNL     1       1.431   8.885  20.455  0.00  0.00    +0.000 N 
ATOM      2  C   UNL     1       1.252  10.061  19.743  0.00  0.00    +0.000 C 
ATOM      3  O   UNL     1       1.142  10.096  18.522  0.00  0.00    +0.000 OA
ATOM      4  N   UNL     1       1.219  11.189  20.558  0.00  0.00    +0.000 N 
ATOM      5  H   UNL     1       1.174   8.895  21.431  0.00  0.00    +0.000 HD
ATOM      6  H   UNL     1       1.633  11.121  21.477  0.00  0.00    +0.000 HD
ENDROOT
BRANCH   1  10
ATOM      7  C   UNL     1       2.640   5.067  18.970  0.00  0.00    +0.000 A 
ATOM      8  C   UNL     1       2.810   6.220  18.194  0.00  0.00    +0.000 A 
ATOM      9  C   UNL     1       2.372   7.474  18.644  0.00  0.00    +0.000 A 
ATOM     10  C   UNL     1       1.741   7.620  19.883  0.00  0.00    +0.000 A 
ATOM     11  C   UNL     1       1.480   6.464  20.623  0.00  0.00    +0.000 A 
ATOM     12  C   UNL     1       1.913   5.208  20.165  0.00  0.00    +0.000 A 
BRANCH   7  13
ATOM     13  C   UNL     1       3.392   3.778  18.648  0.00  0.00    +0.000 C 
ATOM     14  C   UNL     1       2.653   2.560  18.101  0.00  0.00    +0.000 C 
ATOM     15  C   UNL     1       3.149   2.548  19.513  0.00  0.00    +0.000 C 
BRANCH  13  16
ATOM     16  C   UNL     1       4.781   4.023  18.129  0.00  0.00    +0.000 C 
ATOM     17  O   UNL     1       5.033   4.079  16.933  0.00  0.00    +0.000 OA
BRANCH  16  19
ATOM     18  C   UNL     1       6.329   5.355  19.263  0.00  0.00    +0.000 C 
ATOM     19  O   UNL     1       5.684   4.088  19.146  0.00  0.00    +0.000 OA
ENDBRANCH  16  19
ENDBRANCH  13  16
ENDBRANCH   7  13
ENDBRANCH   1  10
BRANCH   4  20
ATOM     20  C   UNL     1       0.910  12.505  20.098  0.00  0.00    +0.000 A 
ATOM     21  C   UNL     1       1.909  13.457  19.859  0.00  0.00    +0.000 A 
ATOM     22  C   UNL     1       1.590  14.753  19.449  0.00  0.00    +0.000 A 
ATOM     23  C   UNL     1       0.275  15.042  19.174  0.00  0.00    +0.000 A 
ATOM     24  N   UNL     1      -0.720  14.149  19.319  0.00  0.00    +0.000 NA
ATOM     25  C   UNL     1      -0.409  12.927  19.852  0.00  0.00    +0.000 A 
BRANCH  25  26
ATOM     26  O   UNL     1      -1.488  12.171  20.348  0.00  0.00    +0.000 OA
BRANCH  26  27
ATOM     27  C   UNL     1      -2.565  12.023  19.467  0.00  0.00    +0.000 A 
ATOM     28  C   UNL     1      -2.308  11.448  18.195  0.00  0.00    +0.000 A 
ATOM     29  C   UNL     1      -3.334  11.076  17.335  0.00  0.00    +0.000 A 
ATOM     30  C   UNL     1      -4.640  11.349  17.688  0.00  0.00    +0.000 A 
ATOM     31  C   UNL     1      -4.899  12.033  18.874  0.00  0.00    +0.000 A 
ATOM     32  C   UNL     1      -3.885  12.403  19.802  0.00  0.00    +0.000 A 
BRANCH  32  33
ATOM     33  C   UNL     1      -4.351  13.183  21.054  0.00  0.00    +0.000 C 
ATOM     34  C   UNL     1      -5.899  13.184  21.146  0.00  0.00    +0.000 C 
ATOM     35  C   UNL     1      -3.818  12.656  22.398  0.00  0.00    +0.000 C 
ATOM     36  C   UNL     1      -3.888  14.662  20.946  0.00  0.00    +0.000 C 
ENDBRANCH  32  33
ENDBRANCH  26  27
ENDBRANCH  25  26
ENDBRANCH   4  20
TORSDOF 8
ENDMDL
