MODEL 1
REMARK VINA RESULT:      -8.1      0.000      0.000
REMARK  Name = 
REMARK  7 active torsions:
REMARK  status: ('A' for Active; 'I' for Inactive)
REMARK    1  A    between atoms: C_1  and  O_2
REMARK    2  A    between atoms: O_2  and  C_3
REMARK    3  A    between atoms: C_6  and  C_7
REMARK    4  A    between atoms: C_7  and  C_8
REMARK    5  A    between atoms: C_8  and  C_9
REMARK    6  A    between atoms: N_11  and  C_12
REMARK    7  A    between atoms: N_16  and  C_17
REMARK                            x       y       z     vdW  Elec       q    Type
REMARK                         _______ _______ _______ _____ _____    ______ ____
ROOT
ATOM      1  C   UNL     1       5.981   6.932  16.361  0.00  0.00    +0.000 C 
ATOM      2  C   UNL     1       6.739   5.628  16.126  0.00  0.00    +0.000 C 
ATOM      3  C   UNL     1       5.727   4.556  16.400  0.00  0.00    +0.000 C 
ATOM      4  O   UNL     1       5.869   3.394  16.052  0.00  0.00    +0.000 OA
ATOM      5  N   UNL     1       4.682   5.125  17.122  0.00  0.00    +0.000 N 
ATOM      6  C   UNL     1       4.933   6.533  17.405  0.00  0.00    +0.000 C 
ENDROOT
BRANCH   5   7
ATOM      7  C   UNL     1       3.718   4.389  17.846  0.00  0.00    +0.000 A 
ATOM      8  C   UNL     1       3.095   3.260  17.291  0.00  0.00    +0.000 A 
ATOM      9  C   UNL     1       2.285   2.436  18.078  0.00  0.00    +0.000 A 
ATOM     10  C   UNL     1       2.041   2.766  19.410  0.00  0.00    +0.000 A 
ATOM     11  C   UNL     1       2.541   3.961  19.910  0.00  0.00    +0.000 A 
ATOM     12  C   UNL     1       3.400   4.751  19.155  0.00  0.00    +0.000 A 
ATOM     13  O   UNL     1       2.197   4.428  21.151  0.00  0.00    +0.000 OA
ATOM     14  C   UNL     1       2.098   3.331  22.048  0.00  0.00    +0.000 C 
ATOM     15  C   UNL     1       1.196   2.212  21.534  0.00  0.00    +0.000 C 
ATOM     16  O   UNL     1       1.333   1.870  20.149  0.00  0.00    +0.000 OA
ENDBRANCH   5   7
BRANCH   1  19
ATOM     17  C   UNL     1       7.825   8.002  17.735  0.00  0.00    +0.000 C 
ATOM     18  O   UNL     1       7.940   7.092  18.544  0.00  0.00    +0.000 OA
ATOM     19  N   UNL     1       6.950   7.978  16.673  0.00  0.00    +0.000 N 
ATOM     20  H   UNL     1       6.784   8.871  16.220  0.00  0.00    +0.000 HD
BRANCH  17  21
ATOM     21  C   UNL     1       8.613   9.305  17.788  0.00  0.00    +0.000 C 
BRANCH  21  22
ATOM     22  C   UNL     1       9.021   9.707  19.200  0.00  0.00    +0.000 C 
BRANCH  22  26
ATOM     23  C   UNL     1      11.575  13.208  19.172  0.00  0.00    +0.000 A 
ATOM     24  C   UNL     1      10.941  12.801  20.346  0.00  0.00    +0.000 A 
ATOM     25  C   UNL     1      10.126  11.665  20.359  0.00  0.00    +0.000 A 
ATOM     26  C   UNL     1       9.924  10.921  19.190  0.00  0.00    +0.000 A 
ATOM     27  C   UNL     1      10.542  11.351  18.006  0.00  0.00    +0.000 A 
ATOM     28  C   UNL     1      11.364  12.486  17.998  0.00  0.00    +0.000 A 
BRANCH  23  30
ATOM     29  C   UNL     1      12.195  15.288  18.229  0.00  0.00    +0.000 C 
ATOM     30  O   UNL     1      12.333  14.341  19.283  0.00  0.00    +0.000 OA
ENDBRANCH  23  30
ENDBRANCH  22  26
ENDBRANCH  21  22
ENDBRANCH  17  21
ENDBRANCH   1  19
TORSDOF 6
ENDMDL
MODEL 2
REMARK VINA RESULT:      -8.1      7.560     10.372
REMARK  Name = 
REMARK  7 active torsions:
REMARK  status: ('A' for Active; 'I' for Inactive)
REMARK    1  A    between atoms: C_1  and  O_2
REMARK    2  A    between atoms: O_2  and  C_3
REMARK    3  A    between atoms: C_6  and  C_7
REMARK    4  A    between atoms: C_7  and  C_8
REMARK    5  A    between atoms: C_8  and  C_9
REMARK    6  A    between atoms: N_11  and  C_12
REMARK    7  A    between atoms: N_16  and  C_17
REMARK                            x       y       z     vdW  Elec       q    Type
REMARK                         _______ _______ _______ _____ _____    ______ ____
ROOT
ATOM      1  C   UNL     1       0.498   9.021  20.583  0.00  0.00    +0.000 C 
ATOM      2  C   UNL     1       1.062   8.821  21.987  0.00  0.00    +0.000 C 
ATOM      3  C   UNL     1       0.259   9.751  22.846  0.00  0.00    +0.000 C 
ATOM      4  O   UNL     1       0.221   9.675  24.064  0.00  0.00    +0.000 OA
ATOM      5  N   UNL     1      -0.359  10.681  22.013  0.00  0.00    +0.000 N 
ATOM      6  C   UNL     1       0.008  10.472  20.617  0.00  0.00    +0.000 C 
ENDROOT
BRANCH   5   7
ATOM      7  C   UNL     1      -0.917  11.900  22.454  0.00  0.00    +0.000 A 
ATOM      8  C   UNL     1      -0.311  13.131  22.155  0.00  0.00    +0.000 A 
ATOM      9  C   UNL     1      -0.966  14.333  22.436  0.00  0.00    +0.000 A 
ATOM     10  C   UNL     1      -2.206  14.319  23.073  0.00  0.00    +0.000 A 
ATOM     11  C   UNL     1      -2.732  13.105  23.496  0.00  0.00    +0.000 A 
ATOM     12  C   UNL     1      -2.119  11.903  23.163  0.00  0.00    +0.000 A 
ATOM     13  O   UNL     1      -3.856  13.034  24.275  0.00  0.00    +0.000 OA
ATOM     14  C   UNL     1      -4.772  14.038  23.860  0.00  0.00    +0.000 C 
ATOM     15  C   UNL     1      -4.151  15.430  23.792  0.00  0.00    +0.000 C 
ATOM     16  O   UNL     1      -2.839  15.514  23.221  0.00  0.00    +0.000 OA
ENDBRANCH   5   7
BRANCH   1  19
ATOM     17  C   UNL     1       1.529   8.903  18.268  0.00  0.00    +0.000 C 
ATOM     18  O   UNL     1       0.683   9.585  17.705  0.00  0.00    +0.000 OA
ATOM     19  N   UNL     1       1.518   8.626  19.616  0.00  0.00    +0.000 N 
ATOM     20  H   UNL     1       2.129   7.873  19.914  0.00  0.00    +0.000 HD
BRANCH  17  21
ATOM     21  C   UNL     1       2.707   8.241  17.565  0.00  0.00    +0.000 C 
BRANCH  21  22
ATOM     22  C   UNL     1       3.346   7.122  18.380  0.00  0.00    +0.000 C 
BRANCH  22  26
ATOM     23  C   UNL     1       5.524   4.392  15.815  0.00  0.00    +0.000 A 
ATOM     24  C   UNL     1       5.862   5.744  15.862  0.00  0.00    +0.000 A 
ATOM     25  C   UNL     1       5.168   6.624  16.699  0.00  0.00    +0.000 A 
ATOM     26  C   UNL     1       4.113   6.163  17.496  0.00  0.00    +0.000 A 
ATOM     27  C   UNL     1       3.759   4.808  17.424  0.00  0.00    +0.000 A 
ATOM     28  C   UNL     1       4.462   3.928  16.590  0.00  0.00    +0.000 A 
BRANCH  23  30
ATOM     29  C   UNL     1       6.057   3.891  13.564  0.00  0.00    +0.000 C 
ATOM     30  O   UNL     1       6.267   3.637  14.949  0.00  0.00    +0.000 OA
ENDBRANCH  23  30
ENDBRANCH  22  26
ENDBRANCH  21  22
ENDBRANCH  17  21
ENDBRANCH   1  19
TORSDOF 6
ENDMDL
MODEL 3
REMARK VINA RESULT:      -8.1      1.718      2.371
REMARK  Name = 
REMARK  7 active torsions:
REMARK  status: ('A' for Active; 'I' for Inactive)
REMARK    1  A    between atoms: C_1  and  O_2
REMARK    2  A    between atoms: O_2  and  C_3
REMARK    3  A    between atoms: C_6  and  C_7
REMARK    4  A    between atoms: C_7  and  C_8
REMARK    5  A    between atoms: C_8  and  C_9
REMARK    6  A    between atoms: N_11  and  C_12
REMARK    7  A    between atoms: N_16  and  C_17
REMARK                            x       y       z     vdW  Elec       q    Type
REMARK                         _______ _______ _______ _____ _____    ______ ____
ROOT
ATOM      1  C   UNL     1       7.599   7.571  17.333  0.00  0.00    +0.000 C 
ATOM      2  C   UNL     1       8.024   6.976  18.672  0.00  0.00    +0.000 C 
ATOM      3  C   UNL     1       7.103   5.809  18.869  0.00  0.00    +0.000 C 
ATOM      4  O   UNL     1       7.309   4.920  19.681  0.00  0.00    +0.000 OA
ATOM      5  N   UNL     1       6.017   5.970  18.013  0.00  0.00    +0.000 N 
ATOM      6  C   UNL     1       6.112   7.213  17.258  0.00  0.00    +0.000 C 
ENDROOT
BRANCH   5   7
ATOM      7  C   UNL     1       4.794   5.274  18.136  0.00  0.00    +0.000 A 
ATOM      8  C   UNL     1       4.349   4.398  17.132  0.00  0.00    +0.000 A 
ATOM      9  C   UNL     1       3.237   3.579  17.345  0.00  0.00    +0.000 A 
ATOM     10  C   UNL     1       2.522   3.671  18.538  0.00  0.00    +0.000 A 
ATOM     11  C   UNL     1       2.881   4.642  19.465  0.00  0.00    +0.000 A 
ATOM     12  C   UNL     1       4.023   5.413  19.290  0.00  0.00    +0.000 A 
ATOM     13  O   UNL     1       2.120   4.900  20.575  0.00  0.00    +0.000 OA
ATOM     14  C   UNL     1       1.597   3.677  21.073  0.00  0.00    +0.000 C 
ATOM     15  C   UNL     1       0.880   2.850  20.009  0.00  0.00    +0.000 C 
ATOM     16  O   UNL     1       1.516   2.775  18.727  0.00  0.00    +0.000 OA
ENDBRANCH   5   7
BRANCH   1  19
ATOM     17  C   UNL     1       8.695   9.654  18.281  0.00  0.00    +0.000 C 
ATOM     18  O   UNL     1       9.111   9.136  19.308  0.00  0.00    +0.000 OA
ATOM     19  N   UNL     1       8.008   8.972  17.302  0.00  0.00    +0.000 N 
ATOM     20  H   UNL     1       7.522   9.550  16.624  0.00  0.00    +0.000 HD
BRANCH  17  21
ATOM     21  C   UNL     1       8.855  11.129  17.936  0.00  0.00    +0.000 C 
BRANCH  21  22
ATOM     22  C   UNL     1      10.307  11.591  17.920  0.00  0.00    +0.000 C 
BRANCH  22  26
ATOM     23  C   UNL     1      10.604  15.883  18.448  0.00  0.00    +0.000 A 
ATOM     24  C   UNL     1       9.380  15.288  18.143  0.00  0.00    +0.000 A 
ATOM     25  C   UNL     1       9.281  13.902  17.985  0.00  0.00    +0.000 A 
ATOM     26  C   UNL     1      10.412  13.088  18.118  0.00  0.00    +0.000 A 
ATOM     27  C   UNL     1      11.645  13.694  18.398  0.00  0.00    +0.000 A 
ATOM     28  C   UNL     1      11.740  15.083  18.564  0.00  0.00    +0.000 A 
BRANCH  23  30
ATOM     29  C   UNL     1      10.817  17.977  17.368  0.00  0.00    +0.000 C 
ATOM     30  O   UNL     1      10.575  17.245  18.565  0.00  0.00    +0.000 OA
ENDBRANCH  23  30
ENDBRANCH  22  26
ENDBRANCH  21  22
ENDBRANCH  17  21
ENDBRANCH   1  19
TORSDOF 6
ENDMDL
MODEL 4
REMARK VINA RESULT:      -8.0      6.041      9.569
REMARK  Name = 
REMARK  7 active torsions:
REMARK  status: ('A' for Active; 'I' for Inactive)
REMARK    1  A    between atoms: C_1  and  O_2
REMARK    2  A    between atoms: O_2  and  C_3
REMARK    3  A    between atoms: C_6  and  C_7
REMARK    4  A    between atoms: C_7  and  C_8
REMARK    5  A    between atoms: C_8  and  C_9
REMARK    6  A    between atoms: N_11  and  C_12
REMARK    7  A    between atoms: N_16  and  C_17
REMARK                            x       y       z     vdW  Elec       q    Type
REMARK                         _______ _______ _______ _____ _____    ______ ____
ROOT
ATOM      1  C   UNL     1       1.398   8.004  20.344  0.00  0.00    +0.000 C 
ATOM      2  C   UNL     1       1.344   8.618  21.740  0.00  0.00    +0.000 C 
ATOM      3  C   UNL     1       0.683   9.948  21.535  0.00  0.00    +0.000 C 
ATOM      4  O   UNL     1       0.211  10.611  22.446  0.00  0.00    +0.000 OA
ATOM      5  N   UNL     1       0.756  10.261  20.180  0.00  0.00    +0.000 N 
ATOM      6  C   UNL     1       1.473   9.234  19.434  0.00  0.00    +0.000 C 
ENDROOT
BRANCH   5   7
ATOM      7  C   UNL     1       0.552  11.552  19.647  0.00  0.00    +0.000 A 
ATOM      8  C   UNL     1      -0.738  12.088  19.506  0.00  0.00    +0.000 A 
ATOM      9  C   UNL     1      -0.917  13.429  19.153  0.00  0.00    +0.000 A 
ATOM     10  C   UNL     1       0.190  14.230  18.877  0.00  0.00    +0.000 A 
ATOM     11  C   UNL     1       1.455  13.655  18.876  0.00  0.00    +0.000 A 
ATOM     12  C   UNL     1       1.645  12.342  19.289  0.00  0.00    +0.000 A 
ATOM     13  O   UNL     1       2.562  14.339  18.448  0.00  0.00    +0.000 OA
ATOM     14  C   UNL     1       2.457  15.694  18.860  0.00  0.00    +0.000 C 
ATOM     15  C   UNL     1       1.134  16.345  18.464  0.00  0.00    +0.000 C 
ATOM     16  O   UNL     1      -0.044  15.549  18.643  0.00  0.00    +0.000 OA
ENDBRANCH   5   7
BRANCH   1  19
ATOM     17  C   UNL     1       2.657   6.023  19.383  0.00  0.00    +0.000 C 
ATOM     18  O   UNL     1       1.947   5.872  18.398  0.00  0.00    +0.000 OA
ATOM     19  N   UNL     1       2.474   7.018  20.316  0.00  0.00    +0.000 N 
ATOM     20  H   UNL     1       2.973   6.896  21.191  0.00  0.00    +0.000 HD
BRANCH  17  21
ATOM     21  C   UNL     1       3.835   5.125  19.739  0.00  0.00    +0.000 C 
BRANCH  21  22
ATOM     22  C   UNL     1       4.048   3.987  18.748  0.00  0.00    +0.000 C 
BRANCH  22  26
ATOM     23  C   UNL     1       6.898   5.044  15.659  0.00  0.00    +0.000 A 
ATOM     24  C   UNL     1       5.556   4.836  15.345  0.00  0.00    +0.000 A 
ATOM     25  C   UNL     1       4.633   4.507  16.343  0.00  0.00    +0.000 A 
ATOM     26  C   UNL     1       5.043   4.369  17.674  0.00  0.00    +0.000 A 
ATOM     27  C   UNL     1       6.399   4.552  17.980  0.00  0.00    +0.000 A 
ATOM     28  C   UNL     1       7.321   4.889  16.979  0.00  0.00    +0.000 A 
BRANCH  23  30
ATOM     29  C   UNL     1       7.285   4.840  13.334  0.00  0.00    +0.000 C 
ATOM     30  O   UNL     1       7.704   5.347  14.596  0.00  0.00    +0.000 OA
ENDBRANCH  23  30
ENDBRANCH  22  26
ENDBRANCH  21  22
ENDBRANCH  17  21
ENDBRANCH   1  19
TORSDOF 6
ENDMDL
MODEL 5
REMARK VINA RESULT:      -8.0      5.469      8.364
REMARK  Name = 
REMARK  7 active torsions:
REMARK  status: ('A' for Active; 'I' for Inactive)
REMARK    1  A    between atoms: C_1  and  O_2
REMARK    2  A    between atoms: O_2  and  C_3
REMARK    3  A    between atoms: C_6  and  C_7
REMARK    4  A    between atoms: C_7  and  C_8
REMARK    5  A    between atoms: C_8  and  C_9
REMARK    6  A    between atoms: N_11  and  C_12
REMARK    7  A    between atoms: N_16  and  C_17
REMARK                            x       y       z     vdW  Elec       q    Type
REMARK                         _______ _______ _______ _____ _____    ______ ____
ROOT
ATOM      1  C   UNL     1       2.394   7.071  19.349  0.00  0.00    +0.000 C 
ATOM      2  C   UNL     1       2.508   7.792  18.009  0.00  0.00    +0.000 C 
ATOM      3  C   UNL     1       1.995   9.174  18.285  0.00  0.00    +0.000 C 
ATOM      4  O   UNL     1       2.186  10.122  17.540  0.00  0.00    +0.000 OA
ATOM      5  N   UNL     1       1.270   9.134  19.473  0.00  0.00    +0.000 N 
ATOM      6  C   UNL     1       1.214   7.783  20.018  0.00  0.00    +0.000 C 
ENDROOT
BRANCH   5   7
ATOM      7  C   UNL     1       0.366  10.135  19.890  0.00  0.00    +0.000 A 
ATOM      8  C   UNL     1      -0.421  10.840  18.964  0.00  0.00    +0.000 A 
ATOM      9  C   UNL     1      -1.439  11.692  19.400  0.00  0.00    +0.000 A 
ATOM     10  C   UNL     1      -1.641  11.897  20.764  0.00  0.00    +0.000 A 
ATOM     11  C   UNL     1      -0.766  11.311  21.670  0.00  0.00    +0.000 A 
ATOM     12  C   UNL     1       0.206  10.411  21.249  0.00  0.00    +0.000 A 
ATOM     13  O   UNL     1      -0.801  11.606  23.007  0.00  0.00    +0.000 OA
ATOM     14  C   UNL     1      -2.154  11.768  23.410  0.00  0.00    +0.000 C 
ATOM     15  C   UNL     1      -2.931  12.749  22.537  0.00  0.00    +0.000 C 
ATOM     16  O   UNL     1      -2.712  12.653  21.124  0.00  0.00    +0.000 OA
ENDBRANCH   5   7
BRANCH   1  19
ATOM     17  C   UNL     1       2.352   4.629  20.033  0.00  0.00    +0.000 C 
ATOM     18  O   UNL     1       2.388   4.824  21.241  0.00  0.00    +0.000 OA
ATOM     19  N   UNL     1       2.322   5.636  19.095  0.00  0.00    +0.000 N 
ATOM     20  H   UNL     1       2.526   5.353  18.142  0.00  0.00    +0.000 HD
BRANCH  17  21
ATOM     21  C   UNL     1       2.354   3.251  19.384  0.00  0.00    +0.000 C 
BRANCH  21  22
ATOM     22  C   UNL     1       3.755   2.712  19.117  0.00  0.00    +0.000 C 
BRANCH  22  26
ATOM     23  C   UNL     1       6.171   5.648  17.036  0.00  0.00    +0.000 A 
ATOM     24  C   UNL     1       6.309   5.461  18.411  0.00  0.00    +0.000 A 
ATOM     25  C   UNL     1       5.538   4.505  19.082  0.00  0.00    +0.000 A 
ATOM     26  C   UNL     1       4.606   3.727  18.385  0.00  0.00    +0.000 A 
ATOM     27  C   UNL     1       4.453   3.938  17.007  0.00  0.00    +0.000 A 
ATOM     28  C   UNL     1       5.232   4.891  16.337  0.00  0.00    +0.000 A 
BRANCH  23  30
ATOM     29  C   UNL     1       7.602   7.491  17.430  0.00  0.00    +0.000 C 
ATOM     30  O   UNL     1       6.969   6.620  16.499  0.00  0.00    +0.000 OA
ENDBRANCH  23  30
ENDBRANCH  22  26
ENDBRANCH  21  22
ENDBRANCH  17  21
ENDBRANCH   1  19
TORSDOF 6
ENDMDL
MODEL 6
REMARK VINA RESULT:      -7.9      5.819      8.876
REMARK  Name = 
REMARK  7 active torsions:
REMARK  status: ('A' for Active; 'I' for Inactive)
REMARK    1  A    between atoms: C_1  and  O_2
REMARK    2  A    between atoms: O_2  and  C_3
REMARK    3  A    between atoms: C_6  and  C_7
REMARK    4  A    between atoms: C_7  and  C_8
REMARK    5  A    between atoms: C_8  and  C_9
REMARK    6  A    between atoms: N_11  and  C_12
REMARK    7  A    between atoms: N_16  and  C_17
REMARK                            x       y       z     vdW  Elec       q    Type
REMARK                         _______ _______ _______ _____ _____    ______ ____
ROOT
ATOM      1  C   UNL     1       2.413   7.439  19.599  0.00  0.00    +0.000 C 
ATOM      2  C   UNL     1       2.038   8.281  18.383  0.00  0.00    +0.000 C 
ATOM      3  C   UNL     1       1.374   9.495  18.962  0.00  0.00    +0.000 C 
ATOM      4  O   UNL     1       1.187  10.523  18.332  0.00  0.00    +0.000 OA
ATOM      5  N   UNL     1       1.006   9.199  20.273  0.00  0.00    +0.000 N 
ATOM      6  C   UNL     1       1.341   7.825  20.624  0.00  0.00    +0.000 C 
ENDROOT
BRANCH   5   7
ATOM      7  C   UNL     1       0.077   9.947  21.029  0.00  0.00    +0.000 A 
ATOM      8  C   UNL     1      -0.207   9.622  22.365  0.00  0.00    +0.000 A 
ATOM      9  C   UNL     1      -0.984  10.474  23.155  0.00  0.00    +0.000 A 
ATOM     10  C   UNL     1      -1.534  11.629  22.601  0.00  0.00    +0.000 A 
ATOM     11  C   UNL     1      -1.371  11.868  21.242  0.00  0.00    +0.000 A 
ATOM     12  C   UNL     1      -0.547  11.061  20.466  0.00  0.00    +0.000 A 
ATOM     13  O   UNL     1      -2.026  12.886  20.601  0.00  0.00    +0.000 OA
ATOM     14  C   UNL     1      -2.088  14.013  21.464  0.00  0.00    +0.000 C 
ATOM     15  C   UNL     1      -2.650  13.685  22.845  0.00  0.00    +0.000 C 
ATOM     16  O   UNL     1      -2.190  12.468  23.446  0.00  0.00    +0.000 OA
ENDBRANCH   5   7
BRANCH   1  19
ATOM     17  C   UNL     1       2.506   4.933  19.980  0.00  0.00    +0.000 C 
ATOM     18  O   UNL     1       2.306   4.969  21.187  0.00  0.00    +0.000 OA
ATOM     19  N   UNL     1       2.538   6.048  19.174  0.00  0.00    +0.000 N 
ATOM     20  H   UNL     1       2.938   5.911  18.251  0.00  0.00    +0.000 HD
BRANCH  17  21
ATOM     21  C   UNL     1       2.770   3.657  19.190  0.00  0.00    +0.000 C 
BRANCH  21  22
ATOM     22  C   UNL     1       4.223   3.202  19.246  0.00  0.00    +0.000 C 
BRANCH  22  26
ATOM     23  C   UNL     1       6.613   5.082  16.158  0.00  0.00    +0.000 A 
ATOM     24  C   UNL     1       5.487   4.330  15.825  0.00  0.00    +0.000 A 
ATOM     25  C   UNL     1       4.708   3.733  16.821  0.00  0.00    +0.000 A 
ATOM     26  C   UNL     1       5.053   3.871  18.171  0.00  0.00    +0.000 A 
ATOM     27  C   UNL     1       6.201   4.605  18.498  0.00  0.00    +0.000 A 
ATOM     28  C   UNL     1       6.976   5.208  17.498  0.00  0.00    +0.000 A 
BRANCH  23  30
ATOM     29  C   UNL     1       7.219   4.865  13.880  0.00  0.00    +0.000 C 
ATOM     30  O   UNL     1       7.299   5.603  15.095  0.00  0.00    +0.000 OA
ENDBRANCH  23  30
ENDBRANCH  22  26
ENDBRANCH  21  22
ENDBRANCH  17  21
ENDBRANCH   1  19
TORSDOF 6
ENDMDL
MODEL 7
REMARK VINA RESULT:      -7.9      6.755     10.115
REMARK  Name = 
REMARK  7 active torsions:
REMARK  status: ('A' for Active; 'I' for Inactive)
REMARK    1  A    between atoms: C_1  and  O_2
REMARK    2  A    between atoms: O_2  and  C_3
REMARK    3  A    between atoms: C_6  and  C_7
REMARK    4  A    between atoms: C_7  and  C_8
REMARK    5  A    between atoms: C_8  and  C_9
REMARK    6  A    between atoms: N_11  and  C_12
REMARK    7  A    between atoms: N_16  and  C_17
REMARK                            x       y       z     vdW  Elec       q    Type
REMARK                         _______ _______ _______ _____ _____    ______ ____
ROOT
ATOM      1  C   UNL     1       1.574   8.623  20.124  0.00  0.00    +0.000 C 
ATOM      2  C   UNL     1       1.010   7.417  20.870  0.00  0.00    +0.000 C 
ATOM      3  C   UNL     1       1.929   6.290  20.503  0.00  0.00    +0.000 C 
ATOM      4  O   UNL     1       1.975   5.235  21.115  0.00  0.00    +0.000 OA
ATOM      5  N   UNL     1       2.640   6.668  19.367  0.00  0.00    +0.000 N 
ATOM      6  C   UNL     1       2.233   7.986  18.897  0.00  0.00    +0.000 C 
ENDROOT
BRANCH   5   7
ATOM      7  C   UNL     1       3.345   5.774  18.532  0.00  0.00    +0.000 A 
ATOM      8  C   UNL     1       2.726   4.632  17.998  0.00  0.00    +0.000 A 
ATOM      9  C   UNL     1       3.374   3.858  17.031  0.00  0.00    +0.000 A 
ATOM     10  C   UNL     1       4.670   4.182  16.634  0.00  0.00    +0.000 A 
ATOM     11  C   UNL     1       5.330   5.223  17.273  0.00  0.00    +0.000 A 
ATOM     12  C   UNL     1       4.671   6.037  18.186  0.00  0.00    +0.000 A 
ATOM     13  O   UNL     1       6.658   5.483  17.055  0.00  0.00    +0.000 OA
ATOM     14  C   UNL     1       6.954   5.260  15.683  0.00  0.00    +0.000 C 
ATOM     15  C   UNL     1       6.498   3.892  15.182  0.00  0.00    +0.000 C 
ATOM     16  O   UNL     1       5.204   3.455  15.616  0.00  0.00    +0.000 OA
ENDBRANCH   5   7
BRANCH   1  19
ATOM     17  C   UNL     1       0.179  10.634  20.790  0.00  0.00    +0.000 C 
ATOM     18  O   UNL     1       0.810  10.911  21.801  0.00  0.00    +0.000 OA
ATOM     19  N   UNL     1       0.501   9.596  19.945  0.00  0.00    +0.000 N 
ATOM     20  H   UNL     1      -0.220   9.330  19.283  0.00  0.00    +0.000 HD
BRANCH  17  21
ATOM     21  C   UNL     1      -1.065  11.379  20.321  0.00  0.00    +0.000 C 
BRANCH  21  22
ATOM     22  C   UNL     1      -1.225  11.393  18.805  0.00  0.00    +0.000 C 
BRANCH  22  26
ATOM     23  C   UNL     1      -5.387  11.827  17.681  0.00  0.00    +0.000 A 
ATOM     24  C   UNL     1      -4.954  12.194  18.955  0.00  0.00    +0.000 A 
ATOM     25  C   UNL     1      -3.609  12.066  19.314  0.00  0.00    +0.000 A 
ATOM     26  C   UNL     1      -2.675  11.555  18.405  0.00  0.00    +0.000 A 
ATOM     27  C   UNL     1      -3.121  11.162  17.135  0.00  0.00    +0.000 A 
ATOM     28  C   UNL     1      -4.469  11.299  16.775  0.00  0.00    +0.000 A 
BRANCH  23  30
ATOM     29  C   UNL     1      -7.212  13.324  17.506  0.00  0.00    +0.000 C 
ATOM     30  O   UNL     1      -6.727  11.986  17.454  0.00  0.00    +0.000 OA
ENDBRANCH  23  30
ENDBRANCH  22  26
ENDBRANCH  21  22
ENDBRANCH  17  21
ENDBRANCH   1  19
TORSDOF 6
ENDMDL
MODEL 8
REMARK VINA RESULT:      -7.9      5.315      8.225
REMARK  Name = 
REMARK  7 active torsions:
REMARK  status: ('A' for Active; 'I' for Inactive)
REMARK    1  A    between atoms: C_1  and  O_2
REMARK    2  A    between atoms: O_2  and  C_3
REMARK    3  A    between atoms: C_6  and  C_7
REMARK    4  A    between atoms: C_7  and  C_8
REMARK    5  A    between atoms: C_8  and  C_9
REMARK    6  A    between atoms: N_11  and  C_12
REMARK    7  A    between atoms: N_16  and  C_17
REMARK                            x       y       z     vdW  Elec       q    Type
REMARK                         _______ _______ _______ _____ _____    ______ ____
ROOT
ATOM      1  C   UNL     1       2.544   6.823  19.145  0.00  0.00    +0.000 C 
ATOM      2  C   UNL     1       2.281   7.852  18.050  0.00  0.00    +0.000 C 
ATOM      3  C   UNL     1       1.775   9.056  18.785  0.00  0.00    +0.000 C 
ATOM      4  O   UNL     1       1.720  10.171  18.290  0.00  0.00    +0.000 OA
ATOM      5  N   UNL     1       1.369   8.647  20.053  0.00  0.00    +0.000 N 
ATOM      6  C   UNL     1       1.528   7.208  20.225  0.00  0.00    +0.000 C 
ENDROOT
BRANCH   5   7
ATOM      7  C   UNL     1       0.540   9.404  20.909  0.00  0.00    +0.000 A 
ATOM      8  C   UNL     1       0.344   9.035  22.250  0.00  0.00    +0.000 A 
ATOM      9  C   UNL     1      -0.325   9.888  23.132  0.00  0.00    +0.000 A 
ATOM     10  C   UNL     1      -0.858  11.091  22.669  0.00  0.00    +0.000 A 
ATOM     11  C   UNL     1      -0.787  11.380  21.312  0.00  0.00    +0.000 A 
ATOM     12  C   UNL     1      -0.068  10.570  20.442  0.00  0.00    +0.000 A 
ATOM     13  O   UNL     1      -1.437  12.456  20.766  0.00  0.00    +0.000 OA
ATOM     14  C   UNL     1      -1.375  13.545  21.675  0.00  0.00    +0.000 C 
ATOM     15  C   UNL     1      -1.845  13.185  23.082  0.00  0.00    +0.000 C 
ATOM     16  O   UNL     1      -1.403  11.923  23.596  0.00  0.00    +0.000 OA
ENDBRANCH   5   7
BRANCH   1  19
ATOM     17  C   UNL     1       2.682   4.290  19.193  0.00  0.00    +0.000 C 
ATOM     18  O   UNL     1       2.866   4.185  20.399  0.00  0.00    +0.000 OA
ATOM     19  N   UNL     1       2.494   5.492  18.549  0.00  0.00    +0.000 N 
ATOM     20  H   UNL     1       2.585   5.466  17.538  0.00  0.00    +0.000 HD
BRANCH  17  21
ATOM     21  C   UNL     1       2.653   3.117  18.222  0.00  0.00    +0.000 C 
BRANCH  21  22
ATOM     22  C   UNL     1       4.034   2.727  17.706  0.00  0.00    +0.000 C 
BRANCH  22  26
ATOM     23  C   UNL     1       6.531   6.196  16.992  0.00  0.00    +0.000 A 
ATOM     24  C   UNL     1       5.665   5.729  16.004  0.00  0.00    +0.000 A 
ATOM     25  C   UNL     1       4.849   4.617  16.238  0.00  0.00    +0.000 A 
ATOM     26  C   UNL     1       4.898   3.945  17.465  0.00  0.00    +0.000 A 
ATOM     27  C   UNL     1       5.791   4.402  18.445  0.00  0.00    +0.000 A 
ATOM     28  C   UNL     1       6.601   5.521  18.210  0.00  0.00    +0.000 A 
BRANCH  23  30
ATOM     29  C   UNL     1       7.933   7.963  17.708  0.00  0.00    +0.000 C 
ATOM     30  O   UNL     1       7.286   7.281  16.639  0.00  0.00    +0.000 OA
ENDBRANCH  23  30
ENDBRANCH  22  26
ENDBRANCH  21  22
ENDBRANCH  17  21
ENDBRANCH   1  19
TORSDOF 6
ENDMDL
MODEL 9
REMARK VINA RESULT:      -7.8      6.188      9.759
REMARK  Name = 
REMARK  7 active torsions:
REMARK  status: ('A' for Active; 'I' for Inactive)
REMARK    1  A    between atoms: C_1  and  O_2
REMARK    2  A    between atoms: O_2  and  C_3
REMARK    3  A    between atoms: C_6  and  C_7
REMARK    4  A    between atoms: C_7  and  C_8
REMARK    5  A    between atoms: C_8  and  C_9
REMARK    6  A    between atoms: N_11  and  C_12
REMARK    7  A    between atoms: N_16  and  C_17
REMARK                            x       y       z     vdW  Elec       q    Type
REMARK                         _______ _______ _______ _____ _____    ______ ____
ROOT
ATOM      1  C   UNL     1       1.159   8.204  20.618  0.00  0.00    +0.000 C 
ATOM      2  C   UNL     1       1.143   8.880  21.986  0.00  0.00    +0.000 C 
ATOM      3  C   UNL     1       0.581  10.245  21.719  0.00  0.00    +0.000 C 
ATOM      4  O   UNL     1       0.155  10.978  22.597  0.00  0.00    +0.000 OA
ATOM      5  N   UNL     1       0.683  10.492  20.352  0.00  0.00    +0.000 N 
ATOM      6  C   UNL     1       1.327   9.385  19.657  0.00  0.00    +0.000 C 
ENDROOT
BRANCH   5   7
ATOM      7  C   UNL     1       0.576  11.771  19.763  0.00  0.00    +0.000 A 
ATOM      8  C   UNL     1      -0.624  12.205  19.175  0.00  0.00    +0.000 A 
ATOM      9  C   UNL     1      -0.773  13.532  18.762  0.00  0.00    +0.000 A 
ATOM     10  C   UNL     1       0.294  14.422  18.876  0.00  0.00    +0.000 A 
ATOM     11  C   UNL     1       1.521  13.948  19.322  0.00  0.00    +0.000 A 
ATOM     12  C   UNL     1       1.659  12.649  19.795  0.00  0.00    +0.000 A 
ATOM     13  O   UNL     1       2.650  14.724  19.295  0.00  0.00    +0.000 OA
ATOM     14  C   UNL     1       2.302  16.061  19.625  0.00  0.00    +0.000 C 
ATOM     15  C   UNL     1       1.152  16.610  18.785  0.00  0.00    +0.000 C 
ATOM     16  O   UNL     1       0.052  15.721  18.556  0.00  0.00    +0.000 OA
ENDBRANCH   5   7
BRANCH   1  19
ATOM     17  C   UNL     1       2.538   6.342  19.587  0.00  0.00    +0.000 C 
ATOM     18  O   UNL     1       2.104   6.463  18.448  0.00  0.00    +0.000 OA
ATOM     19  N   UNL     1       2.160   7.143  20.640  0.00  0.00    +0.000 N 
ATOM     20  H   UNL     1       2.408   6.800  21.563  0.00  0.00    +0.000 HD
BRANCH  17  21
ATOM     21  C   UNL     1       3.542   5.279  20.016  0.00  0.00    +0.000 C 
BRANCH  21  22
ATOM     22  C   UNL     1       3.579   4.073  19.085  0.00  0.00    +0.000 C 
BRANCH  22  26
ATOM     23  C   UNL     1       6.607   4.575  16.026  0.00  0.00    +0.000 A 
ATOM     24  C   UNL     1       6.923   4.750  17.373  0.00  0.00    +0.000 A 
ATOM     25  C   UNL     1       5.949   4.576  18.361  0.00  0.00    +0.000 A 
ATOM     26  C   UNL     1       4.637   4.234  18.015  0.00  0.00    +0.000 A 
ATOM     27  C   UNL     1       4.318   4.086  16.657  0.00  0.00    +0.000 A 
ATOM     28  C   UNL     1       5.298   4.254  15.669  0.00  0.00    +0.000 A 
BRANCH  23  30
ATOM     29  C   UNL     1       7.292   4.823  13.774  0.00  0.00    +0.000 C 
ATOM     30  O   UNL     1       7.640   4.786  15.154  0.00  0.00    +0.000 OA
ENDBRANCH  23  30
ENDBRANCH  22  26
ENDBRANCH  21  22
ENDBRANCH  17  21
ENDBRANCH   1  19
TORSDOF 6
ENDMDL
