MODEL 1
REMARK VINA RESULT:      -9.0      0.000      0.000
REMARK  Name = 
REMARK  11 active torsions:
REMARK  status: ('A' for Active; 'I' for Inactive)
REMARK    1  A    between atoms: C_1  and  C_2
REMARK    2  A    between atoms: C_2  and  C_3
REMARK    3  A    between atoms: C_2  and  C_4
REMARK    4  A    between atoms: C_4  and  C_5
REMARK    5  A    between atoms: C_5  and  N_6
REMARK    6  A    between atoms: N_6  and  C_7
REMARK    7  A    between atoms: C_7  and  C_8
REMARK    8  A    between atoms: N_12  and  C_13
REMARK    9  A    between atoms: C_13  and  C_14
REMARK   10  A    between atoms: C_21  and  C_23
REMARK   11  A    between atoms: C_27  and  C_28
REMARK                            x       y       z     vdW  Elec       q    Type
REMARK                         _______ _______ _______ _____ _____    ______ ____
ROOT
ATOM      1  N   UNL     1       5.506   4.968  15.425  0.00  0.00    +0.000 N 
ATOM      2  C   UNL     1       6.820   5.499  15.559  0.00  0.00    +0.000 C 
ATOM      3  O   UNL     1       7.595   5.565  14.602  0.00  0.00    +0.000 OA
ENDROOT
BRANCH   2   4
ATOM      4  C   UNL     1       7.384   5.977  16.860  0.00  0.00    +0.000 A 
ATOM      5  C   UNL     1       7.458   5.186  17.988  0.00  0.00    +0.000 A 
ATOM      6  N   UNL     1       7.960   5.600  19.177  0.00  0.00    +0.000 NA
ATOM      7  C   UNL     1       8.331   6.903  19.269  0.00  0.00    +0.000 A 
ATOM      8  C   UNL     1       8.213   7.849  18.248  0.00  0.00    +0.000 A 
ATOM      9  C   UNL     1       7.727   7.340  17.024  0.00  0.00    +0.000 A 
BRANCH   8  10
ATOM     10  C   UNL     1       8.546   9.285  18.462  0.00  0.00    +0.000 A 
ATOM     11  C   UNL     1       9.285   9.714  19.581  0.00  0.00    +0.000 A 
ATOM     12  C   UNL     1       9.648  11.052  19.763  0.00  0.00    +0.000 A 
ATOM     13  C   UNL     1       9.268  12.016  18.835  0.00  0.00    +0.000 A 
ATOM     14  C   UNL     1       8.511  11.638  17.733  0.00  0.00    +0.000 A 
ATOM     15  C   UNL     1       8.156  10.293  17.551  0.00  0.00    +0.000 A 
ENDBRANCH   8  10
ENDBRANCH   2   4
BRANCH   1  16
ATOM     16  C   UNL     1       5.096   4.563  14.060  0.00  0.00    +0.000 C 
BRANCH  16  17
ATOM     17  C   UNL     1       5.811   3.345  13.443  0.00  0.00    +0.000 C 
BRANCH  17  19
ATOM     18  C   UNL     1       6.236   1.754  11.455  0.00  0.00    +0.000 C 
ATOM     19  C   UNL     1       5.727   3.123  11.915  0.00  0.00    +0.000 C 
ATOM     20  C   UNL     1       4.264   3.264  11.462  0.00  0.00    +0.000 C 
ENDBRANCH  17  19
ENDBRANCH  16  17
ENDBRANCH   1  16
BRANCH   1  21
ATOM     21  C   UNL     1       4.696   4.576  16.598  0.00  0.00    +0.000 C 
BRANCH  21  22
ATOM     22  C   UNL     1       3.806   5.610  17.209  0.00  0.00    +0.000 A 
ATOM     23  C   UNL     1       4.130   6.891  17.620  0.00  0.00    +0.000 A 
ATOM     24  N   UNL     1       3.064   7.537  18.177  0.00  0.00    +0.000 NA
ATOM     25  C   UNL     1       2.099   6.653  18.178  0.00  0.00    +0.000 A 
ATOM     26  N   UNL     1       2.508   5.446  17.670  0.00  0.00    +0.000 N 
BRANCH  26  27
ATOM     27  C   UNL     1       1.695   4.240  17.754  0.00  0.00    +0.000 C 
BRANCH  27  28
ATOM     28  C   UNL     1       1.927   3.547  19.080  0.00  0.00    +0.000 A 
ATOM     29  C   UNL     1       0.999   3.656  20.133  0.00  0.00    +0.000 A 
ATOM     30  C   UNL     1       1.297   3.164  21.405  0.00  0.00    +0.000 A 
ATOM     31  C   UNL     1       2.522   2.542  21.641  0.00  0.00    +0.000 A 
ATOM     32  C   UNL     1       3.426   2.384  20.595  0.00  0.00    +0.000 A 
ATOM     33 CL   UNL     1       4.940   1.616  20.879  0.00  0.00    +0.000 Cl
ATOM     34  C   UNL     1       3.133   2.872  19.321  0.00  0.00    +0.000 A 
ENDBRANCH  27  28
ENDBRANCH  26  27
ENDBRANCH  21  22
ENDBRANCH   1  21
TORSDOF 9
ENDMDL
MODEL 2
REMARK VINA RESULT:      -8.9      3.552      7.593
REMARK  Name = 
REMARK  11 active torsions:
REMARK  status: ('A' for Active; 'I' for Inactive)
REMARK    1  A    between atoms: C_1  and  C_2
REMARK    2  A    between atoms: C_2  and  C_3
REMARK    3  A    between atoms: C_2  and  C_4
REMARK    4  A    between atoms: C_4  and  C_5
REMARK    5  A    between atoms: C_5  and  N_6
REMARK    6  A    between atoms: N_6  and  C_7
REMARK    7  A    between atoms: C_7  and  C_8
REMARK    8  A    between atoms: N_12  and  C_13
REMARK    9  A    between atoms: C_13  and  C_14
REMARK   10  A    between atoms: C_21  and  C_23
REMARK   11  A    between atoms: C_27  and  C_28
REMARK                            x       y       z     vdW  Elec       q    Type
REMARK                         _______ _______ _______ _____ _____    ______ ____
ROOT
ATOM      1  N   UNL     1       3.458   4.837  18.655  0.00  0.00    +0.000 N 
ATOM      2  C   UNL     1       2.290   5.507  18.195  0.00  0.00    +0.000 C 
ATOM      3  O   UNL     1       1.360   4.900  17.660  0.00  0.00    +0.000 OA
ENDROOT
BRANCH   2   4
ATOM      4  C   UNL     1       2.106   6.991  18.279  0.00  0.00    +0.000 A 
ATOM      5  C   UNL     1       2.680   7.875  17.389  0.00  0.00    +0.000 A 
ATOM      6  N   UNL     1       2.530   9.221  17.450  0.00  0.00    +0.000 NA
ATOM      7  C   UNL     1       1.840   9.717  18.509  0.00  0.00    +0.000 A 
ATOM      8  C   UNL     1       1.298   8.955  19.546  0.00  0.00    +0.000 A 
ATOM      9  C   UNL     1       1.448   7.559  19.395  0.00  0.00    +0.000 A 
BRANCH   8  10
ATOM     10  C   UNL     1       0.645   9.585  20.728  0.00  0.00    +0.000 A 
ATOM     11  C   UNL     1       0.235  10.931  20.716  0.00  0.00    +0.000 A 
ATOM     12  C   UNL     1      -0.427  11.516  21.801  0.00  0.00    +0.000 A 
ATOM     13  C   UNL     1      -0.689  10.774  22.948  0.00  0.00    +0.000 A 
ATOM     14  C   UNL     1      -0.272   9.449  23.010  0.00  0.00    +0.000 A 
ATOM     15  C   UNL     1       0.384   8.865  21.917  0.00  0.00    +0.000 A 
ENDBRANCH   8  10
ENDBRANCH   2   4
BRANCH   1  16
ATOM     16  C   UNL     1       3.467   3.362  18.519  0.00  0.00    +0.000 C 
BRANCH  16  17
ATOM     17  C   UNL     1       3.533   2.536  19.818  0.00  0.00    +0.000 C 
BRANCH  17  19
ATOM     18  C   UNL     1       2.161   3.663  21.691  0.00  0.00    +0.000 C 
ATOM     19  C   UNL     1       2.288   2.476  20.732  0.00  0.00    +0.000 C 
ATOM     20  C   UNL     1       1.021   2.428  19.861  0.00  0.00    +0.000 C 
ENDBRANCH  17  19
ENDBRANCH  16  17
ENDBRANCH   1  16
BRANCH   1  21
ATOM     21  C   UNL     1       4.701   5.567  18.988  0.00  0.00    +0.000 C 
BRANCH  21  22
ATOM     22  C   UNL     1       5.974   5.100  18.360  0.00  0.00    +0.000 A 
ATOM     23  C   UNL     1       7.223   4.968  18.940  0.00  0.00    +0.000 A 
ATOM     24  N   UNL     1       8.166   4.554  18.044  0.00  0.00    +0.000 NA
ATOM     25  C   UNL     1       7.535   4.490  16.899  0.00  0.00    +0.000 A 
ATOM     26  N   UNL     1       6.223   4.877  17.013  0.00  0.00    +0.000 N 
BRANCH  26  27
ATOM     27  C   UNL     1       5.364   5.099  15.858  0.00  0.00    +0.000 C 
BRANCH  27  28
ATOM     28  C   UNL     1       6.082   4.692  14.589  0.00  0.00    +0.000 A 
ATOM     29  C   UNL     1       7.234   5.373  14.152  0.00  0.00    +0.000 A 
ATOM     30  C   UNL     1       7.790   5.110  12.899  0.00  0.00    +0.000 A 
ATOM     31  C   UNL     1       7.211   4.152  12.068  0.00  0.00    +0.000 A 
ATOM     32  C   UNL     1       6.102   3.438  12.510  0.00  0.00    +0.000 A 
ATOM     33 CL   UNL     1       5.383   2.252  11.491  0.00  0.00    +0.000 Cl
ATOM     34  C   UNL     1       5.544   3.694  13.763  0.00  0.00    +0.000 A 
ENDBRANCH  27  28
ENDBRANCH  26  27
ENDBRANCH  21  22
ENDBRANCH   1  21
TORSDOF 9
ENDMDL
MODEL 3
REMARK VINA RESULT:      -8.3      3.932      7.644
REMARK  Name = 
REMARK  11 active torsions:
REMARK  status: ('A' for Active; 'I' for Inactive)
REMARK    1  A    between atoms: C_1  and  C_2
REMARK    2  A    between atoms: C_2  and  C_3
REMARK    3  A    between atoms: C_2  and  C_4
REMARK    4  A    between atoms: C_4  and  C_5
REMARK    5  A    between atoms: C_5  and  N_6
REMARK    6  A    between atoms: N_6  and  C_7
REMARK    7  A    between atoms: C_7  and  C_8
REMARK    8  A    between atoms: N_12  and  C_13
REMARK    9  A    between atoms: C_13  and  C_14
REMARK   10  A    between atoms: C_21  and  C_23
REMARK   11  A    between atoms: C_27  and  C_28
REMARK                            x       y       z     vdW  Elec       q    Type
REMARK                         _______ _______ _______ _____ _____    ______ ____
ROOT
ATOM      1  N   UNL     1       3.409   5.500  19.137  0.00  0.00    +0.000 N 
ATOM      2  C   UNL     1       2.378   6.285  19.725  0.00  0.00    +0.000 C 
ATOM      3  O   UNL     1       1.695   5.865  20.662  0.00  0.00    +0.000 OA
ENDROOT
BRANCH   2   4
ATOM      4  C   UNL     1       2.007   7.652  19.240  0.00  0.00    +0.000 A 
ATOM      5  C   UNL     1       2.441   8.170  18.037  0.00  0.00    +0.000 A 
ATOM      6  N   UNL     1       2.121   9.406  17.581  0.00  0.00    +0.000 NA
ATOM      7  C   UNL     1       1.399  10.201  18.411  0.00  0.00    +0.000 A 
ATOM      8  C   UNL     1       0.985   9.856  19.699  0.00  0.00    +0.000 A 
ATOM      9  C   UNL     1       1.309   8.539  20.092  0.00  0.00    +0.000 A 
BRANCH   8  10
ATOM     10  C   UNL     1       0.285  10.826  20.589  0.00  0.00    +0.000 A 
ATOM     11  C   UNL     1      -0.229  10.442  21.841  0.00  0.00    +0.000 A 
ATOM     12  C   UNL     1      -0.840  11.357  22.705  0.00  0.00    +0.000 A 
ATOM     13  C   UNL     1      -0.972  12.692  22.337  0.00  0.00    +0.000 A 
ATOM     14  C   UNL     1      -0.503  13.104  21.095  0.00  0.00    +0.000 A 
ATOM     15  C   UNL     1       0.115  12.184  20.235  0.00  0.00    +0.000 A 
ENDBRANCH   8  10
ENDBRANCH   2   4
BRANCH   1  16
ATOM     16  C   UNL     1       3.663   4.178  19.755  0.00  0.00    +0.000 C 
BRANCH  16  17
ATOM     17  C   UNL     1       3.119   2.939  19.017  0.00  0.00    +0.000 C 
BRANCH  17  19
ATOM     18  C   UNL     1       1.603   2.500  21.059  0.00  0.00    +0.000 C 
ATOM     19  C   UNL     1       1.869   2.223  19.577  0.00  0.00    +0.000 C 
ATOM     20  C   UNL     1       0.629   2.666  18.780  0.00  0.00    +0.000 C 
ENDBRANCH  17  19
ENDBRANCH  16  17
ENDBRANCH   1  16
BRANCH   1  21
ATOM     21  C   UNL     1       4.002   5.841  17.825  0.00  0.00    +0.000 C 
BRANCH  21  22
ATOM     22  C   UNL     1       5.462   5.587  17.633  0.00  0.00    +0.000 A 
ATOM     23  C   UNL     1       6.533   6.344  18.072  0.00  0.00    +0.000 A 
ATOM     24  N   UNL     1       7.730   5.826  17.668  0.00  0.00    +0.000 NA
ATOM     25  C   UNL     1       7.416   4.793  16.927  0.00  0.00    +0.000 A 
ATOM     26  N   UNL     1       6.057   4.640  16.811  0.00  0.00    +0.000 N 
BRANCH  26  27
ATOM     27  C   UNL     1       5.447   3.703  15.877  0.00  0.00    +0.000 C 
BRANCH  27  28
ATOM     28  C   UNL     1       5.919   3.992  14.468  0.00  0.00    +0.000 A 
ATOM     29  C   UNL     1       5.357   3.329  13.360  0.00  0.00    +0.000 A 
ATOM     30  C   UNL     1       5.911   3.468  12.086  0.00  0.00    +0.000 A 
ATOM     31  C   UNL     1       7.026   4.283  11.896  0.00  0.00    +0.000 A 
ATOM     32  C   UNL     1       7.559   4.981  12.975  0.00  0.00    +0.000 A 
ATOM     33 CL   UNL     1       8.934   5.990  12.748  0.00  0.00    +0.000 Cl
ATOM     34  C   UNL     1       7.008   4.849  14.250  0.00  0.00    +0.000 A 
ENDBRANCH  27  28
ENDBRANCH  26  27
ENDBRANCH  21  22
ENDBRANCH   1  21
TORSDOF 9
ENDMDL
MODEL 4
REMARK VINA RESULT:      -8.2      3.870      7.633
REMARK  Name = 
REMARK  11 active torsions:
REMARK  status: ('A' for Active; 'I' for Inactive)
REMARK    1  A    between atoms: C_1  and  C_2
REMARK    2  A    between atoms: C_2  and  C_3
REMARK    3  A    between atoms: C_2  and  C_4
REMARK    4  A    between atoms: C_4  and  C_5
REMARK    5  A    between atoms: C_5  and  N_6
REMARK    6  A    between atoms: N_6  and  C_7
REMARK    7  A    between atoms: C_7  and  C_8
REMARK    8  A    between atoms: N_12  and  C_13
REMARK    9  A    between atoms: C_13  and  C_14
REMARK   10  A    between atoms: C_21  and  C_23
REMARK   11  A    between atoms: C_27  and  C_28
REMARK                            x       y       z     vdW  Elec       q    Type
REMARK                         _______ _______ _______ _____ _____    ______ ____
ROOT
ATOM      1  N   UNL     1       3.563   5.325  19.004  0.00  0.00    +0.000 N 
ATOM      2  C   UNL     1       2.608   6.049  19.771  0.00  0.00    +0.000 C 
ATOM      3  O   UNL     1       2.125   5.591  20.809  0.00  0.00    +0.000 OA
ENDROOT
BRANCH   2   4
ATOM      4  C   UNL     1       2.081   7.392  19.372  0.00  0.00    +0.000 A 
ATOM      5  C   UNL     1       2.370   7.988  18.162  0.00  0.00    +0.000 A 
ATOM      6  N   UNL     1       1.908   9.205  17.783  0.00  0.00    +0.000 NA
ATOM      7  C   UNL     1       1.186   9.902  18.697  0.00  0.00    +0.000 A 
ATOM      8  C   UNL     1       0.906   9.477  19.997  0.00  0.00    +0.000 A 
ATOM      9  C   UNL     1       1.376   8.182  20.310  0.00  0.00    +0.000 A 
BRANCH   8  10
ATOM     10  C   UNL     1       0.195  10.348  20.976  0.00  0.00    +0.000 A 
ATOM     11  C   UNL     1      -0.376   9.826  22.152  0.00  0.00    +0.000 A 
ATOM     12  C   UNL     1      -0.998  10.643  23.101  0.00  0.00    +0.000 A 
ATOM     13  C   UNL     1      -1.086  12.016  22.898  0.00  0.00    +0.000 A 
ATOM     14  C   UNL     1      -0.561  12.566  21.734  0.00  0.00    +0.000 A 
ATOM     15  C   UNL     1       0.068  11.743  20.788  0.00  0.00    +0.000 A 
ENDBRANCH   8  10
ENDBRANCH   2   4
BRANCH   1  16
ATOM     16  C   UNL     1       3.997   4.021  19.555  0.00  0.00    +0.000 C 
BRANCH  16  17
ATOM     17  C   UNL     1       3.427   2.751  18.892  0.00  0.00    +0.000 C 
BRANCH  17  19
ATOM     18  C   UNL     1       1.748   2.449  20.829  0.00  0.00    +0.000 C 
ATOM     19  C   UNL     1       2.044   2.228  19.344  0.00  0.00    +0.000 C 
ATOM     20  C   UNL     1       0.944   2.929  18.528  0.00  0.00    +0.000 C 
ENDBRANCH  17  19
ENDBRANCH  16  17
ENDBRANCH   1  16
BRANCH   1  21
ATOM     21  C   UNL     1       3.897   5.700  17.612  0.00  0.00    +0.000 C 
BRANCH  21  22
ATOM     22  C   UNL     1       5.299   6.124  17.321  0.00  0.00    +0.000 A 
ATOM     23  C   UNL     1       5.849   7.392  17.400  0.00  0.00    +0.000 A 
ATOM     24  N   UNL     1       7.159   7.409  17.012  0.00  0.00    +0.000 NA
ATOM     25  C   UNL     1       7.412   6.183  16.630  0.00  0.00    +0.000 A 
ATOM     26  N   UNL     1       6.306   5.376  16.728  0.00  0.00    +0.000 N 
BRANCH  26  27
ATOM     27  C   UNL     1       6.261   4.031  16.170  0.00  0.00    +0.000 C 
BRANCH  27  28
ATOM     28  C   UNL     1       6.511   4.078  14.677  0.00  0.00    +0.000 A 
ATOM     29  C   UNL     1       7.603   4.787  14.143  0.00  0.00    +0.000 A 
ATOM     30  C   UNL     1       7.731   4.972  12.764  0.00  0.00    +0.000 A 
ATOM     31  C   UNL     1       6.777   4.439  11.899  0.00  0.00    +0.000 A 
ATOM     32  C   UNL     1       5.721   3.694  12.414  0.00  0.00    +0.000 A 
ATOM     33 CL   UNL     1       4.541   3.031  11.351  0.00  0.00    +0.000 Cl
ATOM     34  C   UNL     1       5.590   3.503  13.790  0.00  0.00    +0.000 A 
ENDBRANCH  27  28
ENDBRANCH  26  27
ENDBRANCH  21  22
ENDBRANCH   1  21
TORSDOF 9
ENDMDL
MODEL 5
REMARK VINA RESULT:      -8.2      2.014      3.290
REMARK  Name = 
REMARK  11 active torsions:
REMARK  status: ('A' for Active; 'I' for Inactive)
REMARK    1  A    between atoms: C_1  and  C_2
REMARK    2  A    between atoms: C_2  and  C_3
REMARK    3  A    between atoms: C_2  and  C_4
REMARK    4  A    between atoms: C_4  and  C_5
REMARK    5  A    between atoms: C_5  and  N_6
REMARK    6  A    between atoms: N_6  and  C_7
REMARK    7  A    between atoms: C_7  and  C_8
REMARK    8  A    between atoms: N_12  and  C_13
REMARK    9  A    between atoms: C_13  and  C_14
REMARK   10  A    between atoms: C_21  and  C_23
REMARK   11  A    between atoms: C_27  and  C_28
REMARK                            x       y       z     vdW  Elec       q    Type
REMARK                         _______ _______ _______ _____ _____    ______ ____
ROOT
ATOM      1  N   UNL     1       5.510   4.543  15.903  0.00  0.00    +0.000 N 
ATOM      2  C   UNL     1       6.674   5.362  15.893  0.00  0.00    +0.000 C 
ATOM      3  O   UNL     1       7.262   5.644  14.846  0.00  0.00    +0.000 OA
ENDROOT
BRANCH   2   4
ATOM      4  C   UNL     1       7.303   5.911  17.135  0.00  0.00    +0.000 A 
ATOM      5  C   UNL     1       7.423   5.189  18.305  0.00  0.00    +0.000 A 
ATOM      6  N   UNL     1       7.984   5.669  19.441  0.00  0.00    +0.000 NA
ATOM      7  C   UNL     1       8.370   6.970  19.437  0.00  0.00    +0.000 A 
ATOM      8  C   UNL     1       8.211   7.854  18.367  0.00  0.00    +0.000 A 
ATOM      9  C   UNL     1       7.665   7.277  17.200  0.00  0.00    +0.000 A 
BRANCH   8  10
ATOM     10  C   UNL     1       8.566   9.297  18.478  0.00  0.00    +0.000 A 
ATOM     11  C   UNL     1       8.174  10.232  17.502  0.00  0.00    +0.000 A 
ATOM     12  C   UNL     1       8.456  11.596  17.624  0.00  0.00    +0.000 A 
ATOM     13  C   UNL     1       9.158  12.073  18.726  0.00  0.00    +0.000 A 
ATOM     14  C   UNL     1       9.589  11.177  19.697  0.00  0.00    +0.000 A 
ATOM     15  C   UNL     1       9.297   9.811  19.574  0.00  0.00    +0.000 A 
ENDBRANCH   8  10
ENDBRANCH   2   4
BRANCH   1  16
ATOM     16  C   UNL     1       5.004   4.103  14.582  0.00  0.00    +0.000 C 
BRANCH  16  17
ATOM     17  C   UNL     1       5.945   3.239  13.719  0.00  0.00    +0.000 C 
BRANCH  17  19
ATOM     18  C   UNL     1       7.239   3.913  11.590  0.00  0.00    +0.000 C 
ATOM     19  C   UNL     1       5.920   3.411  12.183  0.00  0.00    +0.000 C 
ATOM     20  C   UNL     1       5.586   2.060  11.527  0.00  0.00    +0.000 C 
ENDBRANCH  17  19
ENDBRANCH  16  17
ENDBRANCH   1  16
BRANCH   1  21
ATOM     21  C   UNL     1       4.994   3.929  17.146  0.00  0.00    +0.000 C 
BRANCH  21  22
ATOM     22  C   UNL     1       3.555   4.142  17.484  0.00  0.00    +0.000 A 
ATOM     23  C   UNL     1       2.509   3.239  17.404  0.00  0.00    +0.000 A 
ATOM     24  N   UNL     1       1.315   3.802  17.754  0.00  0.00    +0.000 NA
ATOM     25  C   UNL     1       1.593   5.060  17.987  0.00  0.00    +0.000 A 
ATOM     26  N   UNL     1       2.919   5.341  17.772  0.00  0.00    +0.000 N 
BRANCH  26  27
ATOM     27  C   UNL     1       3.443   6.700  17.754  0.00  0.00    +0.000 C 
BRANCH  27  28
ATOM     28  C   UNL     1       2.450   7.649  18.390  0.00  0.00    +0.000 A 
ATOM     29  C   UNL     1       1.906   8.728  17.667  0.00  0.00    +0.000 A 
ATOM     30  C   UNL     1       1.130   9.698  18.304  0.00  0.00    +0.000 A 
ATOM     31  C   UNL     1       0.874   9.598  19.671  0.00  0.00    +0.000 A 
ATOM     32  C   UNL     1       1.366   8.510  20.385  0.00  0.00    +0.000 A 
ATOM     33 CL   UNL     1       1.054   8.379  22.072  0.00  0.00    +0.000 Cl
ATOM     34  C   UNL     1       2.140   7.536  19.753  0.00  0.00    +0.000 A 
ENDBRANCH  27  28
ENDBRANCH  26  27
ENDBRANCH  21  22
ENDBRANCH   1  21
TORSDOF 9
ENDMDL
MODEL 6
REMARK VINA RESULT:      -8.1      3.899      7.079
REMARK  Name = 
REMARK  11 active torsions:
REMARK  status: ('A' for Active; 'I' for Inactive)
REMARK    1  A    between atoms: C_1  and  C_2
REMARK    2  A    between atoms: C_2  and  C_3
REMARK    3  A    between atoms: C_2  and  C_4
REMARK    4  A    between atoms: C_4  and  C_5
REMARK    5  A    between atoms: C_5  and  N_6
REMARK    6  A    between atoms: N_6  and  C_7
REMARK    7  A    between atoms: C_7  and  C_8
REMARK    8  A    between atoms: N_12  and  C_13
REMARK    9  A    between atoms: C_13  and  C_14
REMARK   10  A    between atoms: C_21  and  C_23
REMARK   11  A    between atoms: C_27  and  C_28
REMARK                            x       y       z     vdW  Elec       q    Type
REMARK                         _______ _______ _______ _____ _____    ______ ____
ROOT
ATOM      1  N   UNL     1       2.664   5.126  18.726  0.00  0.00    +0.000 N 
ATOM      2  C   UNL     1       3.488   4.130  18.132  0.00  0.00    +0.000 C 
ATOM      3  O   UNL     1       3.122   2.956  18.035  0.00  0.00    +0.000 OA
ENDROOT
BRANCH   2   4
ATOM      4  C   UNL     1       4.866   4.404  17.616  0.00  0.00    +0.000 A 
ATOM      5  C   UNL     1       5.876   4.923  18.399  0.00  0.00    +0.000 A 
ATOM      6  N   UNL     1       7.129   5.183  17.952  0.00  0.00    +0.000 NA
ATOM      7  C   UNL     1       7.362   4.994  16.628  0.00  0.00    +0.000 A 
ATOM      8  C   UNL     1       6.411   4.579  15.693  0.00  0.00    +0.000 A 
ATOM      9  C   UNL     1       5.141   4.281  16.234  0.00  0.00    +0.000 A 
BRANCH   8  10
ATOM     10  C   UNL     1       6.720   4.497  14.237  0.00  0.00    +0.000 A 
ATOM     11  C   UNL     1       6.077   3.570  13.397  0.00  0.00    +0.000 A 
ATOM     12  C   UNL     1       6.321   3.521  12.020  0.00  0.00    +0.000 A 
ATOM     13  C   UNL     1       7.235   4.392  11.437  0.00  0.00    +0.000 A 
ATOM     14  C   UNL     1       7.914   5.303  12.239  0.00  0.00    +0.000 A 
ATOM     15  C   UNL     1       7.660   5.353  13.617  0.00  0.00    +0.000 A 
ENDBRANCH   8  10
ENDBRANCH   2   4
BRANCH   1  16
ATOM     16  C   UNL     1       1.316   4.691  19.161  0.00  0.00    +0.000 C 
BRANCH  16  17
ATOM     17  C   UNL     1       1.141   4.325  20.649  0.00  0.00    +0.000 C 
BRANCH  17  19
ATOM     18  C   UNL     1       1.051   1.840  19.955  0.00  0.00    +0.000 C 
ATOM     19  C   UNL     1       1.297   2.849  21.080  0.00  0.00    +0.000 C 
ATOM     20  C   UNL     1       2.721   2.626  21.618  0.00  0.00    +0.000 C 
ENDBRANCH  17  19
ENDBRANCH  16  17
ENDBRANCH   1  16
BRANCH   1  21
ATOM     21  C   UNL     1       3.200   6.438  19.148  0.00  0.00    +0.000 C 
BRANCH  21  22
ATOM     22  C   UNL     1       2.415   7.659  18.795  0.00  0.00    +0.000 A 
ATOM     23  C   UNL     1       2.488   8.428  17.647  0.00  0.00    +0.000 A 
ATOM     24  N   UNL     1       1.646   9.502  17.693  0.00  0.00    +0.000 NA
ATOM     25  C   UNL     1       1.100   9.450  18.881  0.00  0.00    +0.000 A 
ATOM     26  N   UNL     1       1.579   8.397  19.620  0.00  0.00    +0.000 N 
BRANCH  26  27
ATOM     27  C   UNL     1       1.295   8.238  21.040  0.00  0.00    +0.000 C 
BRANCH  27  28
ATOM     28  C   UNL     1       0.676   9.505  21.593  0.00  0.00    +0.000 A 
ATOM     29  C   UNL     1      -0.375   9.455  22.528  0.00  0.00    +0.000 A 
ATOM     30  C   UNL     1      -1.057  10.615  22.901  0.00  0.00    +0.000 A 
ATOM     31  C   UNL     1      -0.690  11.844  22.356  0.00  0.00    +0.000 A 
ATOM     32  C   UNL     1       0.380  11.911  21.469  0.00  0.00    +0.000 A 
ATOM     33 CL   UNL     1       0.840  13.425  20.793  0.00  0.00    +0.000 Cl
ATOM     34  C   UNL     1       1.067  10.756  21.094  0.00  0.00    +0.000 A 
ENDBRANCH  27  28
ENDBRANCH  26  27
ENDBRANCH  21  22
ENDBRANCH   1  21
TORSDOF 9
ENDMDL
MODEL 7
REMARK VINA RESULT:      -8.1      3.698      7.022
REMARK  Name = 
REMARK  11 active torsions:
REMARK  status: ('A' for Active; 'I' for Inactive)
REMARK    1  A    between atoms: C_1  and  C_2
REMARK    2  A    between atoms: C_2  and  C_3
REMARK    3  A    between atoms: C_2  and  C_4
REMARK    4  A    between atoms: C_4  and  C_5
REMARK    5  A    between atoms: C_5  and  N_6
REMARK    6  A    between atoms: N_6  and  C_7
REMARK    7  A    between atoms: C_7  and  C_8
REMARK    8  A    between atoms: N_12  and  C_13
REMARK    9  A    between atoms: C_13  and  C_14
REMARK   10  A    between atoms: C_21  and  C_23
REMARK   11  A    between atoms: C_27  and  C_28
REMARK                            x       y       z     vdW  Elec       q    Type
REMARK                         _______ _______ _______ _____ _____    ______ ____
ROOT
ATOM      1  N   UNL     1       3.231   5.134  19.474  0.00  0.00    +0.000 N 
ATOM      2  C   UNL     1       4.519   4.551  19.307  0.00  0.00    +0.000 C 
ATOM      3  O   UNL     1       4.883   3.579  19.972  0.00  0.00    +0.000 OA
ENDROOT
BRANCH   2   4
ATOM      4  C   UNL     1       5.544   5.082  18.354  0.00  0.00    +0.000 A 
ATOM      5  C   UNL     1       6.402   6.117  18.667  0.00  0.00    +0.000 A 
ATOM      6  N   UNL     1       7.334   6.615  17.819  0.00  0.00    +0.000 NA
ATOM      7  C   UNL     1       7.354   6.111  16.559  0.00  0.00    +0.000 A 
ATOM      8  C   UNL     1       6.477   5.142  16.065  0.00  0.00    +0.000 A 
ATOM      9  C   UNL     1       5.564   4.632  17.013  0.00  0.00    +0.000 A 
BRANCH   8  10
ATOM     10  C   UNL     1       6.496   4.717  14.637  0.00  0.00    +0.000 A 
ATOM     11  C   UNL     1       7.508   5.139  13.753  0.00  0.00    +0.000 A 
ATOM     12  C   UNL     1       7.564   4.703  12.426  0.00  0.00    +0.000 A 
ATOM     13  C   UNL     1       6.596   3.836  11.929  0.00  0.00    +0.000 A 
ATOM     14  C   UNL     1       5.564   3.420  12.761  0.00  0.00    +0.000 A 
ATOM     15  C   UNL     1       5.516   3.855  14.094  0.00  0.00    +0.000 A 
ENDBRANCH   8  10
ENDBRANCH   2   4
BRANCH   1  16
ATOM     16  C   UNL     1       2.328   4.469  20.441  0.00  0.00    +0.000 C 
BRANCH  16  17
ATOM     17  C   UNL     1       1.020   3.870  19.886  0.00  0.00    +0.000 C 
BRANCH  17  19
ATOM     18  C   UNL     1       1.521   3.645  17.363  0.00  0.00    +0.000 C 
ATOM     19  C   UNL     1       1.087   2.941  18.652  0.00  0.00    +0.000 C 
ATOM     20  C   UNL     1       2.080   1.799  18.930  0.00  0.00    +0.000 C 
ENDBRANCH  17  19
ENDBRANCH  16  17
ENDBRANCH   1  16
BRANCH   1  21
ATOM     21  C   UNL     1       2.903   6.475  18.941  0.00  0.00    +0.000 C 
BRANCH  21  22
ATOM     22  C   UNL     1       2.166   7.419  19.833  0.00  0.00    +0.000 A 
ATOM     23  C   UNL     1       1.657   7.188  21.099  0.00  0.00    +0.000 A 
ATOM     24  N   UNL     1       1.000   8.277  21.597  0.00  0.00    +0.000 NA
ATOM     25  C   UNL     1       1.036   9.160  20.631  0.00  0.00    +0.000 A 
ATOM     26  N   UNL     1       1.667   8.673  19.513  0.00  0.00    +0.000 N 
BRANCH  26  27
ATOM     27  C   UNL     1       1.655   9.373  18.236  0.00  0.00    +0.000 C 
BRANCH  27  28
ATOM     28  C   UNL     1       0.450  10.286  18.153  0.00  0.00    +0.000 A 
ATOM     29  C   UNL     1       0.527  11.633  18.556  0.00  0.00    +0.000 A 
ATOM     30  C   UNL     1      -0.622  12.421  18.642  0.00  0.00    +0.000 A 
ATOM     31  C   UNL     1      -1.864  11.880  18.314  0.00  0.00    +0.000 A 
ATOM     32  C   UNL     1      -1.944  10.565  17.867  0.00  0.00    +0.000 A 
ATOM     33 CL   UNL     1      -3.474   9.890  17.458  0.00  0.00    +0.000 Cl
ATOM     34  C   UNL     1      -0.799   9.773  17.776  0.00  0.00    +0.000 A 
ENDBRANCH  27  28
ENDBRANCH  26  27
ENDBRANCH  21  22
ENDBRANCH   1  21
TORSDOF 9
ENDMDL
MODEL 8
REMARK VINA RESULT:      -8.1      3.958      7.705
REMARK  Name = 
REMARK  11 active torsions:
REMARK  status: ('A' for Active; 'I' for Inactive)
REMARK    1  A    between atoms: C_1  and  C_2
REMARK    2  A    between atoms: C_2  and  C_3
REMARK    3  A    between atoms: C_2  and  C_4
REMARK    4  A    between atoms: C_4  and  C_5
REMARK    5  A    between atoms: C_5  and  N_6
REMARK    6  A    between atoms: N_6  and  C_7
REMARK    7  A    between atoms: C_7  and  C_8
REMARK    8  A    between atoms: N_12  and  C_13
REMARK    9  A    between atoms: C_13  and  C_14
REMARK   10  A    between atoms: C_21  and  C_23
REMARK   11  A    between atoms: C_27  and  C_28
REMARK                            x       y       z     vdW  Elec       q    Type
REMARK                         _______ _______ _______ _____ _____    ______ ____
ROOT
ATOM      1  N   UNL     1       3.706   5.533  19.485  0.00  0.00    +0.000 N 
ATOM      2  C   UNL     1       2.513   6.126  19.985  0.00  0.00    +0.000 C 
ATOM      3  O   UNL     1       1.766   5.528  20.762  0.00  0.00    +0.000 OA
ENDROOT
BRANCH   2   4
ATOM      4  C   UNL     1       2.045   7.491  19.587  0.00  0.00    +0.000 A 
ATOM      5  C   UNL     1       2.410   8.100  18.403  0.00  0.00    +0.000 A 
ATOM      6  N   UNL     1       2.001   9.336  18.026  0.00  0.00    +0.000 NA
ATOM      7  C   UNL     1       1.256  10.037  18.917  0.00  0.00    +0.000 A 
ATOM      8  C   UNL     1       0.901   9.598  20.194  0.00  0.00    +0.000 A 
ATOM      9  C   UNL     1       1.318   8.285  20.505  0.00  0.00    +0.000 A 
BRANCH   8  10
ATOM     10  C   UNL     1       0.169  10.472  21.154  0.00  0.00    +0.000 A 
ATOM     11  C   UNL     1       0.026  11.855  20.933  0.00  0.00    +0.000 A 
ATOM     12  C   UNL     1      -0.705  12.674  21.800  0.00  0.00    +0.000 A 
ATOM     13  C   UNL     1      -1.308  12.138  22.932  0.00  0.00    +0.000 A 
ATOM     14  C   UNL     1      -1.164  10.781  23.202  0.00  0.00    +0.000 A 
ATOM     15  C   UNL     1      -0.436   9.963  22.326  0.00  0.00    +0.000 A 
ENDBRANCH   8  10
ENDBRANCH   2   4
BRANCH   1  16
ATOM     16  C   UNL     1       4.037   4.185  20.001  0.00  0.00    +0.000 C 
BRANCH  16  17
ATOM     17  C   UNL     1       2.895   3.150  20.051  0.00  0.00    +0.000 C 
BRANCH  17  19
ATOM     18  C   UNL     1       1.341   3.340  17.999  0.00  0.00    +0.000 C 
ATOM     19  C   UNL     1       2.402   2.515  18.731  0.00  0.00    +0.000 C 
ATOM     20  C   UNL     1       3.598   2.326  17.781  0.00  0.00    +0.000 C 
ENDBRANCH  17  19
ENDBRANCH  16  17
ENDBRANCH   1  16
BRANCH   1  21
ATOM     21  C   UNL     1       4.428   6.087  18.318  0.00  0.00    +0.000 C 
BRANCH  21  22
ATOM     22  C   UNL     1       5.677   5.395  17.877  0.00  0.00    +0.000 A 
ATOM     23  C   UNL     1       6.887   5.296  18.541  0.00  0.00    +0.000 A 
ATOM     24  N   UNL     1       7.822   4.622  17.808  0.00  0.00    +0.000 NA
ATOM     25  C   UNL     1       7.230   4.359  16.670  0.00  0.00    +0.000 A 
ATOM     26  N   UNL     1       5.954   4.863  16.626  0.00  0.00    +0.000 N 
BRANCH  26  27
ATOM     27  C   UNL     1       5.161   4.892  15.405  0.00  0.00    +0.000 C 
BRANCH  27  28
ATOM     28  C   UNL     1       6.022   4.521  14.216  0.00  0.00    +0.000 A 
ATOM     29  C   UNL     1       7.107   5.326  13.821  0.00  0.00    +0.000 A 
ATOM     30  C   UNL     1       7.787   5.076  12.628  0.00  0.00    +0.000 A 
ATOM     31  C   UNL     1       7.402   4.010  11.817  0.00  0.00    +0.000 A 
ATOM     32  C   UNL     1       6.363   3.178  12.222  0.00  0.00    +0.000 A 
ATOM     33 CL   UNL     1       5.883   1.858  11.228  0.00  0.00    +0.000 Cl
ATOM     34  C   UNL     1       5.681   3.421  13.415  0.00  0.00    +0.000 A 
ENDBRANCH  27  28
ENDBRANCH  26  27
ENDBRANCH  21  22
ENDBRANCH   1  21
TORSDOF 9
ENDMDL
MODEL 9
REMARK VINA RESULT:      -8.1      3.847      7.083
REMARK  Name = 
REMARK  11 active torsions:
REMARK  status: ('A' for Active; 'I' for Inactive)
REMARK    1  A    between atoms: C_1  and  C_2
REMARK    2  A    between atoms: C_2  and  C_3
REMARK    3  A    between atoms: C_2  and  C_4
REMARK    4  A    between atoms: C_4  and  C_5
REMARK    5  A    between atoms: C_5  and  N_6
REMARK    6  A    between atoms: N_6  and  C_7
REMARK    7  A    between atoms: C_7  and  C_8
REMARK    8  A    between atoms: N_12  and  C_13
REMARK    9  A    between atoms: C_13  and  C_14
REMARK   10  A    between atoms: C_21  and  C_23
REMARK   11  A    between atoms: C_27  and  C_28
REMARK                            x       y       z     vdW  Elec       q    Type
REMARK                         _______ _______ _______ _____ _____    ______ ____
ROOT
ATOM      1  N   UNL     1       3.252   5.107  19.484  0.00  0.00    +0.000 N 
ATOM      2  C   UNL     1       4.519   4.483  19.310  0.00  0.00    +0.000 C 
ATOM      3  O   UNL     1       4.842   3.477  19.945  0.00  0.00    +0.000 OA
ENDROOT
BRANCH   2   4
ATOM      4  C   UNL     1       5.573   5.008  18.385  0.00  0.00    +0.000 A 
ATOM      5  C   UNL     1       6.458   6.007  18.737  0.00  0.00    +0.000 A 
ATOM      6  N   UNL     1       7.416   6.500  17.914  0.00  0.00    +0.000 NA
ATOM      7  C   UNL     1       7.436   6.029  16.641  0.00  0.00    +0.000 A 
ATOM      8  C   UNL     1       6.538   5.101  16.110  0.00  0.00    +0.000 A 
ATOM      9  C   UNL     1       5.597   4.594  17.033  0.00  0.00    +0.000 A 
BRANCH   8  10
ATOM     10  C   UNL     1       6.563   4.714  14.671  0.00  0.00    +0.000 A 
ATOM     11  C   UNL     1       7.526   5.230  13.784  0.00  0.00    +0.000 A 
ATOM     12  C   UNL     1       7.591   4.832  12.445  0.00  0.00    +0.000 A 
ATOM     13  C   UNL     1       6.680   3.911  11.940  0.00  0.00    +0.000 A 
ATOM     14  C   UNL     1       5.694   3.401  12.777  0.00  0.00    +0.000 A 
ATOM     15  C   UNL     1       5.637   3.798  14.121  0.00  0.00    +0.000 A 
ENDBRANCH   8  10
ENDBRANCH   2   4
BRANCH   1  16
ATOM     16  C   UNL     1       2.315   4.443  20.421  0.00  0.00    +0.000 C 
BRANCH  16  17
ATOM     17  C   UNL     1       1.017   3.864  19.825  0.00  0.00    +0.000 C 
BRANCH  17  19
ATOM     18  C   UNL     1       1.648   3.568  17.339  0.00  0.00    +0.000 C 
ATOM     19  C   UNL     1       1.111   2.909  18.612  0.00  0.00    +0.000 C 
ATOM     20  C   UNL     1       2.034   1.730  18.965  0.00  0.00    +0.000 C 
ENDBRANCH  17  19
ENDBRANCH  16  17
ENDBRANCH   1  16
BRANCH   1  21
ATOM     21  C   UNL     1       2.978   6.476  18.994  0.00  0.00    +0.000 C 
BRANCH  21  22
ATOM     22  C   UNL     1       2.200   7.392  19.881  0.00  0.00    +0.000 A 
ATOM     23  C   UNL     1       1.746   7.165  21.169  0.00  0.00    +0.000 A 
ATOM     24  N   UNL     1       1.026   8.218  21.654  0.00  0.00    +0.000 NA
ATOM     25  C   UNL     1       0.969   9.071  20.663  0.00  0.00    +0.000 A 
ATOM     26  N   UNL     1       1.601   8.596  19.540  0.00  0.00    +0.000 N 
BRANCH  26  27
ATOM     27  C   UNL     1       1.500   9.252  18.244  0.00  0.00    +0.000 C 
BRANCH  27  28
ATOM     28  C   UNL     1       0.290  10.161  18.212  0.00  0.00    +0.000 A 
ATOM     29  C   UNL     1      -0.938   9.722  17.684  0.00  0.00    +0.000 A 
ATOM     30  C   UNL     1      -1.997  10.613  17.497  0.00  0.00    +0.000 A 
ATOM     31  C   UNL     1      -1.849  11.954  17.848  0.00  0.00    +0.000 A 
ATOM     32  C   UNL     1      -0.655  12.388  18.417  0.00  0.00    +0.000 A 
ATOM     33 CL   UNL     1      -0.466  14.041  18.854  0.00  0.00    +0.000 Cl
ATOM     34  C   UNL     1       0.405  11.502  18.609  0.00  0.00    +0.000 A 
ENDBRANCH  27  28
ENDBRANCH  26  27
ENDBRANCH  21  22
ENDBRANCH   1  21
TORSDOF 9
ENDMDL
