MODEL 1
REMARK VINA RESULT:      -6.7      0.000      0.000
REMARK  Name = 
REMARK  11 active torsions:
REMARK  status: ('A' for Active; 'I' for Inactive)
REMARK    1  A    between atoms: C_1  and  O_2
REMARK    2  A    between atoms: O_2  and  C_3
REMARK    3  A    between atoms: C_5  and  C_6
REMARK    4  A    between atoms: C_6  and  N_7
REMARK    5  A    between atoms: C_11  and  C_13
REMARK    6  A    between atoms: C_13  and  C_14
REMARK    7  A    between atoms: C_14  and  C_15
REMARK    8  A    between atoms: C_14  and  C_16
REMARK    9  A    between atoms: C_20  and  O_21
REMARK   10  A    between atoms: O_21  and  C_22
REMARK   11  A    between atoms: C_23  and  O_24
REMARK                            x       y       z     vdW  Elec       q    Type
REMARK                         _______ _______ _______ _____ _____    ______ ____
ROOT
ATOM      1  C   UNL     1       2.878   7.859  17.893  0.00  0.00    +0.000 C 
ENDROOT
BRANCH   1   2
ATOM      2  N   UNL     1       1.607   8.260  18.525  0.00  0.00    +0.000 NA
ATOM      3  C   UNL     1       1.116   9.533  17.950  0.00  0.00    +0.000 C 
ATOM      4  C   UNL     1      -0.168   9.994  18.660  0.00  0.00    +0.000 C 
ATOM      5  N   UNL     1       0.115  10.198  20.078  0.00  0.00    +0.000 N 
ATOM      6  C   UNL     1       0.530  11.404  20.627  0.00  0.00    +0.000 C 
ATOM      7  O   UNL     1       0.782  11.529  21.822  0.00  0.00    +0.000 OA
ATOM      8  C   UNL     1       0.544   8.961  20.736  0.00  0.00    +0.000 C 
ATOM      9  C   UNL     1       1.786   8.385  20.002  0.00  0.00    +0.000 C 
BRANCH   6  10
ATOM     10  C   UNL     1       0.692  12.574  19.659  0.00  0.00    +0.000 C 
BRANCH  10  11
ATOM     11  C   UNL     1       2.135  13.068  19.496  0.00  0.00    +0.000 C 
ATOM     12  C   UNL     1       2.678  12.836  18.083  0.00  0.00    +0.000 C 
ATOM     13  C   UNL     1       2.182  14.568  19.805  0.00  0.00    +0.000 C 
ENDBRANCH  10  11
ENDBRANCH   6  10
ENDBRANCH   1   2
BRANCH   1  16
ATOM     14  C   UNL     1       2.589   4.038  17.919  0.00  0.00    +0.000 A 
ATOM     15  C   UNL     1       2.266   5.401  17.877  0.00  0.00    +0.000 A 
ATOM     16  C   UNL     1       3.242   6.395  18.070  0.00  0.00    +0.000 A 
ATOM     17  C   UNL     1       4.561   5.992  18.327  0.00  0.00    +0.000 A 
ATOM     18  C   UNL     1       4.903   4.637  18.343  0.00  0.00    +0.000 A 
ATOM     19  C   UNL     1       3.916   3.659  18.139  0.00  0.00    +0.000 A 
BRANCH  14  21
ATOM     20  C   UNL     1       0.945   2.601  18.881  0.00  0.00    +0.000 C 
ATOM     21  O   UNL     1       1.508   3.212  17.727  0.00  0.00    +0.000 OA
ENDBRANCH  14  21
BRANCH  18  22
ATOM     22  O   UNL     1       6.206   4.338  18.652  0.00  0.00    +0.000 OA
ATOM     23  C   UNL     1       6.944   5.437  19.191  0.00  0.00    +0.000 C 
ENDBRANCH  18  22
BRANCH  19  24
ATOM     24  O   UNL     1       4.264   2.337  18.180  0.00  0.00    +0.000 OA
ATOM     25  H   UNL     1       4.887   2.199  17.446  0.00  0.00    +0.000 HD
ENDBRANCH  19  24
ENDBRANCH   1  16
TORSDOF 7
ENDMDL
MODEL 2
REMARK VINA RESULT:      -6.7      0.759      1.133
REMARK  Name = 
REMARK  11 active torsions:
REMARK  status: ('A' for Active; 'I' for Inactive)
REMARK    1  A    between atoms: C_1  and  O_2
REMARK    2  A    between atoms: O_2  and  C_3
REMARK    3  A    between atoms: C_5  and  C_6
REMARK    4  A    between atoms: C_6  and  N_7
REMARK    5  A    between atoms: C_11  and  C_13
REMARK    6  A    between atoms: C_13  and  C_14
REMARK    7  A    between atoms: C_14  and  C_15
REMARK    8  A    between atoms: C_14  and  C_16
REMARK    9  A    between atoms: C_20  and  O_21
REMARK   10  A    between atoms: O_21  and  C_22
REMARK   11  A    between atoms: C_23  and  O_24
REMARK                            x       y       z     vdW  Elec       q    Type
REMARK                         _______ _______ _______ _____ _____    ______ ____
ROOT
ATOM      1  C   UNL     1       3.136   7.734  17.824  0.00  0.00    +0.000 C 
ENDROOT
BRANCH   1   2
ATOM      2  N   UNL     1       1.850   8.172  18.400  0.00  0.00    +0.000 NA
ATOM      3  C   UNL     1       1.448   9.483  17.844  0.00  0.00    +0.000 C 
ATOM      4  C   UNL     1       0.147   9.978  18.498  0.00  0.00    +0.000 C 
ATOM      5  N   UNL     1       0.358  10.123  19.936  0.00  0.00    +0.000 N 
ATOM      6  C   UNL     1       0.794  11.291  20.549  0.00  0.00    +0.000 C 
ATOM      7  O   UNL     1       0.984  11.365  21.760  0.00  0.00    +0.000 OA
ATOM      8  C   UNL     1       0.696   8.847  20.573  0.00  0.00    +0.000 C 
ATOM      9  C   UNL     1       1.951   8.240  19.887  0.00  0.00    +0.000 C 
BRANCH   6  10
ATOM     10  C   UNL     1       1.060  12.483  19.633  0.00  0.00    +0.000 C 
BRANCH  10  11
ATOM     11  C   UNL     1       0.288  13.755  20.006  0.00  0.00    +0.000 C 
ATOM     12  C   UNL     1       0.719  14.967  19.176  0.00  0.00    +0.000 C 
ATOM     13  C   UNL     1      -1.208  13.508  19.782  0.00  0.00    +0.000 C 
ENDBRANCH  10  11
ENDBRANCH   6  10
ENDBRANCH   1   2
BRANCH   1  16
ATOM     14  C   UNL     1       2.730   3.924  17.901  0.00  0.00    +0.000 A 
ATOM     15  C   UNL     1       2.449   5.296  17.838  0.00  0.00    +0.000 A 
ATOM     16  C   UNL     1       3.453   6.262  18.024  0.00  0.00    +0.000 A 
ATOM     17  C   UNL     1       4.758   5.824  18.295  0.00  0.00    +0.000 A 
ATOM     18  C   UNL     1       5.059   4.459  18.332  0.00  0.00    +0.000 A 
ATOM     19  C   UNL     1       4.044   3.508  18.136  0.00  0.00    +0.000 A 
BRANCH  14  21
ATOM     20  C   UNL     1       0.968   2.647  18.879  0.00  0.00    +0.000 C 
ATOM     21  O   UNL     1       1.626   3.129  17.714  0.00  0.00    +0.000 OA
ENDBRANCH  14  21
BRANCH  18  22
ATOM     22  O   UNL     1       6.350   4.126  18.653  0.00  0.00    +0.000 OA
ATOM     23  C   UNL     1       7.321   4.569  17.703  0.00  0.00    +0.000 C 
ENDBRANCH  18  22
BRANCH  19  24
ATOM     24  O   UNL     1       4.352   2.178  18.197  0.00  0.00    +0.000 OA
ATOM     25  H   UNL     1       3.503   1.706  18.237  0.00  0.00    +0.000 HD
ENDBRANCH  19  24
ENDBRANCH   1  16
TORSDOF 7
ENDMDL
MODEL 3
REMARK VINA RESULT:      -6.6      0.519      2.615
REMARK  Name = 
REMARK  11 active torsions:
REMARK  status: ('A' for Active; 'I' for Inactive)
REMARK    1  A    between atoms: C_1  and  O_2
REMARK    2  A    between atoms: O_2  and  C_3
REMARK    3  A    between atoms: C_5  and  C_6
REMARK    4  A    between atoms: C_6  and  N_7
REMARK    5  A    between atoms: C_11  and  C_13
REMARK    6  A    between atoms: C_13  and  C_14
REMARK    7  A    between atoms: C_14  and  C_15
REMARK    8  A    between atoms: C_14  and  C_16
REMARK    9  A    between atoms: C_20  and  O_21
REMARK   10  A    between atoms: O_21  and  C_22
REMARK   11  A    between atoms: C_23  and  O_24
REMARK                            x       y       z     vdW  Elec       q    Type
REMARK                         _______ _______ _______ _____ _____    ______ ____
ROOT
ATOM      1  C   UNL     1       3.144   7.715  17.807  0.00  0.00    +0.000 C 
ENDROOT
BRANCH   1   2
ATOM      2  N   UNL     1       1.854   8.124  18.395  0.00  0.00    +0.000 NA
ATOM      3  C   UNL     1       1.393   9.401  17.805  0.00  0.00    +0.000 C 
ATOM      4  C   UNL     1       0.087   9.870  18.471  0.00  0.00    +0.000 C 
ATOM      5  N   UNL     1       0.322  10.070  19.899  0.00  0.00    +0.000 N 
ATOM      6  C   UNL     1       0.727  11.273  20.463  0.00  0.00    +0.000 C 
ATOM      7  O   UNL     1       0.938  11.394  21.667  0.00  0.00    +0.000 OA
ATOM      8  C   UNL     1       0.720   8.830  20.569  0.00  0.00    +0.000 C 
ATOM      9  C   UNL     1       1.983   8.246  19.877  0.00  0.00    +0.000 C 
BRANCH   6  10
ATOM     10  C   UNL     1       0.930  12.443  19.503  0.00  0.00    +0.000 C 
BRANCH  10  11
ATOM     11  C   UNL     1       2.257  13.191  19.687  0.00  0.00    +0.000 C 
ATOM     12  C   UNL     1       2.966  13.461  18.356  0.00  0.00    +0.000 C 
ATOM     13  C   UNL     1       1.978  14.528  20.380  0.00  0.00    +0.000 C 
ENDBRANCH  10  11
ENDBRANCH   6  10
ENDBRANCH   1   2
BRANCH   1  16
ATOM     14  C   UNL     1       5.121   4.513  18.533  0.00  0.00    +0.000 A 
ATOM     15  C   UNL     1       4.796   5.850  18.262  0.00  0.00    +0.000 A 
ATOM     16  C   UNL     1       3.478   6.242  17.970  0.00  0.00    +0.000 A 
ATOM     17  C   UNL     1       2.481   5.256  17.936  0.00  0.00    +0.000 A 
ATOM     18  C   UNL     1       2.785   3.924  18.233  0.00  0.00    +0.000 A 
ATOM     19  C   UNL     1       4.106   3.552  18.530  0.00  0.00    +0.000 A 
BRANCH  14  21
ATOM     20  C   UNL     1       7.368   4.674  17.748  0.00  0.00    +0.000 C 
ATOM     21  O   UNL     1       6.457   4.313  18.778  0.00  0.00    +0.000 OA
ENDBRANCH  14  21
BRANCH  18  22
ATOM     22  O   UNL     1       1.756   3.023  18.126  0.00  0.00    +0.000 OA
ATOM     23  C   UNL     1       0.947   2.919  19.300  0.00  0.00    +0.000 C 
ENDBRANCH  18  22
BRANCH  19  24
ATOM     24  O   UNL     1       4.389   2.241  18.797  0.00  0.00    +0.000 OA
ATOM     25  H   UNL     1       5.340   2.205  18.996  0.00  0.00    +0.000 HD
ENDBRANCH  19  24
ENDBRANCH   1  16
TORSDOF 7
ENDMDL
MODEL 4
REMARK VINA RESULT:      -6.5      1.069      2.879
REMARK  Name = 
REMARK  11 active torsions:
REMARK  status: ('A' for Active; 'I' for Inactive)
REMARK    1  A    between atoms: C_1  and  O_2
REMARK    2  A    between atoms: O_2  and  C_3
REMARK    3  A    between atoms: C_5  and  C_6
REMARK    4  A    between atoms: C_6  and  N_7
REMARK    5  A    between atoms: C_11  and  C_13
REMARK    6  A    between atoms: C_13  and  C_14
REMARK    7  A    between atoms: C_14  and  C_15
REMARK    8  A    between atoms: C_14  and  C_16
REMARK    9  A    between atoms: C_20  and  O_21
REMARK   10  A    between atoms: O_21  and  C_22
REMARK   11  A    between atoms: C_23  and  O_24
REMARK                            x       y       z     vdW  Elec       q    Type
REMARK                         _______ _______ _______ _____ _____    ______ ____
ROOT
ATOM      1  C   UNL     1       3.244   7.589  17.800  0.00  0.00    +0.000 C 
ENDROOT
BRANCH   1   2
ATOM      2  N   UNL     1       1.957   8.011  18.386  0.00  0.00    +0.000 NA
ATOM      3  C   UNL     1       1.530   9.314  17.826  0.00  0.00    +0.000 C 
ATOM      4  C   UNL     1       0.228   9.793  18.490  0.00  0.00    +0.000 C 
ATOM      5  N   UNL     1       0.451   9.950  19.925  0.00  0.00    +0.000 N 
ATOM      6  C   UNL     1       0.876  11.128  20.526  0.00  0.00    +0.000 C 
ATOM      7  O   UNL     1       1.076  11.212  21.735  0.00  0.00    +0.000 OA
ATOM      8  C   UNL     1       0.814   8.683  20.566  0.00  0.00    +0.000 C 
ATOM      9  C   UNL     1       2.071   8.091  19.872  0.00  0.00    +0.000 C 
BRANCH   6  10
ATOM     10  C   UNL     1       1.116  12.318  19.600  0.00  0.00    +0.000 C 
BRANCH  10  11
ATOM     11  C   UNL     1       0.216  13.529  19.878  0.00  0.00    +0.000 C 
ATOM     12  C   UNL     1       0.485  14.692  18.918  0.00  0.00    +0.000 C 
ATOM     13  C   UNL     1      -1.248  13.100  19.737  0.00  0.00    +0.000 C 
ENDBRANCH  10  11
ENDBRANCH   6  10
ENDBRANCH   1   2
BRANCH   1  16
ATOM     14  C   UNL     1       5.534   4.687  18.809  0.00  0.00    +0.000 A 
ATOM     15  C   UNL     1       5.075   5.920  18.326  0.00  0.00    +0.000 A 
ATOM     16  C   UNL     1       3.702   6.200  18.208  0.00  0.00    +0.000 A 
ATOM     17  C   UNL     1       2.786   5.203  18.572  0.00  0.00    +0.000 A 
ATOM     18  C   UNL     1       3.228   3.979  19.083  0.00  0.00    +0.000 A 
ATOM     19  C   UNL     1       4.603   3.721  19.202  0.00  0.00    +0.000 A 
BRANCH  14  21
ATOM     20  C   UNL     1       7.580   4.575  17.587  0.00  0.00    +0.000 C 
ATOM     21  O   UNL     1       6.903   4.585  18.838  0.00  0.00    +0.000 OA
ENDBRANCH  14  21
BRANCH  18  22
ATOM     22  O   UNL     1       2.261   3.048  19.365  0.00  0.00    +0.000 OA
ATOM     23  C   UNL     1       1.145   3.078  18.473  0.00  0.00    +0.000 C 
ENDBRANCH  18  22
BRANCH  19  24
ATOM     24  O   UNL     1       5.019   2.511  19.683  0.00  0.00    +0.000 OA
ATOM     25  H   UNL     1       5.875   2.330  19.259  0.00  0.00    +0.000 HD
ENDBRANCH  19  24
ENDBRANCH   1  16
TORSDOF 7
ENDMDL
MODEL 5
REMARK VINA RESULT:      -6.5      0.831      2.847
REMARK  Name = 
REMARK  11 active torsions:
REMARK  status: ('A' for Active; 'I' for Inactive)
REMARK    1  A    between atoms: C_1  and  O_2
REMARK    2  A    between atoms: O_2  and  C_3
REMARK    3  A    between atoms: C_5  and  C_6
REMARK    4  A    between atoms: C_6  and  N_7
REMARK    5  A    between atoms: C_11  and  C_13
REMARK    6  A    between atoms: C_13  and  C_14
REMARK    7  A    between atoms: C_14  and  C_15
REMARK    8  A    between atoms: C_14  and  C_16
REMARK    9  A    between atoms: C_20  and  O_21
REMARK   10  A    between atoms: O_21  and  C_22
REMARK   11  A    between atoms: C_23  and  O_24
REMARK                            x       y       z     vdW  Elec       q    Type
REMARK                         _______ _______ _______ _____ _____    ______ ____
ROOT
ATOM      1  C   UNL     1       3.199   7.729  17.876  0.00  0.00    +0.000 C 
ENDROOT
BRANCH   1   2
ATOM      2  N   UNL     1       1.895   8.134  18.435  0.00  0.00    +0.000 NA
ATOM      3  C   UNL     1       1.473   9.441  17.883  0.00  0.00    +0.000 C 
ATOM      4  C   UNL     1       0.151   9.902  18.520  0.00  0.00    +0.000 C 
ATOM      5  N   UNL     1       0.336  10.039  19.963  0.00  0.00    +0.000 N 
ATOM      6  C   UNL     1       0.737  11.211  20.592  0.00  0.00    +0.000 C 
ATOM      7  O   UNL     1       0.905  11.279  21.806  0.00  0.00    +0.000 OA
ATOM      8  C   UNL     1       0.691   8.766  20.594  0.00  0.00    +0.000 C 
ATOM      9  C   UNL     1       1.970   8.192  19.924  0.00  0.00    +0.000 C 
BRANCH   6  10
ATOM     10  C   UNL     1       0.992  12.416  19.690  0.00  0.00    +0.000 C 
BRANCH  10  11
ATOM     11  C   UNL     1      -0.102  13.491  19.744  0.00  0.00    +0.000 C 
ATOM     12  C   UNL     1      -1.483  12.907  20.055  0.00  0.00    +0.000 C 
ATOM     13  C   UNL     1       0.260  14.510  20.828  0.00  0.00    +0.000 C 
ENDBRANCH  10  11
ENDBRANCH   6  10
ENDBRANCH   1   2
BRANCH   1  16
ATOM     14  C   UNL     1       5.048   4.416  18.414  0.00  0.00    +0.000 A 
ATOM     15  C   UNL     1       4.775   5.779  18.237  0.00  0.00    +0.000 A 
ATOM     16  C   UNL     1       3.480   6.237  17.936  0.00  0.00    +0.000 A 
ATOM     17  C   UNL     1       2.454   5.291  17.796  0.00  0.00    +0.000 A 
ATOM     18  C   UNL     1       2.705   3.931  17.998  0.00  0.00    +0.000 A 
ATOM     19  C   UNL     1       4.003   3.493  18.307  0.00  0.00    +0.000 A 
BRANCH  14  21
ATOM     20  C   UNL     1       7.333   4.667  17.775  0.00  0.00    +0.000 C 
ATOM     21  O   UNL     1       6.368   4.151  18.684  0.00  0.00    +0.000 OA
ENDBRANCH  14  21
BRANCH  18  22
ATOM     22  O   UNL     1       1.652   3.077  17.791  0.00  0.00    +0.000 OA
ATOM     23  C   UNL     1       0.908   2.771  18.972  0.00  0.00    +0.000 C 
ENDBRANCH  18  22
BRANCH  19  24
ATOM     24  O   UNL     1       4.236   2.157  18.480  0.00  0.00    +0.000 OA
ATOM     25  H   UNL     1       4.427   2.035  19.425  0.00  0.00    +0.000 HD
ENDBRANCH  19  24
ENDBRANCH   1  16
TORSDOF 7
ENDMDL
MODEL 6
REMARK VINA RESULT:      -6.4      2.187      3.143
REMARK  Name = 
REMARK  11 active torsions:
REMARK  status: ('A' for Active; 'I' for Inactive)
REMARK    1  A    between atoms: C_1  and  O_2
REMARK    2  A    between atoms: O_2  and  C_3
REMARK    3  A    between atoms: C_5  and  C_6
REMARK    4  A    between atoms: C_6  and  N_7
REMARK    5  A    between atoms: C_11  and  C_13
REMARK    6  A    between atoms: C_13  and  C_14
REMARK    7  A    between atoms: C_14  and  C_15
REMARK    8  A    between atoms: C_14  and  C_16
REMARK    9  A    between atoms: C_20  and  O_21
REMARK   10  A    between atoms: O_21  and  C_22
REMARK   11  A    between atoms: C_23  and  O_24
REMARK                            x       y       z     vdW  Elec       q    Type
REMARK                         _______ _______ _______ _____ _____    ______ ____
ROOT
ATOM      1  C   UNL     1       2.014   8.278  17.751  0.00  0.00    +0.000 C 
ENDROOT
BRANCH   1   2
ATOM      2  N   UNL     1       1.890   9.433  18.661  0.00  0.00    +0.000 NA
ATOM      3  C   UNL     1       0.580   9.417  19.349  0.00  0.00    +0.000 C 
ATOM      4  C   UNL     1       0.417  10.660  20.241  0.00  0.00    +0.000 C 
ATOM      5  N   UNL     1       0.497  11.859  19.412  0.00  0.00    +0.000 N 
ATOM      6  C   UNL     1      -0.598  12.474  18.817  0.00  0.00    +0.000 C 
ATOM      7  O   UNL     1      -0.485  13.468  18.105  0.00  0.00    +0.000 OA
ATOM      8  C   UNL     1       1.797  11.981  18.747  0.00  0.00    +0.000 C 
ATOM      9  C   UNL     1       2.071  10.705  17.903  0.00  0.00    +0.000 C 
BRANCH   6  10
ATOM     10  C   UNL     1      -1.959  11.830  19.066  0.00  0.00    +0.000 C 
BRANCH  10  11
ATOM     11  C   UNL     1      -2.729  11.461  17.791  0.00  0.00    +0.000 C 
ATOM     12  C   UNL     1      -2.384  10.058  17.284  0.00  0.00    +0.000 C 
ATOM     13  C   UNL     1      -4.231  11.525  18.085  0.00  0.00    +0.000 C 
ENDBRANCH  10  11
ENDBRANCH   6  10
ENDBRANCH   1   2
BRANCH   1  16
ATOM     14  C   UNL     1       3.211   5.259  19.785  0.00  0.00    +0.000 A 
ATOM     15  C   UNL     1       2.478   6.374  19.355  0.00  0.00    +0.000 A 
ATOM     16  C   UNL     1       2.899   7.156  18.264  0.00  0.00    +0.000 A 
ATOM     17  C   UNL     1       4.092   6.806  17.615  0.00  0.00    +0.000 A 
ATOM     18  C   UNL     1       4.818   5.680  18.013  0.00  0.00    +0.000 A 
ATOM     19  C   UNL     1       4.378   4.906  19.099  0.00  0.00    +0.000 A 
BRANCH  14  21
ATOM     20  C   UNL     1       1.385   4.022  20.696  0.00  0.00    +0.000 C 
ATOM     21  O   UNL     1       2.661   4.627  20.872  0.00  0.00    +0.000 OA
ENDBRANCH  14  21
BRANCH  18  22
ATOM     22  O   UNL     1       5.997   5.446  17.352  0.00  0.00    +0.000 OA
ATOM     23  C   UNL     1       5.845   4.726  16.127  0.00  0.00    +0.000 C 
ENDBRANCH  18  22
BRANCH  19  24
ATOM     24  O   UNL     1       5.112   3.821  19.490  0.00  0.00    +0.000 OA
ATOM     25  H   UNL     1       4.534   3.300  20.073  0.00  0.00    +0.000 HD
ENDBRANCH  19  24
ENDBRANCH   1  16
TORSDOF 7
ENDMDL
MODEL 7
REMARK VINA RESULT:      -6.4      1.461      2.612
REMARK  Name = 
REMARK  11 active torsions:
REMARK  status: ('A' for Active; 'I' for Inactive)
REMARK    1  A    between atoms: C_1  and  O_2
REMARK    2  A    between atoms: O_2  and  C_3
REMARK    3  A    between atoms: C_5  and  C_6
REMARK    4  A    between atoms: C_6  and  N_7
REMARK    5  A    between atoms: C_11  and  C_13
REMARK    6  A    between atoms: C_13  and  C_14
REMARK    7  A    between atoms: C_14  and  C_15
REMARK    8  A    between atoms: C_14  and  C_16
REMARK    9  A    between atoms: C_20  and  O_21
REMARK   10  A    between atoms: O_21  and  C_22
REMARK   11  A    between atoms: C_23  and  O_24
REMARK                            x       y       z     vdW  Elec       q    Type
REMARK                         _______ _______ _______ _____ _____    ______ ____
ROOT
ATOM      1  C   UNL     1       2.954   7.206  19.082  0.00  0.00    +0.000 C 
ENDROOT
BRANCH   1   2
ATOM      2  N   UNL     1       1.707   7.987  19.184  0.00  0.00    +0.000 NA
ATOM      3  C   UNL     1       1.757   9.169  18.294  0.00  0.00    +0.000 C 
ATOM      4  C   UNL     1       0.490  10.027  18.454  0.00  0.00    +0.000 C 
ATOM      5  N   UNL     1       0.393  10.485  19.838  0.00  0.00    +0.000 N 
ATOM      6  C   UNL     1       0.933  11.675  20.308  0.00  0.00    +0.000 C 
ATOM      7  O   UNL     1       0.851  12.013  21.485  0.00  0.00    +0.000 OA
ATOM      8  C   UNL     1       0.271   9.368  20.778  0.00  0.00    +0.000 C 
ATOM      9  C   UNL     1       1.476   8.403  20.598  0.00  0.00    +0.000 C 
BRANCH   6  10
ATOM     10  C   UNL     1       1.670  12.539  19.287  0.00  0.00    +0.000 C 
BRANCH  10  11
ATOM     11  C   UNL     1       1.278  14.022  19.310  0.00  0.00    +0.000 C 
ATOM     12  C   UNL     1       2.233  14.893  18.488  0.00  0.00    +0.000 C 
ATOM     13  C   UNL     1      -0.137  14.167  18.743  0.00  0.00    +0.000 C 
ENDBRANCH  10  11
ENDBRANCH   6  10
ENDBRANCH   1   2
BRANCH   1  16
ATOM     14  C   UNL     1       3.438   3.726  17.550  0.00  0.00    +0.000 A 
ATOM     15  C   UNL     1       3.508   5.108  17.774  0.00  0.00    +0.000 A 
ATOM     16  C   UNL     1       2.757   5.728  18.788  0.00  0.00    +0.000 A 
ATOM     17  C   UNL     1       1.910   4.931  19.573  0.00  0.00    +0.000 A 
ATOM     18  C   UNL     1       1.852   3.548  19.380  0.00  0.00    +0.000 A 
ATOM     19  C   UNL     1       2.616   2.945  18.368  0.00  0.00    +0.000 A 
BRANCH  14  21
ATOM     20  C   UNL     1       5.411   4.038  16.246  0.00  0.00    +0.000 C 
ATOM     21  O   UNL     1       4.224   3.299  16.509  0.00  0.00    +0.000 OA
ENDBRANCH  14  21
BRANCH  18  22
ATOM     22  O   UNL     1       0.959   2.859  20.161  0.00  0.00    +0.000 OA
ATOM     23  C   UNL     1       1.381   2.683  21.514  0.00  0.00    +0.000 C 
ENDBRANCH  18  22
BRANCH  19  24
ATOM     24  O   UNL     1       2.530   1.594  18.179  0.00  0.00    +0.000 OA
ATOM     25  H   UNL     1       3.444   1.263  18.174  0.00  0.00    +0.000 HD
ENDBRANCH  19  24
ENDBRANCH   1  16
TORSDOF 7
ENDMDL
MODEL 8
REMARK VINA RESULT:      -6.3      2.161      3.848
REMARK  Name = 
REMARK  11 active torsions:
REMARK  status: ('A' for Active; 'I' for Inactive)
REMARK    1  A    between atoms: C_1  and  O_2
REMARK    2  A    between atoms: O_2  and  C_3
REMARK    3  A    between atoms: C_5  and  C_6
REMARK    4  A    between atoms: C_6  and  N_7
REMARK    5  A    between atoms: C_11  and  C_13
REMARK    6  A    between atoms: C_13  and  C_14
REMARK    7  A    between atoms: C_14  and  C_15
REMARK    8  A    between atoms: C_14  and  C_16
REMARK    9  A    between atoms: C_20  and  O_21
REMARK   10  A    between atoms: O_21  and  C_22
REMARK   11  A    between atoms: C_23  and  O_24
REMARK                            x       y       z     vdW  Elec       q    Type
REMARK                         _______ _______ _______ _____ _____    ______ ____
ROOT
ATOM      1  C   UNL     1       2.090   8.499  17.598  0.00  0.00    +0.000 C 
ENDROOT
BRANCH   1   2
ATOM      2  N   UNL     1       1.925   9.556  18.614  0.00  0.00    +0.000 NA
ATOM      3  C   UNL     1       0.601   9.449  19.268  0.00  0.00    +0.000 C 
ATOM      4  C   UNL     1       0.395  10.595  20.274  0.00  0.00    +0.000 C 
ATOM      5  N   UNL     1       0.468  11.872  19.567  0.00  0.00    +0.000 N 
ATOM      6  C   UNL     1      -0.627  12.522  19.012  0.00  0.00    +0.000 C 
ATOM      7  O   UNL     1      -0.520  13.583  18.403  0.00  0.00    +0.000 OA
ATOM      8  C   UNL     1       1.778  12.081  18.946  0.00  0.00    +0.000 C 
ATOM      9  C   UNL     1       2.095  10.900  17.988  0.00  0.00    +0.000 C 
BRANCH   6  10
ATOM     10  C   UNL     1      -1.980  11.832  19.167  0.00  0.00    +0.000 C 
BRANCH  10  11
ATOM     11  C   UNL     1      -2.678  11.500  17.842  0.00  0.00    +0.000 C 
ATOM     12  C   UNL     1      -2.315  10.107  17.320  0.00  0.00    +0.000 C 
ATOM     13  C   UNL     1      -4.194  11.570  18.051  0.00  0.00    +0.000 C 
ENDBRANCH  10  11
ENDBRANCH   6  10
ENDBRANCH   1   2
BRANCH   1  16
ATOM     14  C   UNL     1       5.020   6.047  17.900  0.00  0.00    +0.000 A 
ATOM     15  C   UNL     1       4.169   7.061  17.438  0.00  0.00    +0.000 A 
ATOM     16  C   UNL     1       2.927   7.312  18.046  0.00  0.00    +0.000 A 
ATOM     17  C   UNL     1       2.539   6.508  19.127  0.00  0.00    +0.000 A 
ATOM     18  C   UNL     1       3.389   5.513  19.617  0.00  0.00    +0.000 A 
ATOM     19  C   UNL     1       4.631   5.281  19.003  0.00  0.00    +0.000 A 
BRANCH  14  21
ATOM     20  C   UNL     1       7.237   6.831  17.497  0.00  0.00    +0.000 C 
ATOM     21  O   UNL     1       6.181   5.933  17.176  0.00  0.00    +0.000 OA
ENDBRANCH  14  21
BRANCH  18  22
ATOM     22  O   UNL     1       2.904   4.745  20.645  0.00  0.00    +0.000 OA
ATOM     23  C   UNL     1       1.514   4.432  20.534  0.00  0.00    +0.000 C 
ENDBRANCH  18  22
BRANCH  19  24
ATOM     24  O   UNL     1       5.441   4.289  19.481  0.00  0.00    +0.000 OA
ATOM     25  H   UNL     1       6.073   4.721  20.080  0.00  0.00    +0.000 HD
ENDBRANCH  19  24
ENDBRANCH   1  16
TORSDOF 7
ENDMDL
MODEL 9
REMARK VINA RESULT:      -6.2      2.216      8.135
REMARK  Name = 
REMARK  11 active torsions:
REMARK  status: ('A' for Active; 'I' for Inactive)
REMARK    1  A    between atoms: C_1  and  O_2
REMARK    2  A    between atoms: O_2  and  C_3
REMARK    3  A    between atoms: C_5  and  C_6
REMARK    4  A    between atoms: C_6  and  N_7
REMARK    5  A    between atoms: C_11  and  C_13
REMARK    6  A    between atoms: C_13  and  C_14
REMARK    7  A    between atoms: C_14  and  C_15
REMARK    8  A    between atoms: C_14  and  C_16
REMARK    9  A    between atoms: C_20  and  O_21
REMARK   10  A    between atoms: O_21  and  C_22
REMARK   11  A    between atoms: C_23  and  O_24
REMARK                            x       y       z     vdW  Elec       q    Type
REMARK                         _______ _______ _______ _____ _____    ______ ____
ROOT
ATOM      1  C   UNL     1       1.645   8.124  18.348  0.00  0.00    +0.000 C 
ENDROOT
BRANCH   1   2
ATOM      2  N   UNL     1       2.851   7.337  18.670  0.00  0.00    +0.000 NA
ATOM      3  C   UNL     1       3.771   7.293  17.511  0.00  0.00    +0.000 C 
ATOM      4  C   UNL     1       4.993   6.410  17.817  0.00  0.00    +0.000 C 
ATOM      5  N   UNL     1       4.542   5.053  18.111  0.00  0.00    +0.000 N 
ATOM      6  C   UNL     1       4.397   4.053  17.157  0.00  0.00    +0.000 C 
ATOM      7  O   UNL     1       3.991   2.930  17.441  0.00  0.00    +0.000 OA
ATOM      8  C   UNL     1       3.677   5.005  19.292  0.00  0.00    +0.000 C 
ATOM      9  C   UNL     1       2.467   5.957  19.088  0.00  0.00    +0.000 C 
BRANCH   6  10
ATOM     10  C   UNL     1       4.738   4.430  15.717  0.00  0.00    +0.000 C 
BRANCH  10  11
ATOM     11  C   UNL     1       6.047   3.823  15.196  0.00  0.00    +0.000 C 
ATOM     12  C   UNL     1       6.159   3.891  13.671  0.00  0.00    +0.000 C 
ATOM     13  C   UNL     1       7.225   4.585  15.813  0.00  0.00    +0.000 C 
ENDBRANCH  10  11
ENDBRANCH   6  10
ENDBRANCH   1   2
BRANCH   1  16
ATOM     14  C   UNL     1       1.009  11.739  19.449  0.00  0.00    +0.000 A 
ATOM     15  C   UNL     1       1.332  10.616  18.674  0.00  0.00    +0.000 A 
ATOM     16  C   UNL     1       1.417   9.332  19.240  0.00  0.00    +0.000 A 
ATOM     17  C   UNL     1       1.188   9.194  20.617  0.00  0.00    +0.000 A 
ATOM     18  C   UNL     1       0.836  10.299  21.396  0.00  0.00    +0.000 A 
ATOM     19  C   UNL     1       0.747  11.573  20.812  0.00  0.00    +0.000 A 
BRANCH  14  21
ATOM     20  C   UNL     1       2.245  13.462  18.355  0.00  0.00    +0.000 C 
ATOM     21  O   UNL     1       0.989  12.911  18.734  0.00  0.00    +0.000 OA
ENDBRANCH  14  21
BRANCH  18  22
ATOM     22  O   UNL     1       0.680  10.076  22.741  0.00  0.00    +0.000 OA
ATOM     23  C   UNL     1      -0.677   9.880  23.146  0.00  0.00    +0.000 C 
ENDBRANCH  18  22
BRANCH  19  24
ATOM     24  O   UNL     1       0.424  12.648  21.593  0.00  0.00    +0.000 OA
ATOM     25  H   UNL     1      -0.146  13.216  21.049  0.00  0.00    +0.000 HD
ENDBRANCH  19  24
ENDBRANCH   1  16
TORSDOF 7
ENDMDL
