MODEL 1
REMARK VINA RESULT:      -6.9      0.000      0.000
REMARK  Name = 
REMARK  11 active torsions:
REMARK  status: ('A' for Active; 'I' for Inactive)
REMARK    1  A    between atoms: C_1  and  C_2
REMARK    2  A    between atoms: C_2  and  S_3
REMARK    3  A    between atoms: S_3  and  C_4
REMARK    4  A    between atoms: C_5  and  C_6
REMARK    5  A    between atoms: C_6  and  C_7
REMARK    6  A    between atoms: C_12  and  C_13
REMARK    7  A    between atoms: N_22  and  C_23
REMARK    8  A    between atoms: N_26  and  C_27
REMARK    9  A    between atoms: C_27  and  C_28
REMARK   10  A    between atoms: C_28  and  C_29
REMARK   11  A    between atoms: C_28  and  C_30
REMARK                            x       y       z     vdW  Elec       q    Type
REMARK                         _______ _______ _______ _____ _____    ______ ____
ROOT
ATOM      1  C   UNL     1      -2.206  11.364  18.314  0.00  0.00    +0.000 A 
ATOM      2  C   UNL     1      -1.108  11.971  18.919  0.00  0.00    +0.000 A 
ATOM      3  S   UNL     1      -1.619  13.108  20.089  0.00  0.00    +0.000 S 
ATOM      4  C   UNL     1      -3.222  12.620  19.972  0.00  0.00    +0.000 A 
ATOM      5  C   UNL     1      -3.452  11.736  18.951  0.00  0.00    +0.000 A 
ATOM      6  C   UNL     1      -4.815  11.280  18.741  0.00  0.00    +0.000 A 
ATOM      7  O   UNL     1      -5.107  10.423  17.912  0.00  0.00    +0.000 OA
ATOM      8  N   UNL     1      -5.762  11.880  19.578  0.00  0.00    +0.000 N 
ATOM      9  C   UNL     1      -7.149  11.475  19.437  0.00  0.00    +0.000 C 
ATOM     10  C   UNL     1      -5.493  12.737  20.654  0.00  0.00    +0.000 A 
ATOM     11  O   UNL     1      -6.396  13.127  21.400  0.00  0.00    +0.000 OA
ATOM     12  N   UNL     1      -4.161  13.095  20.874  0.00  0.00    +0.000 N 
ENDROOT
BRANCH   1  13
ATOM     13  S   UNL     1      -2.047  10.155  17.030  0.00  0.00    +0.000 S 
BRANCH  13  15
ATOM     14  C   UNL     1      -3.064   9.996  14.485  0.00  0.00    +0.000 C 
ATOM     15  C   UNL     1      -2.803  10.995  15.603  0.00  0.00    +0.000 C 
ENDBRANCH  13  15
ENDBRANCH   1  13
BRANCH   2  16
ATOM     16  C   UNL     1       0.377  11.808  18.708  0.00  0.00    +0.000 C 
BRANCH  16  17
ATOM     17  C   UNL     1       0.889  10.401  19.007  0.00  0.00    +0.000 A 
ATOM     18  C   UNL     1       1.417   9.675  17.917  0.00  0.00    +0.000 A 
ATOM     19  C   UNL     1       1.950   8.395  18.075  0.00  0.00    +0.000 A 
ATOM     20  C   UNL     1       1.954   7.798  19.327  0.00  0.00    +0.000 A 
ATOM     21  C   UNL     1       1.413   8.479  20.412  0.00  0.00    +0.000 A 
ATOM     22  C   UNL     1       0.875   9.782  20.282  0.00  0.00    +0.000 A 
BRANCH  22  23
ATOM     23  C   UNL     1       0.329  10.380  21.564  0.00  0.00    +0.000 C 
ATOM     24  F   UNL     1      -1.022  10.415  21.681  0.00  0.00    +0.000 F 
ATOM     25  F   UNL     1       0.782   9.720  22.670  0.00  0.00    +0.000 F 
ATOM     26  F   UNL     1       0.728  11.675  21.732  0.00  0.00    +0.000 F 
ENDBRANCH  22  23
ENDBRANCH  16  17
ENDBRANCH   2  16
BRANCH  12  27
ATOM     27  C   UNL     1      -3.822  13.755  22.146  0.00  0.00    +0.000 C 
BRANCH  27  28
ATOM     28  C   UNL     1      -3.161  12.863  23.212  0.00  0.00    +0.000 C 
ATOM     29  C   UNL     1      -1.871  13.471  23.757  0.00  0.00    +0.000 C 
ATOM     30  C   UNL     1      -4.153  12.642  24.359  0.00  0.00    +0.000 C 
ENDBRANCH  27  28
ENDBRANCH  12  27
TORSDOF 7
ENDMDL
MODEL 2
REMARK VINA RESULT:      -6.8      1.768      2.284
REMARK  Name = 
REMARK  11 active torsions:
REMARK  status: ('A' for Active; 'I' for Inactive)
REMARK    1  A    between atoms: C_1  and  C_2
REMARK    2  A    between atoms: C_2  and  S_3
REMARK    3  A    between atoms: S_3  and  C_4
REMARK    4  A    between atoms: C_5  and  C_6
REMARK    5  A    between atoms: C_6  and  C_7
REMARK    6  A    between atoms: C_12  and  C_13
REMARK    7  A    between atoms: N_22  and  C_23
REMARK    8  A    between atoms: N_26  and  C_27
REMARK    9  A    between atoms: C_27  and  C_28
REMARK   10  A    between atoms: C_28  and  C_29
REMARK   11  A    between atoms: C_28  and  C_30
REMARK                            x       y       z     vdW  Elec       q    Type
REMARK                         _______ _______ _______ _____ _____    ______ ____
ROOT
ATOM      1  C   UNL     1      -2.773  11.473  18.635  0.00  0.00    +0.000 A 
ATOM      2  C   UNL     1      -1.572  11.956  19.148  0.00  0.00    +0.000 A 
ATOM      3  S   UNL     1      -1.857  13.259  20.218  0.00  0.00    +0.000 S 
ATOM      4  C   UNL     1      -3.518  13.014  20.194  0.00  0.00    +0.000 A 
ATOM      5  C   UNL     1      -3.921  12.086  19.270  0.00  0.00    +0.000 A 
ATOM      6  C   UNL     1      -5.345  11.827  19.143  0.00  0.00    +0.000 A 
ATOM      7  O   UNL     1      -5.796  10.953  18.409  0.00  0.00    +0.000 OA
ATOM      8  N   UNL     1      -6.154  12.638  19.945  0.00  0.00    +0.000 N 
ATOM      9  C   UNL     1      -7.591  12.439  19.883  0.00  0.00    +0.000 C 
ATOM     10  C   UNL     1      -5.715  13.538  20.925  0.00  0.00    +0.000 A 
ATOM     11  O   UNL     1      -6.517  14.127  21.656  0.00  0.00    +0.000 OA
ATOM     12  N   UNL     1      -4.336  13.707  21.072  0.00  0.00    +0.000 N 
ENDROOT
BRANCH   1  13
ATOM     13  S   UNL     1      -2.851  10.142  17.469  0.00  0.00    +0.000 S 
BRANCH  13  15
ATOM     14  C   UNL     1      -2.960  10.120  14.727  0.00  0.00    +0.000 C 
ATOM     15  C   UNL     1      -3.290  10.998  15.925  0.00  0.00    +0.000 C 
ENDBRANCH  13  15
ENDBRANCH   1  13
BRANCH   2  16
ATOM     16  C   UNL     1      -0.138  11.550  18.912  0.00  0.00    +0.000 C 
BRANCH  16  17
ATOM     17  C   UNL     1       0.347  10.441  19.843  0.00  0.00    +0.000 A 
ATOM     18  C   UNL     1      -0.030  10.544  21.200  0.00  0.00    +0.000 A 
ATOM     19  C   UNL     1       0.321   9.570  22.136  0.00  0.00    +0.000 A 
ATOM     20  C   UNL     1       1.074   8.474  21.744  0.00  0.00    +0.000 A 
ATOM     21  C   UNL     1       1.484   8.363  20.419  0.00  0.00    +0.000 A 
ATOM     22  C   UNL     1       1.134   9.330  19.446  0.00  0.00    +0.000 A 
BRANCH  22  23
ATOM     23  C   UNL     1       1.661   9.055  18.051  0.00  0.00    +0.000 C 
ATOM     24  F   UNL     1       0.735   8.726  17.116  0.00  0.00    +0.000 F 
ATOM     25  F   UNL     1       2.342  10.123  17.542  0.00  0.00    +0.000 F 
ATOM     26  F   UNL     1       2.553   8.021  18.039  0.00  0.00    +0.000 F 
ENDBRANCH  22  23
ENDBRANCH  16  17
ENDBRANCH   2  16
BRANCH  12  27
ATOM     27  C   UNL     1      -3.849  14.420  22.264  0.00  0.00    +0.000 C 
BRANCH  27  28
ATOM     28  C   UNL     1      -3.200  13.546  23.353  0.00  0.00    +0.000 C 
ATOM     29  C   UNL     1      -2.100  14.285  24.111  0.00  0.00    +0.000 C 
ATOM     30  C   UNL     1      -4.286  13.088  24.335  0.00  0.00    +0.000 C 
ENDBRANCH  27  28
ENDBRANCH  12  27
TORSDOF 7
ENDMDL
MODEL 3
REMARK VINA RESULT:      -6.6      1.877      2.562
REMARK  Name = 
REMARK  11 active torsions:
REMARK  status: ('A' for Active; 'I' for Inactive)
REMARK    1  A    between atoms: C_1  and  C_2
REMARK    2  A    between atoms: C_2  and  S_3
REMARK    3  A    between atoms: S_3  and  C_4
REMARK    4  A    between atoms: C_5  and  C_6
REMARK    5  A    between atoms: C_6  and  C_7
REMARK    6  A    between atoms: C_12  and  C_13
REMARK    7  A    between atoms: N_22  and  C_23
REMARK    8  A    between atoms: N_26  and  C_27
REMARK    9  A    between atoms: C_27  and  C_28
REMARK   10  A    between atoms: C_28  and  C_29
REMARK   11  A    between atoms: C_28  and  C_30
REMARK                            x       y       z     vdW  Elec       q    Type
REMARK                         _______ _______ _______ _____ _____    ______ ____
ROOT
ATOM      1  C   UNL     1      -2.582  11.483  18.601  0.00  0.00    +0.000 A 
ATOM      2  C   UNL     1      -1.474  12.018  19.254  0.00  0.00    +0.000 A 
ATOM      3  S   UNL     1      -1.950  13.267  20.320  0.00  0.00    +0.000 S 
ATOM      4  C   UNL     1      -3.582  12.928  20.109  0.00  0.00    +0.000 A 
ATOM      5  C   UNL     1      -3.826  12.009  19.122  0.00  0.00    +0.000 A 
ATOM      6  C   UNL     1      -5.210  11.673  18.835  0.00  0.00    +0.000 A 
ATOM      7  O   UNL     1      -5.526  10.800  18.033  0.00  0.00    +0.000 OA
ATOM      8  N   UNL     1      -6.148  12.410  19.565  0.00  0.00    +0.000 N 
ATOM      9  C   UNL     1      -7.556  12.131  19.342  0.00  0.00    +0.000 C 
ATOM     10  C   UNL     1      -5.871  13.300  20.611  0.00  0.00    +0.000 A 
ATOM     11  O   UNL     1      -6.782  13.819  21.265  0.00  0.00    +0.000 OA
ATOM     12  N   UNL     1      -4.529  13.543  20.911  0.00  0.00    +0.000 N 
ENDROOT
BRANCH   1  13
ATOM     13  S   UNL     1      -2.455  10.189  17.398  0.00  0.00    +0.000 S 
BRANCH  13  15
ATOM     14  C   UNL     1      -3.054  10.078  14.722  0.00  0.00    +0.000 C 
ATOM     15  C   UNL     1      -2.761  11.072  15.837  0.00  0.00    +0.000 C 
ENDBRANCH  13  15
ENDBRANCH   1  13
BRANCH   2  16
ATOM     16  C   UNL     1      -0.001  11.702  19.164  0.00  0.00    +0.000 C 
BRANCH  16  17
ATOM     17  C   UNL     1       0.424  10.509  20.017  0.00  0.00    +0.000 A 
ATOM     18  C   UNL     1       0.069  10.549  21.383  0.00  0.00    +0.000 A 
ATOM     19  C   UNL     1       0.369   9.499  22.251  0.00  0.00    +0.000 A 
ATOM     20  C   UNL     1       1.047   8.385  21.781  0.00  0.00    +0.000 A 
ATOM     21  C   UNL     1       1.435   8.333  20.446  0.00  0.00    +0.000 A 
ATOM     22  C   UNL     1       1.135   9.379  19.540  0.00  0.00    +0.000 A 
BRANCH  22  23
ATOM     23  C   UNL     1       1.628   9.160  18.123  0.00  0.00    +0.000 C 
ATOM     24  F   UNL     1       2.362  10.166  17.583  0.00  0.00    +0.000 F 
ATOM     25  F   UNL     1       2.398   8.038  18.017  0.00  0.00    +0.000 F 
ATOM     26  F   UNL     1       0.596   8.972  17.249  0.00  0.00    +0.000 F 
ENDBRANCH  22  23
ENDBRANCH  16  17
ENDBRANCH   2  16
BRANCH  12  27
ATOM     27  C   UNL     1      -4.216  14.244  22.168  0.00  0.00    +0.000 C 
BRANCH  27  28
ATOM     28  C   UNL     1      -3.956  15.756  22.048  0.00  0.00    +0.000 C 
ATOM     29  C   UNL     1      -5.126  16.589  22.566  0.00  0.00    +0.000 C 
ATOM     30  C   UNL     1      -2.686  16.106  22.833  0.00  0.00    +0.000 C 
ENDBRANCH  27  28
ENDBRANCH  12  27
TORSDOF 7
ENDMDL
MODEL 4
REMARK VINA RESULT:      -6.6      2.545      5.906
REMARK  Name = 
REMARK  11 active torsions:
REMARK  status: ('A' for Active; 'I' for Inactive)
REMARK    1  A    between atoms: C_1  and  C_2
REMARK    2  A    between atoms: C_2  and  S_3
REMARK    3  A    between atoms: S_3  and  C_4
REMARK    4  A    between atoms: C_5  and  C_6
REMARK    5  A    between atoms: C_6  and  C_7
REMARK    6  A    between atoms: C_12  and  C_13
REMARK    7  A    between atoms: N_22  and  C_23
REMARK    8  A    between atoms: N_26  and  C_27
REMARK    9  A    between atoms: C_27  and  C_28
REMARK   10  A    between atoms: C_28  and  C_29
REMARK   11  A    between atoms: C_28  and  C_30
REMARK                            x       y       z     vdW  Elec       q    Type
REMARK                         _______ _______ _______ _____ _____    ______ ____
ROOT
ATOM      1  C   UNL     1      -0.930  11.653  20.497  0.00  0.00    +0.000 A 
ATOM      2  C   UNL     1      -1.566  12.408  21.480  0.00  0.00    +0.000 A 
ATOM      3  S   UNL     1      -3.041  13.040  20.890  0.00  0.00    +0.000 S 
ATOM      4  C   UNL     1      -2.954  12.133  19.480  0.00  0.00    +0.000 A 
ATOM      5  C   UNL     1      -1.761  11.476  19.325  0.00  0.00    +0.000 A 
ATOM      6  C   UNL     1      -1.570  10.691  18.118  0.00  0.00    +0.000 A 
ATOM      7  O   UNL     1      -0.574   9.998  17.929  0.00  0.00    +0.000 OA
ATOM      8  N   UNL     1      -2.624  10.771  17.202  0.00  0.00    +0.000 N 
ATOM      9  C   UNL     1      -2.515  10.009  15.971  0.00  0.00    +0.000 C 
ATOM     10  C   UNL     1      -3.858  11.400  17.412  0.00  0.00    +0.000 A 
ATOM     11  O   UNL     1      -4.766  11.319  16.577  0.00  0.00    +0.000 OA
ATOM     12  N   UNL     1      -4.036  12.084  18.616  0.00  0.00    +0.000 N 
ENDROOT
BRANCH   1  13
ATOM     13  S   UNL     1       0.640  10.874  20.753  0.00  0.00    +0.000 S 
BRANCH  13  15
ATOM     14  C   UNL     1       0.038   9.376  22.973  0.00  0.00    +0.000 C 
ATOM     15  C   UNL     1       0.169   9.265  21.460  0.00  0.00    +0.000 C 
ENDBRANCH  13  15
ENDBRANCH   1  13
BRANCH   2  16
ATOM     16  C   UNL     1      -1.176  12.753  22.896  0.00  0.00    +0.000 C 
BRANCH  16  17
ATOM     17  C   UNL     1      -1.921  13.961  23.461  0.00  0.00    +0.000 A 
ATOM     18  C   UNL     1      -1.294  15.217  23.311  0.00  0.00    +0.000 A 
ATOM     19  C   UNL     1      -1.896  16.396  23.752  0.00  0.00    +0.000 A 
ATOM     20  C   UNL     1      -3.136  16.349  24.370  0.00  0.00    +0.000 A 
ATOM     21  C   UNL     1      -3.763  15.121  24.558  0.00  0.00    +0.000 A 
ATOM     22  C   UNL     1      -3.180  13.911  24.111  0.00  0.00    +0.000 A 
BRANCH  22  23
ATOM     23  C   UNL     1      -3.996  12.665  24.393  0.00  0.00    +0.000 C 
ATOM     24  F   UNL     1      -4.350  12.460  25.687  0.00  0.00    +0.000 F 
ATOM     25  F   UNL     1      -5.161  12.644  23.681  0.00  0.00    +0.000 F 
ATOM     26  F   UNL     1      -3.333  11.528  24.029  0.00  0.00    +0.000 F 
ENDBRANCH  22  23
ENDBRANCH  16  17
ENDBRANCH   2  16
BRANCH  12  27
ATOM     27  C   UNL     1      -5.399  12.508  18.978  0.00  0.00    +0.000 C 
BRANCH  27  28
ATOM     28  C   UNL     1      -6.167  11.570  19.926  0.00  0.00    +0.000 C 
ATOM     29  C   UNL     1      -7.077  12.333  20.886  0.00  0.00    +0.000 C 
ATOM     30  C   UNL     1      -7.001  10.592  19.090  0.00  0.00    +0.000 C 
ENDBRANCH  27  28
ENDBRANCH  12  27
TORSDOF 7
ENDMDL
MODEL 5
REMARK VINA RESULT:      -6.5      4.529      6.743
REMARK  Name = 
REMARK  11 active torsions:
REMARK  status: ('A' for Active; 'I' for Inactive)
REMARK    1  A    between atoms: C_1  and  C_2
REMARK    2  A    between atoms: C_2  and  S_3
REMARK    3  A    between atoms: S_3  and  C_4
REMARK    4  A    between atoms: C_5  and  C_6
REMARK    5  A    between atoms: C_6  and  C_7
REMARK    6  A    between atoms: C_12  and  C_13
REMARK    7  A    between atoms: N_22  and  C_23
REMARK    8  A    between atoms: N_26  and  C_27
REMARK    9  A    between atoms: C_27  and  C_28
REMARK   10  A    between atoms: C_28  and  C_29
REMARK   11  A    between atoms: C_28  and  C_30
REMARK                            x       y       z     vdW  Elec       q    Type
REMARK                         _______ _______ _______ _____ _____    ______ ____
ROOT
ATOM      1  C   UNL     1       1.963   7.670  19.851  0.00  0.00    +0.000 A 
ATOM      2  C   UNL     1       2.400   7.917  18.552  0.00  0.00    +0.000 A 
ATOM      3  S   UNL     1       1.605   9.284  17.902  0.00  0.00    +0.000 S 
ATOM      4  C   UNL     1       0.908   9.676  19.379  0.00  0.00    +0.000 A 
ATOM      5  C   UNL     1       1.097   8.721  20.343  0.00  0.00    +0.000 A 
ATOM      6  C   UNL     1       0.502   8.946  21.649  0.00  0.00    +0.000 A 
ATOM      7  O   UNL     1       0.689   8.195  22.600  0.00  0.00    +0.000 OA
ATOM      8  N   UNL     1      -0.281  10.103  21.736  0.00  0.00    +0.000 N 
ATOM      9  C   UNL     1      -0.907  10.406  23.010  0.00  0.00    +0.000 C 
ATOM     10  C   UNL     1      -0.409  11.093  20.753  0.00  0.00    +0.000 A 
ATOM     11  O   UNL     1      -1.040  12.132  20.973  0.00  0.00    +0.000 OA
ATOM     12  N   UNL     1       0.239  10.880  19.535  0.00  0.00    +0.000 N 
ENDROOT
BRANCH   1  13
ATOM     13  S   UNL     1       2.553   6.309  20.818  0.00  0.00    +0.000 S 
BRANCH  13  15
ATOM     14  C   UNL     1       1.650   3.731  21.092  0.00  0.00    +0.000 C 
ATOM     15  C   UNL     1       1.173   5.127  20.718  0.00  0.00    +0.000 C 
ENDBRANCH  13  15
ENDBRANCH   1  13
BRANCH   2  16
ATOM     16  C   UNL     1       3.392   7.203  17.668  0.00  0.00    +0.000 C 
BRANCH  16  17
ATOM     17  C   UNL     1       3.285   5.681  17.729  0.00  0.00    +0.000 A 
ATOM     18  C   UNL     1       2.016   5.125  17.455  0.00  0.00    +0.000 A 
ATOM     19  C   UNL     1       1.806   3.746  17.442  0.00  0.00    +0.000 A 
ATOM     20  C   UNL     1       2.855   2.884  17.719  0.00  0.00    +0.000 A 
ATOM     21  C   UNL     1       4.109   3.405  18.021  0.00  0.00    +0.000 A 
ATOM     22  C   UNL     1       4.353   4.800  18.032  0.00  0.00    +0.000 A 
BRANCH  22  23
ATOM     23  C   UNL     1       5.775   5.198  18.379  0.00  0.00    +0.000 C 
ATOM     24  F   UNL     1       6.280   6.262  17.704  0.00  0.00    +0.000 F 
ATOM     25  F   UNL     1       5.914   5.496  19.703  0.00  0.00    +0.000 F 
ATOM     26  F   UNL     1       6.659   4.185  18.143  0.00  0.00    +0.000 F 
ENDBRANCH  22  23
ENDBRANCH  16  17
ENDBRANCH   2  16
BRANCH  12  27
ATOM     27  C   UNL     1       0.354  12.013  18.602  0.00  0.00    +0.000 C 
BRANCH  27  28
ATOM     28  C   UNL     1       1.378  13.097  18.982  0.00  0.00    +0.000 C 
ATOM     29  C   UNL     1       2.646  13.018  18.136  0.00  0.00    +0.000 C 
ATOM     30  C   UNL     1       0.729  14.476  18.813  0.00  0.00    +0.000 C 
ENDBRANCH  27  28
ENDBRANCH  12  27
TORSDOF 7
ENDMDL
MODEL 6
REMARK VINA RESULT:      -6.4      6.273      9.765
REMARK  Name = 
REMARK  11 active torsions:
REMARK  status: ('A' for Active; 'I' for Inactive)
REMARK    1  A    between atoms: C_1  and  C_2
REMARK    2  A    between atoms: C_2  and  S_3
REMARK    3  A    between atoms: S_3  and  C_4
REMARK    4  A    between atoms: C_5  and  C_6
REMARK    5  A    between atoms: C_6  and  C_7
REMARK    6  A    between atoms: C_12  and  C_13
REMARK    7  A    between atoms: N_22  and  C_23
REMARK    8  A    between atoms: N_26  and  C_27
REMARK    9  A    between atoms: C_27  and  C_28
REMARK   10  A    between atoms: C_28  and  C_29
REMARK   11  A    between atoms: C_28  and  C_30
REMARK                            x       y       z     vdW  Elec       q    Type
REMARK                         _______ _______ _______ _____ _____    ______ ____
ROOT
ATOM      1  C   UNL     1       2.791   5.126  18.504  0.00  0.00    +0.000 A 
ATOM      2  C   UNL     1       2.814   6.313  19.232  0.00  0.00    +0.000 A 
ATOM      3  S   UNL     1       4.304   7.122  19.015  0.00  0.00    +0.000 S 
ATOM      4  C   UNL     1       4.789   6.065  17.803  0.00  0.00    +0.000 A 
ATOM      5  C   UNL     1       3.951   4.992  17.646  0.00  0.00    +0.000 A 
ATOM      6  C   UNL     1       4.300   3.997  16.647  0.00  0.00    +0.000 A 
ATOM      7  O   UNL     1       3.570   3.050  16.372  0.00  0.00    +0.000 OA
ATOM      8  N   UNL     1       5.525   4.222  16.010  0.00  0.00    +0.000 N 
ATOM      9  C   UNL     1       5.946   3.277  14.992  0.00  0.00    +0.000 C 
ATOM     10  C   UNL     1       6.334   5.359  16.145  0.00  0.00    +0.000 A 
ATOM     11  O   UNL     1       7.345   5.508  15.452  0.00  0.00    +0.000 OA
ATOM     12  N   UNL     1       5.928   6.332  17.061  0.00  0.00    +0.000 N 
ENDROOT
BRANCH   1  13
ATOM     13  S   UNL     1       1.411   4.017  18.520  0.00  0.00    +0.000 S 
BRANCH  13  15
ATOM     14  C   UNL     1       1.407   3.132  21.118  0.00  0.00    +0.000 C 
ATOM     15  C   UNL     1       1.927   2.765  19.736  0.00  0.00    +0.000 C 
ENDBRANCH  13  15
ENDBRANCH   1  13
BRANCH   2  16
ATOM     16  C   UNL     1       1.798   6.957  20.143  0.00  0.00    +0.000 C 
BRANCH  16  17
ATOM     17  C   UNL     1       1.394   8.365  19.715  0.00  0.00    +0.000 A 
ATOM     18  C   UNL     1       1.748   8.754  18.404  0.00  0.00    +0.000 A 
ATOM     19  C   UNL     1       1.398  10.003  17.888  0.00  0.00    +0.000 A 
ATOM     20  C   UNL     1       0.697  10.904  18.675  0.00  0.00    +0.000 A 
ATOM     21  C   UNL     1       0.361  10.558  19.980  0.00  0.00    +0.000 A 
ATOM     22  C   UNL     1       0.695   9.295  20.526  0.00  0.00    +0.000 A 
BRANCH  22  23
ATOM     23  C   UNL     1       0.252   9.080  21.960  0.00  0.00    +0.000 C 
ATOM     24  F   UNL     1       1.222   8.720  22.839  0.00  0.00    +0.000 F 
ATOM     25  F   UNL     1      -0.334  10.195  22.487  0.00  0.00    +0.000 F 
ATOM     26  F   UNL     1      -0.691   8.097  22.060  0.00  0.00    +0.000 F 
ENDBRANCH  22  23
ENDBRANCH  16  17
ENDBRANCH   2  16
BRANCH  12  27
ATOM     27  C   UNL     1       6.596   7.644  17.020  0.00  0.00    +0.000 C 
BRANCH  27  28
ATOM     28  C   UNL     1       7.992   7.708  17.666  0.00  0.00    +0.000 C 
ATOM     29  C   UNL     1       8.330   9.106  18.178  0.00  0.00    +0.000 C 
ATOM     30  C   UNL     1       8.051   6.705  18.824  0.00  0.00    +0.000 C 
ENDBRANCH  27  28
ENDBRANCH  12  27
TORSDOF 7
ENDMDL
MODEL 7
REMARK VINA RESULT:      -6.3      3.019      5.967
REMARK  Name = 
REMARK  11 active torsions:
REMARK  status: ('A' for Active; 'I' for Inactive)
REMARK    1  A    between atoms: C_1  and  C_2
REMARK    2  A    between atoms: C_2  and  S_3
REMARK    3  A    between atoms: S_3  and  C_4
REMARK    4  A    between atoms: C_5  and  C_6
REMARK    5  A    between atoms: C_6  and  C_7
REMARK    6  A    between atoms: C_12  and  C_13
REMARK    7  A    between atoms: N_22  and  C_23
REMARK    8  A    between atoms: N_26  and  C_27
REMARK    9  A    between atoms: C_27  and  C_28
REMARK   10  A    between atoms: C_28  and  C_29
REMARK   11  A    between atoms: C_28  and  C_30
REMARK                            x       y       z     vdW  Elec       q    Type
REMARK                         _______ _______ _______ _____ _____    ______ ____
ROOT
ATOM      1  C   UNL     1      -1.162  11.941  20.763  0.00  0.00    +0.000 A 
ATOM      2  C   UNL     1      -1.889  12.647  21.718  0.00  0.00    +0.000 A 
ATOM      3  S   UNL     1      -3.385  13.165  21.072  0.00  0.00    +0.000 S 
ATOM      4  C   UNL     1      -3.177  12.264  19.670  0.00  0.00    +0.000 A 
ATOM      5  C   UNL     1      -1.933  11.700  19.562  0.00  0.00    +0.000 A 
ATOM      6  C   UNL     1      -1.638  10.930  18.366  0.00  0.00    +0.000 A 
ATOM      7  O   UNL     1      -0.587  10.314  18.217  0.00  0.00    +0.000 OA
ATOM      8  N   UNL     1      -2.661  10.928  17.411  0.00  0.00    +0.000 N 
ATOM      9  C   UNL     1      -2.449  10.175  16.188  0.00  0.00    +0.000 C 
ATOM     10  C   UNL     1      -3.946  11.463  17.573  0.00  0.00    +0.000 A 
ATOM     11  O   UNL     1      -4.813  11.312  16.706  0.00  0.00    +0.000 OA
ATOM     12  N   UNL     1      -4.220  12.133  18.767  0.00  0.00    +0.000 N 
ENDROOT
BRANCH   1  13
ATOM     13  S   UNL     1       0.452  11.283  21.079  0.00  0.00    +0.000 S 
BRANCH  13  15
ATOM     14  C   UNL     1      -0.159   9.589  23.151  0.00  0.00    +0.000 C 
ATOM     15  C   UNL     1       0.083   9.594  21.648  0.00  0.00    +0.000 C 
ENDBRANCH  13  15
ENDBRANCH   1  13
BRANCH   2  16
ATOM     16  C   UNL     1      -1.579  13.023  23.147  0.00  0.00    +0.000 C 
BRANCH  16  17
ATOM     17  C   UNL     1      -1.258  14.503  23.337  0.00  0.00    +0.000 A 
ATOM     18  C   UNL     1      -0.103  14.988  22.687  0.00  0.00    +0.000 A 
ATOM     19  C   UNL     1       0.270  16.331  22.756  0.00  0.00    +0.000 A 
ATOM     20  C   UNL     1      -0.495  17.224  23.490  0.00  0.00    +0.000 A 
ATOM     21  C   UNL     1      -1.623  16.767  24.165  0.00  0.00    +0.000 A 
ATOM     22  C   UNL     1      -2.029  15.412  24.104  0.00  0.00    +0.000 A 
BRANCH  22  23
ATOM     23  C   UNL     1      -3.281  15.083  24.895  0.00  0.00    +0.000 C 
ATOM     24  F   UNL     1      -4.225  14.356  24.246  0.00  0.00    +0.000 F 
ATOM     25  F   UNL     1      -2.997  14.392  26.038  0.00  0.00    +0.000 F 
ATOM     26  F   UNL     1      -3.932  16.210  25.308  0.00  0.00    +0.000 F 
ENDBRANCH  22  23
ENDBRANCH  16  17
ENDBRANCH   2  16
BRANCH  12  27
ATOM     27  C   UNL     1      -5.623  12.453  19.076  0.00  0.00    +0.000 C 
BRANCH  27  28
ATOM     28  C   UNL     1      -6.344  11.475  20.022  0.00  0.00    +0.000 C 
ATOM     29  C   UNL     1      -7.385  12.173  20.894  0.00  0.00    +0.000 C 
ATOM     30  C   UNL     1      -7.020  10.382  19.185  0.00  0.00    +0.000 C 
ENDBRANCH  27  28
ENDBRANCH  12  27
TORSDOF 7
ENDMDL
MODEL 8
REMARK VINA RESULT:      -6.3      4.958      8.744
REMARK  Name = 
REMARK  11 active torsions:
REMARK  status: ('A' for Active; 'I' for Inactive)
REMARK    1  A    between atoms: C_1  and  C_2
REMARK    2  A    between atoms: C_2  and  S_3
REMARK    3  A    between atoms: S_3  and  C_4
REMARK    4  A    between atoms: C_5  and  C_6
REMARK    5  A    between atoms: C_6  and  C_7
REMARK    6  A    between atoms: C_12  and  C_13
REMARK    7  A    between atoms: N_22  and  C_23
REMARK    8  A    between atoms: N_26  and  C_27
REMARK    9  A    between atoms: C_27  and  C_28
REMARK   10  A    between atoms: C_28  and  C_29
REMARK   11  A    between atoms: C_28  and  C_30
REMARK                            x       y       z     vdW  Elec       q    Type
REMARK                         _______ _______ _______ _____ _____    ______ ____
ROOT
ATOM      1  C   UNL     1       1.718   7.869  19.608  0.00  0.00    +0.000 A 
ATOM      2  C   UNL     1       2.149   8.799  18.666  0.00  0.00    +0.000 A 
ATOM      3  S   UNL     1       3.418   8.153  17.721  0.00  0.00    +0.000 S 
ATOM      4  C   UNL     1       3.221   6.617  18.370  0.00  0.00    +0.000 A 
ATOM      5  C   UNL     1       2.340   6.575  19.418  0.00  0.00    +0.000 A 
ATOM      6  C   UNL     1       2.126   5.297  20.075  0.00  0.00    +0.000 A 
ATOM      7  O   UNL     1       1.293   5.140  20.963  0.00  0.00    +0.000 OA
ATOM      8  N   UNL     1       2.929   4.257  19.595  0.00  0.00    +0.000 N 
ATOM      9  C   UNL     1       2.773   2.944  20.194  0.00  0.00    +0.000 C 
ATOM     10  C   UNL     1       3.779   4.312  18.482  0.00  0.00    +0.000 A 
ATOM     11  O   UNL     1       4.363   3.303  18.075  0.00  0.00    +0.000 OA
ATOM     12  N   UNL     1       3.903   5.539  17.827  0.00  0.00    +0.000 N 
ENDROOT
BRANCH   1  13
ATOM     13  S   UNL     1       0.435   8.213  20.779  0.00  0.00    +0.000 S 
BRANCH  13  15
ATOM     14  C   UNL     1       0.375   9.544  23.179  0.00  0.00    +0.000 C 
ATOM     15  C   UNL     1       1.348   8.996  22.144  0.00  0.00    +0.000 C 
ENDBRANCH  13  15
ENDBRANCH   1  13
BRANCH   2  16
ATOM     16  C   UNL     1       1.711  10.213  18.371  0.00  0.00    +0.000 C 
BRANCH  16  17
ATOM     17  C   UNL     1       0.195  10.392  18.335  0.00  0.00    +0.000 A 
ATOM     18  C   UNL     1      -0.512   9.607  17.399  0.00  0.00    +0.000 A 
ATOM     19  C   UNL     1      -1.903   9.656  17.301  0.00  0.00    +0.000 A 
ATOM     20  C   UNL     1      -2.625  10.504  18.127  0.00  0.00    +0.000 A 
ATOM     21  C   UNL     1      -1.951  11.310  19.038  0.00  0.00    +0.000 A 
ATOM     22  C   UNL     1      -0.541  11.274  19.166  0.00  0.00    +0.000 A 
BRANCH  22  23
ATOM     23  C   UNL     1       0.032  12.214  20.208  0.00  0.00    +0.000 C 
ATOM     24  F   UNL     1       1.180  11.813  20.810  0.00  0.00    +0.000 F 
ATOM     25  F   UNL     1       0.293  13.451  19.693  0.00  0.00    +0.000 F 
ATOM     26  F   UNL     1      -0.843  12.430  21.234  0.00  0.00    +0.000 F 
ENDBRANCH  22  23
ENDBRANCH  16  17
ENDBRANCH   2  16
BRANCH  12  27
ATOM     27  C   UNL     1       4.558   5.558  16.508  0.00  0.00    +0.000 C 
BRANCH  27  28
ATOM     28  C   UNL     1       6.065   5.870  16.509  0.00  0.00    +0.000 C 
ATOM     29  C   UNL     1       6.607   6.107  17.917  0.00  0.00    +0.000 C 
ATOM     30  C   UNL     1       6.815   4.703  15.856  0.00  0.00    +0.000 C 
ENDBRANCH  27  28
ENDBRANCH  12  27
TORSDOF 7
ENDMDL
MODEL 9
REMARK VINA RESULT:      -6.2      0.723      1.329
REMARK  Name = 
REMARK  11 active torsions:
REMARK  status: ('A' for Active; 'I' for Inactive)
REMARK    1  A    between atoms: C_1  and  C_2
REMARK    2  A    between atoms: C_2  and  S_3
REMARK    3  A    between atoms: S_3  and  C_4
REMARK    4  A    between atoms: C_5  and  C_6
REMARK    5  A    between atoms: C_6  and  C_7
REMARK    6  A    between atoms: C_12  and  C_13
REMARK    7  A    between atoms: N_22  and  C_23
REMARK    8  A    between atoms: N_26  and  C_27
REMARK    9  A    between atoms: C_27  and  C_28
REMARK   10  A    between atoms: C_28  and  C_29
REMARK   11  A    between atoms: C_28  and  C_30
REMARK                            x       y       z     vdW  Elec       q    Type
REMARK                         _______ _______ _______ _____ _____    ______ ____
ROOT
ATOM      1  C   UNL     1      -2.137  11.388  18.389  0.00  0.00    +0.000 A 
ATOM      2  C   UNL     1      -1.044  11.983  19.014  0.00  0.00    +0.000 A 
ATOM      3  S   UNL     1      -1.566  13.114  20.186  0.00  0.00    +0.000 S 
ATOM      4  C   UNL     1      -3.170  12.636  20.044  0.00  0.00    +0.000 A 
ATOM      5  C   UNL     1      -3.390  11.760  19.013  0.00  0.00    +0.000 A 
ATOM      6  C   UNL     1      -4.752  11.313  18.780  0.00  0.00    +0.000 A 
ATOM      7  O   UNL     1      -5.036  10.465  17.941  0.00  0.00    +0.000 OA
ATOM      8  N   UNL     1      -5.707  11.912  19.609  0.00  0.00    +0.000 N 
ATOM      9  C   UNL     1      -7.094  11.515  19.446  0.00  0.00    +0.000 C 
ATOM     10  C   UNL     1      -5.448  12.759  20.695  0.00  0.00    +0.000 A 
ATOM     11  O   UNL     1      -6.360  13.148  21.432  0.00  0.00    +0.000 OA
ATOM     12  N   UNL     1      -4.118  13.108  20.937  0.00  0.00    +0.000 N 
ENDROOT
BRANCH   1  13
ATOM     13  S   UNL     1      -1.967  10.188  17.098  0.00  0.00    +0.000 S 
BRANCH  13  15
ATOM     14  C   UNL     1      -3.163  10.023  14.633  0.00  0.00    +0.000 C 
ATOM     15  C   UNL     1      -2.707  11.039  15.670  0.00  0.00    +0.000 C 
ENDBRANCH  13  15
ENDBRANCH   1  13
BRANCH   2  16
ATOM     16  C   UNL     1       0.443  11.814  18.823  0.00  0.00    +0.000 C 
BRANCH  16  17
ATOM     17  C   UNL     1       0.932  10.385  19.044  0.00  0.00    +0.000 A 
ATOM     18  C   UNL     1       1.438   9.707  17.914  0.00  0.00    +0.000 A 
ATOM     19  C   UNL     1       1.949   8.412  18.002  0.00  0.00    +0.000 A 
ATOM     20  C   UNL     1       1.953   7.752  19.222  0.00  0.00    +0.000 A 
ATOM     21  C   UNL     1       1.434   8.386  20.346  0.00  0.00    +0.000 A 
ATOM     22  C   UNL     1       0.918   9.703  20.287  0.00  0.00    +0.000 A 
BRANCH  22  23
ATOM     23  C   UNL     1       0.394  10.244  21.603  0.00  0.00    +0.000 C 
ATOM     24  F   UNL     1       0.786   9.582  22.721  0.00  0.00    +0.000 F 
ATOM     25  F   UNL     1       0.750  11.548  21.798  0.00  0.00    +0.000 F 
ATOM     26  F   UNL     1      -0.970  10.233  21.651  0.00  0.00    +0.000 F 
ENDBRANCH  22  23
ENDBRANCH  16  17
ENDBRANCH   2  16
BRANCH  12  27
ATOM     27  C   UNL     1      -3.793  13.757  22.218  0.00  0.00    +0.000 C 
BRANCH  27  28
ATOM     28  C   UNL     1      -3.882  15.294  22.236  0.00  0.00    +0.000 C 
ATOM     29  C   UNL     1      -4.936  15.803  23.215  0.00  0.00    +0.000 C 
ATOM     30  C   UNL     1      -2.509  15.866  22.610  0.00  0.00    +0.000 C 
ENDBRANCH  27  28
ENDBRANCH  12  27
TORSDOF 7
ENDMDL
