MODEL 1
REMARK VINA RESULT:      -8.9      0.000      0.000
REMARK  Name = 
REMARK  10 active torsions:
REMARK  status: ('A' for Active; 'I' for Inactive)
REMARK    1  A    between atoms: C_1  and  O_2
REMARK    2  A    between atoms: O_2  and  C_3
REMARK    3  A    between atoms: C_6  and  C_7
REMARK    4  A    between atoms: C_7  and  C_8
REMARK    5  A    between atoms: C_7  and  N_9
REMARK    6  A    between atoms: C_10  and  C_12
REMARK    7  A    between atoms: C_19  and  C_20
REMARK    8  A    between atoms: N_26  and  C_27
REMARK    9  A    between atoms: C_34  and  O_35
REMARK   10  A    between atoms: O_35  and  C_36
REMARK                            x       y       z     vdW  Elec       q    Type
REMARK                         _______ _______ _______ _____ _____    ______ ____
ROOT
ATOM      1  C   UNL     1       1.061   9.158  18.823  0.00  0.00    +0.000 A 
ATOM      2  C   UNL     1       1.006   8.393  19.992  0.00  0.00    +0.000 A 
ATOM      3  C   UNL     1       1.964   7.397  20.246  0.00  0.00    +0.000 A 
ATOM      4  C   UNL     1       2.915   7.142  19.235  0.00  0.00    +0.000 A 
ATOM      5  C   UNL     1       3.039   7.970  18.140  0.00  0.00    +0.000 A 
ATOM      6  C   UNL     1       2.111   9.003  17.915  0.00  0.00    +0.000 A 
ATOM      7  N   UNL     1       4.062   7.581  17.353  0.00  0.00    +0.000 NA
ATOM      8  C   UNL     1       4.484   6.388  17.773  0.00  0.00    +0.000 A 
ATOM      9  N   UNL     1       3.761   6.045  18.952  0.00  0.00    +0.000 N 
ENDROOT
BRANCH   8  10
ATOM     10  C   UNL     1       5.365   5.632  16.819  0.00  0.00    +0.000 A 
ATOM     11  C   UNL     1       4.918   5.519  15.488  0.00  0.00    +0.000 A 
ATOM     12  C   UNL     1       5.599   4.705  14.569  0.00  0.00    +0.000 A 
ATOM     13  C   UNL     1       6.729   4.044  14.982  0.00  0.00    +0.000 A 
ATOM     14  C   UNL     1       7.170   4.276  16.291  0.00  0.00    +0.000 A 
ATOM     15  N   UNL     1       6.531   5.064  17.213  0.00  0.00    +0.000 NA
ENDBRANCH   8  10
BRANCH   9  16
ATOM     16  C   UNL     1       3.483   4.783  19.668  0.00  0.00    +0.000 C 
ATOM     17  C   UNL     1       1.977   4.354  19.657  0.00  0.00    +0.000 C 
ATOM     18  C   UNL     1       1.458   4.327  18.235  0.00  0.00    +0.000 C 
ATOM     19  C   UNL     1       2.431   3.633  17.288  0.00  0.00    +0.000 C 
ATOM     20  C   UNL     1       3.734   3.057  17.853  0.00  0.00    +0.000 C 
ATOM     21  C   UNL     1       4.200   3.518  19.230  0.00  0.00    +0.000 C 
ENDBRANCH   9  16
BRANCH   1  23
ATOM     22  N   UNL     1      -0.005  11.333  19.152  0.00  0.00    +0.000 N 
ATOM     23  C   UNL     1       0.018  10.143  18.449  0.00  0.00    +0.000 C 
ATOM     24  O   UNL     1      -0.811   9.853  17.593  0.00  0.00    +0.000 OA
ATOM     25  H   UNL     1       0.600  11.468  19.949  0.00  0.00    +0.000 HD
BRANCH  22  26
ATOM     26  C   UNL     1      -1.049  12.313  18.886  0.00  0.00    +0.000 C 
ATOM     27  C   UNL     1      -0.443  13.675  18.540  0.00  0.00    +0.000 C 
BRANCH  26  31
ATOM     28  C   UNL     1      -3.846  12.538  22.213  0.00  0.00    +0.000 A 
ATOM     29  C   UNL     1      -2.474  12.331  22.426  0.00  0.00    +0.000 A 
ATOM     30  C   UNL     1      -1.575  12.303  21.356  0.00  0.00    +0.000 A 
ATOM     31  C   UNL     1      -2.027  12.435  20.039  0.00  0.00    +0.000 A 
ATOM     32  C   UNL     1      -3.404  12.604  19.830  0.00  0.00    +0.000 A 
ATOM     33  C   UNL     1      -4.319  12.647  20.897  0.00  0.00    +0.000 A 
BRANCH  28  35
ATOM     34  C   UNL     1      -4.180  12.509  24.568  0.00  0.00    +0.000 C 
ATOM     35  O   UNL     1      -4.730  12.597  23.256  0.00  0.00    +0.000 OA
ENDBRANCH  28  35
BRANCH  33  36
ATOM     36  O   UNL     1      -5.607  12.808  20.457  0.00  0.00    +0.000 OA
ATOM     37  C   UNL     1      -5.902  12.599  19.085  0.00  0.00    +0.000 C 
ENDBRANCH  33  36
ENDBRANCH  26  31
ENDBRANCH  22  26
ENDBRANCH   1  23
TORSDOF 7
ENDMDL
MODEL 2
REMARK VINA RESULT:      -8.7      0.736      1.619
REMARK  Name = 
REMARK  10 active torsions:
REMARK  status: ('A' for Active; 'I' for Inactive)
REMARK    1  A    between atoms: C_1  and  O_2
REMARK    2  A    between atoms: O_2  and  C_3
REMARK    3  A    between atoms: C_6  and  C_7
REMARK    4  A    between atoms: C_7  and  C_8
REMARK    5  A    between atoms: C_7  and  N_9
REMARK    6  A    between atoms: C_10  and  C_12
REMARK    7  A    between atoms: C_19  and  C_20
REMARK    8  A    between atoms: N_26  and  C_27
REMARK    9  A    between atoms: C_34  and  O_35
REMARK   10  A    between atoms: O_35  and  C_36
REMARK                            x       y       z     vdW  Elec       q    Type
REMARK                         _______ _______ _______ _____ _____    ______ ____
ROOT
ATOM      1  C   UNL     1       1.082   9.157  18.752  0.00  0.00    +0.000 A 
ATOM      2  C   UNL     1       1.034   8.405  19.930  0.00  0.00    +0.000 A 
ATOM      3  C   UNL     1       1.994   7.412  20.190  0.00  0.00    +0.000 A 
ATOM      4  C   UNL     1       2.941   7.148  19.178  0.00  0.00    +0.000 A 
ATOM      5  C   UNL     1       3.059   7.964  18.073  0.00  0.00    +0.000 A 
ATOM      6  C   UNL     1       2.128   8.993  17.842  0.00  0.00    +0.000 A 
ATOM      7  N   UNL     1       4.078   7.567  17.286  0.00  0.00    +0.000 NA
ATOM      8  C   UNL     1       4.504   6.380  17.716  0.00  0.00    +0.000 A 
ATOM      9  N   UNL     1       3.786   6.049  18.902  0.00  0.00    +0.000 N 
ENDROOT
BRANCH   8  10
ATOM     10  C   UNL     1       5.381   5.614  16.767  0.00  0.00    +0.000 A 
ATOM     11  C   UNL     1       4.936   5.502  15.434  0.00  0.00    +0.000 A 
ATOM     12  C   UNL     1       5.613   4.680  14.520  0.00  0.00    +0.000 A 
ATOM     13  C   UNL     1       6.737   4.011  14.937  0.00  0.00    +0.000 A 
ATOM     14  C   UNL     1       7.177   4.243  16.246  0.00  0.00    +0.000 A 
ATOM     15  N   UNL     1       6.542   5.039  17.165  0.00  0.00    +0.000 NA
ENDBRANCH   8  10
BRANCH   9  16
ATOM     16  C   UNL     1       3.514   4.794  19.633  0.00  0.00    +0.000 C 
ATOM     17  C   UNL     1       2.012   4.353  19.617  0.00  0.00    +0.000 C 
ATOM     18  C   UNL     1       1.503   4.302  18.191  0.00  0.00    +0.000 C 
ATOM     19  C   UNL     1       2.490   3.603  17.261  0.00  0.00    +0.000 C 
ATOM     20  C   UNL     1       3.793   3.046  17.844  0.00  0.00    +0.000 C 
ATOM     21  C   UNL     1       4.244   3.530  19.218  0.00  0.00    +0.000 C 
ENDBRANCH   9  16
BRANCH   1  23
ATOM     22  N   UNL     1       0.109  11.391  18.949  0.00  0.00    +0.000 N 
ATOM     23  C   UNL     1       0.036  10.136  18.373  0.00  0.00    +0.000 C 
ATOM     24  O   UNL     1      -0.876   9.793  17.628  0.00  0.00    +0.000 OA
ATOM     25  H   UNL     1       0.789  11.584  19.672  0.00  0.00    +0.000 HD
BRANCH  22  26
ATOM     26  C   UNL     1      -0.927  12.376  18.677  0.00  0.00    +0.000 C 
ATOM     27  C   UNL     1      -0.319  13.766  18.473  0.00  0.00    +0.000 C 
BRANCH  26  31
ATOM     28  C   UNL     1      -4.003  12.577  21.750  0.00  0.00    +0.000 A 
ATOM     29  C   UNL     1      -4.335  12.466  20.391  0.00  0.00    +0.000 A 
ATOM     30  C   UNL     1      -3.343  12.358  19.413  0.00  0.00    +0.000 A 
ATOM     31  C   UNL     1      -1.989  12.405  19.760  0.00  0.00    +0.000 A 
ATOM     32  C   UNL     1      -1.662  12.552  21.116  0.00  0.00    +0.000 A 
ATOM     33  C   UNL     1      -2.649  12.650  22.113  0.00  0.00    +0.000 A 
BRANCH  28  35
ATOM     34  C   UNL     1      -5.443  13.955  23.047  0.00  0.00    +0.000 C 
ATOM     35  O   UNL     1      -4.967  12.652  22.719  0.00  0.00    +0.000 OA
ENDBRANCH  28  35
BRANCH  33  36
ATOM     36  O   UNL     1      -2.101  12.799  23.361  0.00  0.00    +0.000 OA
ATOM     37  C   UNL     1      -1.407  13.997  23.673  0.00  0.00    +0.000 C 
ENDBRANCH  33  36
ENDBRANCH  26  31
ENDBRANCH  22  26
ENDBRANCH   1  23
TORSDOF 7
ENDMDL
MODEL 3
REMARK VINA RESULT:      -8.4      0.870      1.858
REMARK  Name = 
REMARK  10 active torsions:
REMARK  status: ('A' for Active; 'I' for Inactive)
REMARK    1  A    between atoms: C_1  and  O_2
REMARK    2  A    between atoms: O_2  and  C_3
REMARK    3  A    between atoms: C_6  and  C_7
REMARK    4  A    between atoms: C_7  and  C_8
REMARK    5  A    between atoms: C_7  and  N_9
REMARK    6  A    between atoms: C_10  and  C_12
REMARK    7  A    between atoms: C_19  and  C_20
REMARK    8  A    between atoms: N_26  and  C_27
REMARK    9  A    between atoms: C_34  and  O_35
REMARK   10  A    between atoms: O_35  and  C_36
REMARK                            x       y       z     vdW  Elec       q    Type
REMARK                         _______ _______ _______ _____ _____    ______ ____
ROOT
ATOM      1  C   UNL     1       0.913   9.269  18.721  0.00  0.00    +0.000 A 
ATOM      2  C   UNL     1       0.790   8.571  19.926  0.00  0.00    +0.000 A 
ATOM      3  C   UNL     1       1.707   7.563  20.270  0.00  0.00    +0.000 A 
ATOM      4  C   UNL     1       2.688   7.227  19.313  0.00  0.00    +0.000 A 
ATOM      5  C   UNL     1       2.879   7.990  18.182  0.00  0.00    +0.000 A 
ATOM      6  C   UNL     1       1.991   9.035  17.866  0.00  0.00    +0.000 A 
ATOM      7  N   UNL     1       3.919   7.530  17.458  0.00  0.00    +0.000 NA
ATOM      8  C   UNL     1       4.288   6.351  17.957  0.00  0.00    +0.000 A 
ATOM      9  N   UNL     1       3.510   6.093  19.123  0.00  0.00    +0.000 N 
ENDROOT
BRANCH   8  10
ATOM     10  C   UNL     1       5.182   5.520  17.081  0.00  0.00    +0.000 A 
ATOM     11  C   UNL     1       6.421   5.124  17.624  0.00  0.00    +0.000 A 
ATOM     12  C   UNL     1       7.380   4.478  16.829  0.00  0.00    +0.000 A 
ATOM     13  C   UNL     1       7.077   4.208  15.517  0.00  0.00    +0.000 A 
ATOM     14  C   UNL     1       5.793   4.543  15.069  0.00  0.00    +0.000 A 
ATOM     15  N   UNL     1       4.833   5.173  15.819  0.00  0.00    +0.000 NA
ENDBRANCH   8  10
BRANCH   9  16
ATOM     16  C   UNL     1       3.168   4.880  19.893  0.00  0.00    +0.000 C 
ATOM     17  C   UNL     1       1.668   4.444  19.775  0.00  0.00    +0.000 C 
ATOM     18  C   UNL     1       1.279   4.320  18.317  0.00  0.00    +0.000 C 
ATOM     19  C   UNL     1       2.334   3.569  17.510  0.00  0.00    +0.000 C 
ATOM     20  C   UNL     1       3.580   3.038  18.227  0.00  0.00    +0.000 C 
ATOM     21  C   UNL     1       3.919   3.592  19.607  0.00  0.00    +0.000 C 
ENDBRANCH   9  16
BRANCH   1  23
ATOM     22  N   UNL     1      -0.009  11.531  18.792  0.00  0.00    +0.000 N 
ATOM     23  C   UNL     1      -0.085  10.261  18.254  0.00  0.00    +0.000 C 
ATOM     24  O   UNL     1      -0.965   9.915  17.473  0.00  0.00    +0.000 OA
ATOM     25  H   UNL     1       0.636  11.732  19.544  0.00  0.00    +0.000 HD
BRANCH  22  26
ATOM     26  C   UNL     1      -1.003  12.533  18.432  0.00  0.00    +0.000 C 
ATOM     27  C   UNL     1      -0.420  13.944  18.542  0.00  0.00    +0.000 C 
BRANCH  26  31
ATOM     28  C   UNL     1      -4.681  12.272  20.746  0.00  0.00    +0.000 A 
ATOM     29  C   UNL     1      -4.651  11.943  19.382  0.00  0.00    +0.000 A 
ATOM     30  C   UNL     1      -3.459  11.987  18.655  0.00  0.00    +0.000 A 
ATOM     31  C   UNL     1      -2.269  12.406  19.259  0.00  0.00    +0.000 A 
ATOM     32  C   UNL     1      -2.311  12.769  20.613  0.00  0.00    +0.000 A 
ATOM     33  C   UNL     1      -3.501  12.718  21.361  0.00  0.00    +0.000 A 
BRANCH  28  35
ATOM     34  C   UNL     1      -6.971  11.638  20.821  0.00  0.00    +0.000 C 
ATOM     35  O   UNL     1      -5.837  12.203  21.474  0.00  0.00    +0.000 OA
ENDBRANCH  28  35
BRANCH  33  36
ATOM     36  O   UNL     1      -3.308  13.128  22.655  0.00  0.00    +0.000 OA
ATOM     37  C   UNL     1      -3.011  12.161  23.650  0.00  0.00    +0.000 C 
ENDBRANCH  33  36
ENDBRANCH  26  31
ENDBRANCH  22  26
ENDBRANCH   1  23
TORSDOF 7
ENDMDL
MODEL 4
REMARK VINA RESULT:      -8.3      0.948      1.135
REMARK  Name = 
REMARK  10 active torsions:
REMARK  status: ('A' for Active; 'I' for Inactive)
REMARK    1  A    between atoms: C_1  and  O_2
REMARK    2  A    between atoms: O_2  and  C_3
REMARK    3  A    between atoms: C_6  and  C_7
REMARK    4  A    between atoms: C_7  and  C_8
REMARK    5  A    between atoms: C_7  and  N_9
REMARK    6  A    between atoms: C_10  and  C_12
REMARK    7  A    between atoms: C_19  and  C_20
REMARK    8  A    between atoms: N_26  and  C_27
REMARK    9  A    between atoms: C_34  and  O_35
REMARK   10  A    between atoms: O_35  and  C_36
REMARK                            x       y       z     vdW  Elec       q    Type
REMARK                         _______ _______ _______ _____ _____    ______ ____
ROOT
ATOM      1  C   UNL     1       1.200   9.062  18.934  0.00  0.00    +0.000 A 
ATOM      2  C   UNL     1       1.149   8.259  20.078  0.00  0.00    +0.000 A 
ATOM      3  C   UNL     1       2.092   7.238  20.283  0.00  0.00    +0.000 A 
ATOM      4  C   UNL     1       3.025   7.002  19.251  0.00  0.00    +0.000 A 
ATOM      5  C   UNL     1       3.148   7.865  18.183  0.00  0.00    +0.000 A 
ATOM      6  C   UNL     1       2.234   8.921  18.007  0.00  0.00    +0.000 A 
ATOM      7  N   UNL     1       4.153   7.486  17.368  0.00  0.00    +0.000 NA
ATOM      8  C   UNL     1       4.560   6.273  17.741  0.00  0.00    +0.000 A 
ATOM      9  N   UNL     1       3.847   5.902  18.918  0.00  0.00    +0.000 N 
ENDROOT
BRANCH   8  10
ATOM     10  C   UNL     1       5.415   5.536  16.749  0.00  0.00    +0.000 A 
ATOM     11  C   UNL     1       4.949   5.480  15.420  0.00  0.00    +0.000 A 
ATOM     12  C   UNL     1       5.603   4.687  14.465  0.00  0.00    +0.000 A 
ATOM     13  C   UNL     1       6.725   3.990  14.838  0.00  0.00    +0.000 A 
ATOM     14  C   UNL     1       7.187   4.166  16.149  0.00  0.00    +0.000 A 
ATOM     15  N   UNL     1       6.574   4.933  17.107  0.00  0.00    +0.000 NA
ENDBRANCH   8  10
BRANCH   9  16
ATOM     16  C   UNL     1       3.559   4.621  19.594  0.00  0.00    +0.000 C 
ATOM     17  C   UNL     1       2.041   4.235  19.621  0.00  0.00    +0.000 C 
ATOM     18  C   UNL     1       1.472   4.278  18.219  0.00  0.00    +0.000 C 
ATOM     19  C   UNL     1       2.392   3.595  17.211  0.00  0.00    +0.000 C 
ATOM     20  C   UNL     1       3.696   2.961  17.706  0.00  0.00    +0.000 C 
ATOM     21  C   UNL     1       4.222   3.355  19.082  0.00  0.00    +0.000 C 
ENDBRANCH   9  16
BRANCH   1  23
ATOM     22  N   UNL     1       0.081  11.174  19.445  0.00  0.00    +0.000 N 
ATOM     23  C   UNL     1       0.169  10.076  18.610  0.00  0.00    +0.000 C 
ATOM     24  O   UNL     1      -0.597   9.884  17.672  0.00  0.00    +0.000 OA
ATOM     25  H   UNL     1       0.630  11.218  20.292  0.00  0.00    +0.000 HD
BRANCH  22  26
ATOM     26  C   UNL     1      -0.958  12.171  19.227  0.00  0.00    +0.000 C 
ATOM     27  C   UNL     1      -0.442  13.315  18.350  0.00  0.00    +0.000 C 
BRANCH  26  31
ATOM     28  C   UNL     1      -2.511  13.613  23.029  0.00  0.00    +0.000 A 
ATOM     29  C   UNL     1      -1.197  13.894  22.624  0.00  0.00    +0.000 A 
ATOM     30  C   UNL     1      -0.718  13.465  21.383  0.00  0.00    +0.000 A 
ATOM     31  C   UNL     1      -1.524  12.703  20.530  0.00  0.00    +0.000 A 
ATOM     32  C   UNL     1      -2.824  12.394  20.956  0.00  0.00    +0.000 A 
ATOM     33  C   UNL     1      -3.324  12.829  22.197  0.00  0.00    +0.000 A 
BRANCH  28  35
ATOM     34  C   UNL     1      -2.188  14.980  24.948  0.00  0.00    +0.000 C 
ATOM     35  O   UNL     1      -2.999  14.054  24.228  0.00  0.00    +0.000 OA
ENDBRANCH  28  35
BRANCH  33  36
ATOM     36  O   UNL     1      -4.609  12.401  22.406  0.00  0.00    +0.000 OA
ATOM     37  C   UNL     1      -5.689  13.254  22.059  0.00  0.00    +0.000 C 
ENDBRANCH  33  36
ENDBRANCH  26  31
ENDBRANCH  22  26
ENDBRANCH   1  23
TORSDOF 7
ENDMDL
MODEL 5
REMARK VINA RESULT:      -8.2      2.949     11.048
REMARK  Name = 
REMARK  10 active torsions:
REMARK  status: ('A' for Active; 'I' for Inactive)
REMARK    1  A    between atoms: C_1  and  O_2
REMARK    2  A    between atoms: O_2  and  C_3
REMARK    3  A    between atoms: C_6  and  C_7
REMARK    4  A    between atoms: C_7  and  C_8
REMARK    5  A    between atoms: C_7  and  N_9
REMARK    6  A    between atoms: C_10  and  C_12
REMARK    7  A    between atoms: C_19  and  C_20
REMARK    8  A    between atoms: N_26  and  C_27
REMARK    9  A    between atoms: C_34  and  O_35
REMARK   10  A    between atoms: O_35  and  C_36
REMARK                            x       y       z     vdW  Elec       q    Type
REMARK                         _______ _______ _______ _____ _____    ______ ____
ROOT
ATOM      1  C   UNL     1       1.488   8.670  20.101  0.00  0.00    +0.000 A 
ATOM      2  C   UNL     1       1.510   9.536  19.003  0.00  0.00    +0.000 A 
ATOM      3  C   UNL     1       1.041  10.855  19.117  0.00  0.00    +0.000 A 
ATOM      4  C   UNL     1       0.466  11.233  20.349  0.00  0.00    +0.000 A 
ATOM      5  C   UNL     1       0.550  10.421  21.460  0.00  0.00    +0.000 A 
ATOM      6  C   UNL     1       1.070   9.118  21.356  0.00  0.00    +0.000 A 
ATOM      7  N   UNL     1       0.005  11.020  22.538  0.00  0.00    +0.000 NA
ATOM      8  C   UNL     1      -0.638  12.113  22.131  0.00  0.00    +0.000 A 
ATOM      9  N   UNL     1      -0.405  12.277  20.734  0.00  0.00    +0.000 N 
ENDROOT
BRANCH   8  10
ATOM     10  C   UNL     1      -1.600  12.714  23.117  0.00  0.00    +0.000 A 
ATOM     11  C   UNL     1      -2.809  12.022  23.333  0.00  0.00    +0.000 A 
ATOM     12  C   UNL     1      -3.826  12.586  24.118  0.00  0.00    +0.000 A 
ATOM     13  C   UNL     1      -3.612  13.810  24.700  0.00  0.00    +0.000 A 
ATOM     14  C   UNL     1      -2.353  14.398  24.521  0.00  0.00    +0.000 A 
ATOM     15  N   UNL     1      -1.337  13.876  23.762  0.00  0.00    +0.000 NA
ENDBRANCH   8  10
BRANCH   9  16
ATOM     16  C   UNL     1      -1.081  13.020  19.651  0.00  0.00    +0.000 C 
ATOM     17  C   UNL     1      -1.647  14.415  20.082  0.00  0.00    +0.000 C 
ATOM     18  C   UNL     1      -0.556  15.235  20.738  0.00  0.00    +0.000 C 
ATOM     19  C   UNL     1       0.749  15.177  19.950  0.00  0.00    +0.000 C 
ATOM     20  C   UNL     1       0.798  14.364  18.652  0.00  0.00    +0.000 C 
ATOM     21  C   UNL     1      -0.305  13.344  18.387  0.00  0.00    +0.000 C 
ENDBRANCH   9  16
BRANCH   1  23
ATOM     22  N   UNL     1       2.775   6.887  19.036  0.00  0.00    +0.000 N 
ATOM     23  C   UNL     1       1.863   7.239  20.013  0.00  0.00    +0.000 C 
ATOM     24  O   UNL     1       1.319   6.422  20.748  0.00  0.00    +0.000 OA
ATOM     25  H   UNL     1       3.084   7.566  18.354  0.00  0.00    +0.000 HD
BRANCH  22  26
ATOM     26  C   UNL     1       3.133   5.489  18.846  0.00  0.00    +0.000 C 
ATOM     27  C   UNL     1       3.662   4.878  20.146  0.00  0.00    +0.000 C 
BRANCH  26  31
ATOM     28  C   UNL     1       6.043   4.854  15.672  0.00  0.00    +0.000 A 
ATOM     29  C   UNL     1       5.002   3.941  15.901  0.00  0.00    +0.000 A 
ATOM     30  C   UNL     1       4.045   4.172  16.893  0.00  0.00    +0.000 A 
ATOM     31  C   UNL     1       4.128   5.300  17.716  0.00  0.00    +0.000 A 
ATOM     32  C   UNL     1       5.191   6.190  17.508  0.00  0.00    +0.000 A 
ATOM     33  C   UNL     1       6.155   5.977  16.505  0.00  0.00    +0.000 A 
BRANCH  28  35
ATOM     34  C   UNL     1       6.516   3.968  13.516  0.00  0.00    +0.000 C 
ATOM     35  O   UNL     1       6.967   4.652  14.683  0.00  0.00    +0.000 OA
ENDBRANCH  28  35
BRANCH  33  36
ATOM     36  O   UNL     1       7.103   6.967  16.491  0.00  0.00    +0.000 OA
ATOM     37  C   UNL     1       7.620   7.448  17.722  0.00  0.00    +0.000 C 
ENDBRANCH  33  36
ENDBRANCH  26  31
ENDBRANCH  22  26
ENDBRANCH   1  23
TORSDOF 7
ENDMDL
MODEL 6
REMARK VINA RESULT:      -8.1      1.364      2.034
REMARK  Name = 
REMARK  10 active torsions:
REMARK  status: ('A' for Active; 'I' for Inactive)
REMARK    1  A    between atoms: C_1  and  O_2
REMARK    2  A    between atoms: O_2  and  C_3
REMARK    3  A    between atoms: C_6  and  C_7
REMARK    4  A    between atoms: C_7  and  C_8
REMARK    5  A    between atoms: C_7  and  N_9
REMARK    6  A    between atoms: C_10  and  C_12
REMARK    7  A    between atoms: C_19  and  C_20
REMARK    8  A    between atoms: N_26  and  C_27
REMARK    9  A    between atoms: C_34  and  O_35
REMARK   10  A    between atoms: O_35  and  C_36
REMARK                            x       y       z     vdW  Elec       q    Type
REMARK                         _______ _______ _______ _____ _____    ______ ____
ROOT
ATOM      1  C   UNL     1       1.100   9.084  18.903  0.00  0.00    +0.000 A 
ATOM      2  C   UNL     1       1.053   8.294  20.055  0.00  0.00    +0.000 A 
ATOM      3  C   UNL     1       2.010   7.289  20.279  0.00  0.00    +0.000 A 
ATOM      4  C   UNL     1       2.952   7.055  19.255  0.00  0.00    +0.000 A 
ATOM      5  C   UNL     1       3.070   7.906  18.177  0.00  0.00    +0.000 A 
ATOM      6  C   UNL     1       2.142   8.946  17.983  0.00  0.00    +0.000 A 
ATOM      7  N   UNL     1       4.085   7.532  17.374  0.00  0.00    +0.000 NA
ATOM      8  C   UNL     1       4.507   6.329  17.763  0.00  0.00    +0.000 A 
ATOM      9  N   UNL     1       3.792   5.962  18.940  0.00  0.00    +0.000 N 
ENDROOT
BRANCH   8  10
ATOM     10  C   UNL     1       5.378   5.592  16.786  0.00  0.00    +0.000 A 
ATOM     11  C   UNL     1       4.919   5.509  15.456  0.00  0.00    +0.000 A 
ATOM     12  C   UNL     1       5.590   4.714  14.514  0.00  0.00    +0.000 A 
ATOM     13  C   UNL     1       6.722   4.042  14.902  0.00  0.00    +0.000 A 
ATOM     14  C   UNL     1       7.176   4.245  16.212  0.00  0.00    +0.000 A 
ATOM     15  N   UNL     1       6.546   5.014  17.157  0.00  0.00    +0.000 NA
ENDBRANCH   8  10
BRANCH   9  16
ATOM     16  C   UNL     1       3.517   4.685  19.630  0.00  0.00    +0.000 C 
ATOM     17  C   UNL     1       2.011   4.258  19.618  0.00  0.00    +0.000 C 
ATOM     18  C   UNL     1       1.484   4.262  18.199  0.00  0.00    +0.000 C 
ATOM     19  C   UNL     1       2.452   3.587  17.232  0.00  0.00    +0.000 C 
ATOM     20  C   UNL     1       3.757   2.998  17.777  0.00  0.00    +0.000 C 
ATOM     21  C   UNL     1       4.230   3.430  19.161  0.00  0.00    +0.000 C 
ENDBRANCH   9  16
BRANCH   1  23
ATOM     22  N   UNL     1       0.005  11.227  19.327  0.00  0.00    +0.000 N 
ATOM     23  C   UNL     1       0.056  10.079  18.559  0.00  0.00    +0.000 C 
ATOM     24  O   UNL     1      -0.749   9.831  17.669  0.00  0.00    +0.000 OA
ATOM     25  H   UNL     1       0.590  11.323  20.146  0.00  0.00    +0.000 HD
BRANCH  22  26
ATOM     26  C   UNL     1      -1.041  12.212  19.092  0.00  0.00    +0.000 C 
ATOM     27  C   UNL     1      -0.534  13.344  18.194  0.00  0.00    +0.000 C 
BRANCH  26  31
ATOM     28  C   UNL     1      -2.730  13.887  22.737  0.00  0.00    +0.000 A 
ATOM     29  C   UNL     1      -3.534  13.224  21.798  0.00  0.00    +0.000 A 
ATOM     30  C   UNL     1      -2.980  12.650  20.651  0.00  0.00    +0.000 A 
ATOM     31  C   UNL     1      -1.611  12.763  20.386  0.00  0.00    +0.000 A 
ATOM     32  C   UNL     1      -0.817  13.459  21.309  0.00  0.00    +0.000 A 
ATOM     33  C   UNL     1      -1.359  14.031  22.474  0.00  0.00    +0.000 A 
BRANCH  28  35
ATOM     34  C   UNL     1      -3.938  15.671  23.743  0.00  0.00    +0.000 C 
ATOM     35  O   UNL     1      -3.258  14.425  23.879  0.00  0.00    +0.000 OA
ENDBRANCH  28  35
BRANCH  33  36
ATOM     36  O   UNL     1      -0.403  14.669  23.221  0.00  0.00    +0.000 OA
ATOM     37  C   UNL     1       0.555  15.487  22.567  0.00  0.00    +0.000 C 
ENDBRANCH  33  36
ENDBRANCH  26  31
ENDBRANCH  22  26
ENDBRANCH   1  23
TORSDOF 7
ENDMDL
MODEL 7
REMARK VINA RESULT:      -8.0      2.993     10.725
REMARK  Name = 
REMARK  10 active torsions:
REMARK  status: ('A' for Active; 'I' for Inactive)
REMARK    1  A    between atoms: C_1  and  O_2
REMARK    2  A    between atoms: O_2  and  C_3
REMARK    3  A    between atoms: C_6  and  C_7
REMARK    4  A    between atoms: C_7  and  C_8
REMARK    5  A    between atoms: C_7  and  N_9
REMARK    6  A    between atoms: C_10  and  C_12
REMARK    7  A    between atoms: C_19  and  C_20
REMARK    8  A    between atoms: N_26  and  C_27
REMARK    9  A    between atoms: C_34  and  O_35
REMARK   10  A    between atoms: O_35  and  C_36
REMARK                            x       y       z     vdW  Elec       q    Type
REMARK                         _______ _______ _______ _____ _____    ______ ____
ROOT
ATOM      1  C   UNL     1       1.675   8.760  19.288  0.00  0.00    +0.000 A 
ATOM      2  C   UNL     1       1.908   9.795  18.378  0.00  0.00    +0.000 A 
ATOM      3  C   UNL     1       1.612  11.127  18.711  0.00  0.00    +0.000 A 
ATOM      4  C   UNL     1       0.988  11.359  19.955  0.00  0.00    +0.000 A 
ATOM      5  C   UNL     1       0.865  10.358  20.895  0.00  0.00    +0.000 A 
ATOM      6  C   UNL     1       1.213   9.033  20.578  0.00  0.00    +0.000 A 
ATOM      7  N   UNL     1       0.314  10.828  22.032  0.00  0.00    +0.000 NA
ATOM      8  C   UNL     1      -0.139  12.060  21.802  0.00  0.00    +0.000 A 
ATOM      9  N   UNL     1       0.235  12.435  20.478  0.00  0.00    +0.000 N 
ENDROOT
BRANCH   8  10
ATOM     10  C   UNL     1      -1.093  12.610  22.824  0.00  0.00    +0.000 A 
ATOM     11  C   UNL     1      -2.256  11.856  23.083  0.00  0.00    +0.000 A 
ATOM     12  C   UNL     1      -3.272  12.366  23.906  0.00  0.00    +0.000 A 
ATOM     13  C   UNL     1      -3.099  13.600  24.482  0.00  0.00    +0.000 A 
ATOM     14  C   UNL     1      -1.880  14.252  24.258  0.00  0.00    +0.000 A 
ATOM     15  N   UNL     1      -0.867  13.783  23.462  0.00  0.00    +0.000 NA
ENDBRANCH   8  10
BRANCH   9  16
ATOM     16  C   UNL     1      -0.238  13.451  19.517  0.00  0.00    +0.000 C 
ATOM     17  C   UNL     1      -0.865  12.859  18.210  0.00  0.00    +0.000 C 
ATOM     18  C   UNL     1      -1.949  11.863  18.562  0.00  0.00    +0.000 C 
ATOM     19  C   UNL     1      -2.875  12.393  19.653  0.00  0.00    +0.000 C 
ATOM     20  C   UNL     1      -2.632  13.796  20.217  0.00  0.00    +0.000 C 
ATOM     21  C   UNL     1      -1.281  14.459  19.967  0.00  0.00    +0.000 C 
ENDBRANCH   9  16
BRANCH   1  23
ATOM     22  N   UNL     1       2.200   6.478  19.988  0.00  0.00    +0.000 N 
ATOM     23  C   UNL     1       1.861   7.328  18.953  0.00  0.00    +0.000 C 
ATOM     24  O   UNL     1       1.772   6.962  17.786  0.00  0.00    +0.000 OA
ATOM     25  H   UNL     1       2.411   6.846  20.906  0.00  0.00    +0.000 HD
BRANCH  22  26
ATOM     26  C   UNL     1       2.470   5.074  19.716  0.00  0.00    +0.000 C 
ATOM     27  C   UNL     1       2.618   4.283  21.018  0.00  0.00    +0.000 C 
BRANCH  26  31
ATOM     28  C   UNL     1       5.949   4.407  17.187  0.00  0.00    +0.000 A 
ATOM     29  C   UNL     1       4.656   4.090  16.747  0.00  0.00    +0.000 A 
ATOM     30  C   UNL     1       3.538   4.347  17.546  0.00  0.00    +0.000 A 
ATOM     31  C   UNL     1       3.686   4.885  18.828  0.00  0.00    +0.000 A 
ATOM     32  C   UNL     1       4.984   5.166  19.279  0.00  0.00    +0.000 A 
ATOM     33  C   UNL     1       6.117   4.925  18.481  0.00  0.00    +0.000 A 
BRANCH  28  35
ATOM     34  C   UNL     1       7.056   4.823  15.124  0.00  0.00    +0.000 C 
ATOM     35  O   UNL     1       7.048   4.189  16.400  0.00  0.00    +0.000 OA
ENDBRANCH  28  35
BRANCH  33  36
ATOM     36  O   UNL     1       7.277   5.264  19.128  0.00  0.00    +0.000 OA
ATOM     37  C   UNL     1       7.922   6.484  18.799  0.00  0.00    +0.000 C 
ENDBRANCH  33  36
ENDBRANCH  26  31
ENDBRANCH  22  26
ENDBRANCH   1  23
TORSDOF 7
ENDMDL
MODEL 8
REMARK VINA RESULT:      -8.0      2.925     10.951
REMARK  Name = 
REMARK  10 active torsions:
REMARK  status: ('A' for Active; 'I' for Inactive)
REMARK    1  A    between atoms: C_1  and  O_2
REMARK    2  A    between atoms: O_2  and  C_3
REMARK    3  A    between atoms: C_6  and  C_7
REMARK    4  A    between atoms: C_7  and  C_8
REMARK    5  A    between atoms: C_7  and  N_9
REMARK    6  A    between atoms: C_10  and  C_12
REMARK    7  A    between atoms: C_19  and  C_20
REMARK    8  A    between atoms: N_26  and  C_27
REMARK    9  A    between atoms: C_34  and  O_35
REMARK   10  A    between atoms: O_35  and  C_36
REMARK                            x       y       z     vdW  Elec       q    Type
REMARK                         _______ _______ _______ _____ _____    ______ ____
ROOT
ATOM      1  C   UNL     1       1.543   8.824  20.145  0.00  0.00    +0.000 A 
ATOM      2  C   UNL     1       1.765   9.778  19.147  0.00  0.00    +0.000 A 
ATOM      3  C   UNL     1       1.377  11.116  19.332  0.00  0.00    +0.000 A 
ATOM      4  C   UNL     1       0.677  11.429  20.516  0.00  0.00    +0.000 A 
ATOM      5  C   UNL     1       0.562  10.519  21.545  0.00  0.00    +0.000 A 
ATOM      6  C   UNL     1       1.000   9.192  21.378  0.00  0.00    +0.000 A 
ATOM      7  N   UNL     1      -0.073  11.062  22.602  0.00  0.00    +0.000 NA
ATOM      8  C   UNL     1      -0.582  12.236  22.229  0.00  0.00    +0.000 A 
ATOM      9  N   UNL     1      -0.162  12.502  20.893  0.00  0.00    +0.000 N 
ENDROOT
BRANCH   8  10
ATOM     10  C   UNL     1      -1.618  12.823  23.145  0.00  0.00    +0.000 A 
ATOM     11  C   UNL     1      -2.751  12.030  23.421  0.00  0.00    +0.000 A 
ATOM     12  C   UNL     1      -3.835  12.555  24.140  0.00  0.00    +0.000 A 
ATOM     13  C   UNL     1      -3.760  13.846  24.601  0.00  0.00    +0.000 A 
ATOM     14  C   UNL     1      -2.567  14.545  24.373  0.00  0.00    +0.000 A 
ATOM     15  N   UNL     1      -1.490  14.063  23.676  0.00  0.00    +0.000 NA
ENDBRANCH   8  10
BRANCH   9  16
ATOM     16  C   UNL     1      -0.641  13.390  19.814  0.00  0.00    +0.000 C 
ATOM     17  C   UNL     1      -1.173  12.635  18.549  0.00  0.00    +0.000 C 
ATOM     18  C   UNL     1      -2.219  11.619  18.955  0.00  0.00    +0.000 C 
ATOM     19  C   UNL     1      -3.222  12.201  19.945  0.00  0.00    +0.000 C 
ATOM     20  C   UNL     1      -3.080  13.666  20.373  0.00  0.00    +0.000 C 
ATOM     21  C   UNL     1      -1.756  14.376  20.114  0.00  0.00    +0.000 C 
ENDBRANCH   9  16
BRANCH   1  23
ATOM     22  N   UNL     1       2.608   7.025  18.881  0.00  0.00    +0.000 N 
ATOM     23  C   UNL     1       1.826   7.381  19.964  0.00  0.00    +0.000 C 
ATOM     24  O   UNL     1       1.320   6.562  20.723  0.00  0.00    +0.000 OA
ATOM     25  H   UNL     1       2.879   7.716  18.195  0.00  0.00    +0.000 HD
BRANCH  22  26
ATOM     26  C   UNL     1       2.865   5.619  18.602  0.00  0.00    +0.000 C 
ATOM     27  C   UNL     1       3.078   4.834  19.898  0.00  0.00    +0.000 C 
BRANCH  26  31
ATOM     28  C   UNL     1       6.278   4.993  15.975  0.00  0.00    +0.000 A 
ATOM     29  C   UNL     1       5.330   3.982  16.192  0.00  0.00    +0.000 A 
ATOM     30  C   UNL     1       4.213   4.204  17.002  0.00  0.00    +0.000 A 
ATOM     31  C   UNL     1       4.036   5.427  17.656  0.00  0.00    +0.000 A 
ATOM     32  C   UNL     1       5.006   6.422  17.465  0.00  0.00    +0.000 A 
ATOM     33  C   UNL     1       6.129   6.218  16.643  0.00  0.00    +0.000 A 
BRANCH  28  35
ATOM     34  C   UNL     1       7.097   4.706  13.761  0.00  0.00    +0.000 C 
ATOM     35  O   UNL     1       7.360   4.797  15.159  0.00  0.00    +0.000 OA
ENDBRANCH  28  35
BRANCH  33  36
ATOM     36  O   UNL     1       6.945   7.319  16.613  0.00  0.00    +0.000 OA
ATOM     37  C   UNL     1       7.716   7.641  17.761  0.00  0.00    +0.000 C 
ENDBRANCH  33  36
ENDBRANCH  26  31
ENDBRANCH  22  26
ENDBRANCH   1  23
TORSDOF 7
ENDMDL
MODEL 9
REMARK VINA RESULT:      -7.8      2.014      3.055
REMARK  Name = 
REMARK  10 active torsions:
REMARK  status: ('A' for Active; 'I' for Inactive)
REMARK    1  A    between atoms: C_1  and  O_2
REMARK    2  A    between atoms: O_2  and  C_3
REMARK    3  A    between atoms: C_6  and  C_7
REMARK    4  A    between atoms: C_7  and  C_8
REMARK    5  A    between atoms: C_7  and  N_9
REMARK    6  A    between atoms: C_10  and  C_12
REMARK    7  A    between atoms: C_19  and  C_20
REMARK    8  A    between atoms: N_26  and  C_27
REMARK    9  A    between atoms: C_34  and  O_35
REMARK   10  A    between atoms: O_35  and  C_36
REMARK                            x       y       z     vdW  Elec       q    Type
REMARK                         _______ _______ _______ _____ _____    ______ ____
ROOT
ATOM      1  C   UNL     1       1.170   8.035  20.272  0.00  0.00    +0.000 A 
ATOM      2  C   UNL     1       0.696   6.868  20.879  0.00  0.00    +0.000 A 
ATOM      3  C   UNL     1       1.335   5.635  20.666  0.00  0.00    +0.000 A 
ATOM      4  C   UNL     1       2.406   5.612  19.748  0.00  0.00    +0.000 A 
ATOM      5  C   UNL     1       2.944   6.776  19.242  0.00  0.00    +0.000 A 
ATOM      6  C   UNL     1       2.334   8.018  19.501  0.00  0.00    +0.000 A 
ATOM      7  N   UNL     1       4.005   6.516  18.453  0.00  0.00    +0.000 NA
ATOM      8  C   UNL     1       4.056   5.201  18.238  0.00  0.00    +0.000 A 
ATOM      9  N   UNL     1       3.034   4.580  19.014  0.00  0.00    +0.000 N 
ENDROOT
BRANCH   8  10
ATOM     10  C   UNL     1       4.939   4.755  17.108  0.00  0.00    +0.000 A 
ATOM     11  C   UNL     1       6.328   4.750  17.345  0.00  0.00    +0.000 A 
ATOM     12  C   UNL     1       7.233   4.495  16.304  0.00  0.00    +0.000 A 
ATOM     13  C   UNL     1       6.740   4.218  15.053  0.00  0.00    +0.000 A 
ATOM     14  C   UNL     1       5.349   4.145  14.909  0.00  0.00    +0.000 A 
ATOM     15  N   UNL     1       4.437   4.387  15.904  0.00  0.00    +0.000 NA
ENDBRANCH   8  10
BRANCH   9  16
ATOM     16  C   UNL     1       2.340   3.278  18.961  0.00  0.00    +0.000 C 
ATOM     17  C   UNL     1       3.269   2.066  18.615  0.00  0.00    +0.000 C 
ATOM     18  C   UNL     1       4.455   2.039  19.556  0.00  0.00    +0.000 C 
ATOM     19  C   UNL     1       4.035   2.259  21.006  0.00  0.00    +0.000 C 
ATOM     20  C   UNL     1       2.549   2.447  21.329  0.00  0.00    +0.000 C 
ATOM     21  C   UNL     1       1.594   2.793  20.191  0.00  0.00    +0.000 C 
ENDBRANCH   9  16
BRANCH   1  23
ATOM     22  N   UNL     1       0.786  10.292  19.417  0.00  0.00    +0.000 N 
ATOM     23  C   UNL     1       0.474   9.340  20.369  0.00  0.00    +0.000 C 
ATOM     24  O   UNL     1      -0.291   9.552  21.304  0.00  0.00    +0.000 OA
ATOM     25  H   UNL     1       1.532  10.130  18.755  0.00  0.00    +0.000 HD
BRANCH  22  26
ATOM     26  C   UNL     1       0.193  11.620  19.497  0.00  0.00    +0.000 C 
ATOM     27  C   UNL     1       0.328  12.195  20.909  0.00  0.00    +0.000 C 
BRANCH  26  31
ATOM     28  C   UNL     1      -3.993  11.568  18.304  0.00  0.00    +0.000 A 
ATOM     29  C   UNL     1      -3.565  12.281  19.434  0.00  0.00    +0.000 A 
ATOM     30  C   UNL     1      -2.213  12.330  19.787  0.00  0.00    +0.000 A 
ATOM     31  C   UNL     1      -1.256  11.628  19.047  0.00  0.00    +0.000 A 
ATOM     32  C   UNL     1      -1.694  10.886  17.940  0.00  0.00    +0.000 A 
ATOM     33  C   UNL     1      -3.049  10.838  17.566  0.00  0.00    +0.000 A 
BRANCH  28  35
ATOM     34  C   UNL     1      -6.167  10.680  18.680  0.00  0.00    +0.000 C 
ATOM     35  O   UNL     1      -5.310  11.539  17.932  0.00  0.00    +0.000 OA
ENDBRANCH  28  35
BRANCH  33  36
ATOM     36  O   UNL     1      -3.245  10.045  16.464  0.00  0.00    +0.000 OA
ATOM     37  C   UNL     1      -3.023  10.588  15.172  0.00  0.00    +0.000 C 
ENDBRANCH  33  36
ENDBRANCH  26  31
ENDBRANCH  22  26
ENDBRANCH   1  23
TORSDOF 7
ENDMDL
