MODEL 1
REMARK VINA RESULT:      -9.3      0.000      0.000
REMARK  Name = 
REMARK  4 active torsions:
REMARK  status: ('A' for Active; 'I' for Inactive)
REMARK    1  A    between atoms: C_5  and  O_6
REMARK    2  A    between atoms: O_6  and  C_7
REMARK    3  A    between atoms: C_7  and  C_8
REMARK    4  A    between atoms: N_12  and  C_13
REMARK                            x       y       z     vdW  Elec       q    Type
REMARK                         _______ _______ _______ _____ _____    ______ ____
ROOT
ATOM      1  C   UNL     1       3.418   4.028  19.734  0.00  0.00    +0.000 C 
ATOM      2  C   UNL     1       2.920   2.625  20.095  0.00  0.00    +0.000 C 
ATOM      3  C   UNL     1       2.717   1.938  18.753  0.00  0.00    +0.000 C 
ATOM      4  C   UNL     1       3.772   2.563  17.838  0.00  0.00    +0.000 C 
ATOM      5  N   UNL     1       4.182   3.784  18.517  0.00  0.00    +0.000 N 
ENDROOT
BRANCH   5   6
ATOM      6  C   UNL     1       5.347   4.449  18.226  0.00  0.00    +0.000 A 
ATOM      7  N   UNL     1       6.134   4.906  19.248  0.00  0.00    +0.000 NA
ATOM      8  C   UNL     1       7.291   5.545  18.963  0.00  0.00    +0.000 A 
ATOM      9  N   UNL     1       7.824   5.813  17.755  0.00  0.00    +0.000 NA
ATOM     10  C   UNL     1       7.024   5.356  16.783  0.00  0.00    +0.000 A 
ATOM     11  N   UNL     1       7.248   5.444  15.439  0.00  0.00    +0.000 N 
ATOM     12  C   UNL     1       6.196   4.849  14.802  0.00  0.00    +0.000 A 
ATOM     13  N   UNL     1       5.309   4.389  15.656  0.00  0.00    +0.000 NA
ATOM     14  C   UNL     1       5.814   4.696  16.911  0.00  0.00    +0.000 A 
ATOM     15  H   UNL     1       8.055   5.871  15.010  0.00  0.00    +0.000 HD
ENDBRANCH   5   6
BRANCH   1  16
ATOM     16  C   UNL     1       2.283   5.040  19.488  0.00  0.00    +0.000 C 
BRANCH  16  17
ATOM     17  O   UNL     1       2.429   6.227  20.255  0.00  0.00    +0.000 OA
BRANCH  17  22
ATOM     18  C   UNL     1      -0.194  10.708  21.458  0.00  0.00    +0.000 A 
ATOM     19  C   UNL     1       0.091   9.621  22.260  0.00  0.00    +0.000 A 
ATOM     20  C   UNL     1       0.822   8.550  21.743  0.00  0.00    +0.000 A 
ATOM     21  C   UNL     1       1.301   8.502  20.398  0.00  0.00    +0.000 A 
ATOM     22  C   UNL     1       2.037   7.448  19.765  0.00  0.00    +0.000 A 
ATOM     23  C   UNL     1       2.449   7.580  18.424  0.00  0.00    +0.000 A 
ATOM     24  C   UNL     1       2.148   8.714  17.684  0.00  0.00    +0.000 A 
ATOM     25  C   UNL     1       1.419   9.737  18.275  0.00  0.00    +0.000 A 
ATOM     26  C   UNL     1       0.997   9.648  19.609  0.00  0.00    +0.000 A 
ATOM     27  C   UNL     1       0.262  10.720  20.144  0.00  0.00    +0.000 A 
ENDBRANCH  17  22
ENDBRANCH  16  17
ENDBRANCH   1  16
TORSDOF 4
ENDMDL
MODEL 2
REMARK VINA RESULT:      -9.1      0.531      1.802
REMARK  Name = 
REMARK  4 active torsions:
REMARK  status: ('A' for Active; 'I' for Inactive)
REMARK    1  A    between atoms: C_5  and  O_6
REMARK    2  A    between atoms: O_6  and  C_7
REMARK    3  A    between atoms: C_7  and  C_8
REMARK    4  A    between atoms: N_12  and  C_13
REMARK                            x       y       z     vdW  Elec       q    Type
REMARK                         _______ _______ _______ _____ _____    ______ ____
ROOT
ATOM      1  C   UNL     1       3.610   3.998  19.532  0.00  0.00    +0.000 C 
ATOM      2  C   UNL     1       3.333   2.581  20.047  0.00  0.00    +0.000 C 
ATOM      3  C   UNL     1       2.848   1.821  18.821  0.00  0.00    +0.000 C 
ATOM      4  C   UNL     1       3.581   2.475  17.649  0.00  0.00    +0.000 C 
ATOM      5  N   UNL     1       4.053   3.752  18.166  0.00  0.00    +0.000 N 
ENDROOT
BRANCH   5   6
ATOM      6  C   UNL     1       5.048   4.482  17.566  0.00  0.00    +0.000 A 
ATOM      7  N   UNL     1       4.999   4.704  16.216  0.00  0.00    +0.000 NA
ATOM      8  C   UNL     1       5.968   5.439  15.626  0.00  0.00    +0.000 A 
ATOM      9  N   UNL     1       7.037   6.027  16.197  0.00  0.00    +0.000 NA
ATOM     10  C   UNL     1       7.054   5.784  17.514  0.00  0.00    +0.000 A 
ATOM     11  N   UNL     1       7.984   6.226  18.409  0.00  0.00    +0.000 N 
ATOM     12  C   UNL     1       7.627   5.763  19.643  0.00  0.00    +0.000 A 
ATOM     13  N   UNL     1       6.527   5.044  19.593  0.00  0.00    +0.000 NA
ATOM     14  C   UNL     1       6.148   5.048  18.258  0.00  0.00    +0.000 A 
ATOM     15  H   UNL     1       8.783   6.798  18.184  0.00  0.00    +0.000 HD
ENDBRANCH   5   6
BRANCH   1  16
ATOM     16  C   UNL     1       2.373   4.915  19.563  0.00  0.00    +0.000 C 
BRANCH  16  17
ATOM     17  O   UNL     1       2.616   6.144  20.234  0.00  0.00    +0.000 OA
BRANCH  17  22
ATOM     18  C   UNL     1      -0.194  10.535  21.342  0.00  0.00    +0.000 A 
ATOM     19  C   UNL     1       0.129   9.474  22.164  0.00  0.00    +0.000 A 
ATOM     20  C   UNL     1       0.907   8.424  21.671  0.00  0.00    +0.000 A 
ATOM     21  C   UNL     1       1.397   8.373  20.331  0.00  0.00    +0.000 A 
ATOM     22  C   UNL     1       2.179   7.338  19.721  0.00  0.00    +0.000 A 
ATOM     23  C   UNL     1       2.594   7.464  18.380  0.00  0.00    +0.000 A 
ATOM     24  C   UNL     1       2.252   8.572  17.618  0.00  0.00    +0.000 A 
ATOM     25  C   UNL     1       1.478   9.574  18.186  0.00  0.00    +0.000 A 
ATOM     26  C   UNL     1       1.052   9.492  19.519  0.00  0.00    +0.000 A 
ATOM     27  C   UNL     1       0.270  10.542  20.031  0.00  0.00    +0.000 A 
ENDBRANCH  17  22
ENDBRANCH  16  17
ENDBRANCH   1  16
TORSDOF 4
ENDMDL
MODEL 3
REMARK VINA RESULT:      -9.0      1.131      2.195
REMARK  Name = 
REMARK  4 active torsions:
REMARK  status: ('A' for Active; 'I' for Inactive)
REMARK    1  A    between atoms: C_5  and  O_6
REMARK    2  A    between atoms: O_6  and  C_7
REMARK    3  A    between atoms: C_7  and  C_8
REMARK    4  A    between atoms: N_12  and  C_13
REMARK                            x       y       z     vdW  Elec       q    Type
REMARK                         _______ _______ _______ _____ _____    ______ ____
ROOT
ATOM      1  C   UNL     1       3.190   5.194  19.049  0.00  0.00    +0.000 C 
ATOM      2  C   UNL     1       2.105   4.262  19.599  0.00  0.00    +0.000 C 
ATOM      3  C   UNL     1       1.466   3.651  18.360  0.00  0.00    +0.000 C 
ATOM      4  C   UNL     1       2.601   3.586  17.336  0.00  0.00    +0.000 C 
ATOM      5  N   UNL     1       3.619   4.496  17.844  0.00  0.00    +0.000 N 
ENDROOT
BRANCH   5   6
ATOM      6  C   UNL     1       4.927   4.465  17.429  0.00  0.00    +0.000 A 
ATOM      7  N   UNL     1       5.215   4.099  16.142  0.00  0.00    +0.000 NA
ATOM      8  C   UNL     1       6.502   4.086  15.727  0.00  0.00    +0.000 A 
ATOM      9  N   UNL     1       7.610   4.402  16.424  0.00  0.00    +0.000 NA
ATOM     10  C   UNL     1       7.288   4.749  17.677  0.00  0.00    +0.000 A 
ATOM     11  N   UNL     1       8.153   5.135  18.659  0.00  0.00    +0.000 N 
ATOM     12  C   UNL     1       7.416   5.409  19.777  0.00  0.00    +0.000 A 
ATOM     13  N   UNL     1       6.132   5.216  19.572  0.00  0.00    +0.000 NA
ATOM     14  C   UNL     1       6.030   4.803  18.252  0.00  0.00    +0.000 A 
ATOM     15  H   UNL     1       9.154   5.206  18.560  0.00  0.00    +0.000 HD
ENDBRANCH   5   6
BRANCH   1  16
ATOM     16  C   UNL     1       2.678   6.610  18.724  0.00  0.00    +0.000 C 
BRANCH  16  17
ATOM     17  O   UNL     1       2.341   7.353  19.887  0.00  0.00    +0.000 OA
BRANCH  17  22
ATOM     18  C   UNL     1      -0.746  10.640  22.728  0.00  0.00    +0.000 A 
ATOM     19  C   UNL     1      -0.004   9.556  23.151  0.00  0.00    +0.000 A 
ATOM     20  C   UNL     1       0.764   8.839  22.231  0.00  0.00    +0.000 A 
ATOM     21  C   UNL     1       0.826   9.159  20.841  0.00  0.00    +0.000 A 
ATOM     22  C   UNL     1       1.561   8.479  19.815  0.00  0.00    +0.000 A 
ATOM     23  C   UNL     1       1.521   8.951  18.488  0.00  0.00    +0.000 A 
ATOM     24  C   UNL     1       0.772  10.064  18.137  0.00  0.00    +0.000 A 
ATOM     25  C   UNL     1       0.038  10.723  19.115  0.00  0.00    +0.000 A 
ATOM     26  C   UNL     1       0.057  10.291  20.449  0.00  0.00    +0.000 A 
ATOM     27  C   UNL     1      -0.710  11.006  21.386  0.00  0.00    +0.000 A 
ENDBRANCH  17  22
ENDBRANCH  16  17
ENDBRANCH   1  16
TORSDOF 4
ENDMDL
MODEL 4
REMARK VINA RESULT:      -8.9      1.077      1.461
REMARK  Name = 
REMARK  4 active torsions:
REMARK  status: ('A' for Active; 'I' for Inactive)
REMARK    1  A    between atoms: C_5  and  O_6
REMARK    2  A    between atoms: O_6  and  C_7
REMARK    3  A    between atoms: C_7  and  C_8
REMARK    4  A    between atoms: N_12  and  C_13
REMARK                            x       y       z     vdW  Elec       q    Type
REMARK                         _______ _______ _______ _____ _____    ______ ____
ROOT
ATOM      1  C   UNL     1       2.857   5.407  19.183  0.00  0.00    +0.000 C 
ATOM      2  C   UNL     1       1.798   4.351  19.518  0.00  0.00    +0.000 C 
ATOM      3  C   UNL     1       1.500   3.677  18.187  0.00  0.00    +0.000 C 
ATOM      4  C   UNL     1       2.820   3.751  17.416  0.00  0.00    +0.000 C 
ATOM      5  N   UNL     1       3.600   4.771  18.103  0.00  0.00    +0.000 N 
ENDROOT
BRANCH   5   6
ATOM      6  C   UNL     1       4.960   4.896  17.963  0.00  0.00    +0.000 A 
ATOM      7  N   UNL     1       5.727   5.166  19.063  0.00  0.00    +0.000 NA
ATOM      8  C   UNL     1       7.069   5.271  18.930  0.00  0.00    +0.000 A 
ATOM      9  N   UNL     1       7.812   5.137  17.815  0.00  0.00    +0.000 NA
ATOM     10  C   UNL     1       7.027   4.880  16.761  0.00  0.00    +0.000 A 
ATOM     11  N   UNL     1       7.436   4.679  15.474  0.00  0.00    +0.000 N 
ATOM     12  C   UNL     1       6.324   4.439  14.718  0.00  0.00    +0.000 A 
ATOM     13  N   UNL     1       5.227   4.479  15.440  0.00  0.00    +0.000 NA
ATOM     14  C   UNL     1       5.649   4.752  16.733  0.00  0.00    +0.000 A 
ATOM     15  H   UNL     1       8.393   4.702  15.157  0.00  0.00    +0.000 HD
ENDBRANCH   5   6
BRANCH   1  16
ATOM     16  C   UNL     1       2.262   6.755  18.735  0.00  0.00    +0.000 C 
BRANCH  16  17
ATOM     17  O   UNL     1       2.302   7.741  19.757  0.00  0.00    +0.000 OA
BRANCH  17  22
ATOM     18  C   UNL     1      -0.877  10.571  22.965  0.00  0.00    +0.000 A 
ATOM     19  C   UNL     1       0.015   9.567  23.284  0.00  0.00    +0.000 A 
ATOM     20  C   UNL     1       0.776   8.968  22.278  0.00  0.00    +0.000 A 
ATOM     21  C   UNL     1       0.684   9.334  20.901  0.00  0.00    +0.000 A 
ATOM     22  C   UNL     1       1.399   8.773  19.793  0.00  0.00    +0.000 A 
ATOM     23  C   UNL     1       1.194   9.275  18.492  0.00  0.00    +0.000 A 
ATOM     24  C   UNL     1       0.298  10.305  18.247  0.00  0.00    +0.000 A 
ATOM     25  C   UNL     1      -0.418  10.848  19.306  0.00  0.00    +0.000 A 
ATOM     26  C   UNL     1      -0.238  10.382  20.616  0.00  0.00    +0.000 A 
ATOM     27  C   UNL     1      -0.996  10.977  21.640  0.00  0.00    +0.000 A 
ENDBRANCH  17  22
ENDBRANCH  16  17
ENDBRANCH   1  16
TORSDOF 4
ENDMDL
MODEL 5
REMARK VINA RESULT:      -8.8      0.910      2.005
REMARK  Name = 
REMARK  4 active torsions:
REMARK  status: ('A' for Active; 'I' for Inactive)
REMARK    1  A    between atoms: C_5  and  O_6
REMARK    2  A    between atoms: O_6  and  C_7
REMARK    3  A    between atoms: C_7  and  C_8
REMARK    4  A    between atoms: N_12  and  C_13
REMARK                            x       y       z     vdW  Elec       q    Type
REMARK                         _______ _______ _______ _____ _____    ______ ____
ROOT
ATOM      1  C   UNL     1       3.082   4.570  20.121  0.00  0.00    +0.000 C 
ATOM      2  C   UNL     1       2.583   3.520  21.118  0.00  0.00    +0.000 C 
ATOM      3  C   UNL     1       1.853   2.498  20.258  0.00  0.00    +0.000 C 
ATOM      4  C   UNL     1       2.593   2.525  18.919  0.00  0.00    +0.000 C 
ATOM      5  N   UNL     1       3.347   3.770  18.932  0.00  0.00    +0.000 N 
ENDROOT
BRANCH   5   6
ATOM      6  C   UNL     1       4.408   4.013  18.095  0.00  0.00    +0.000 A 
ATOM      7  N   UNL     1       4.308   3.686  16.770  0.00  0.00    +0.000 NA
ATOM      8  C   UNL     1       5.345   3.941  15.941  0.00  0.00    +0.000 A 
ATOM      9  N   UNL     1       6.531   4.507  16.234  0.00  0.00    +0.000 NA
ATOM     10  C   UNL     1       6.594   4.807  17.537  0.00  0.00    +0.000 A 
ATOM     11  N   UNL     1       7.640   5.396  18.185  0.00  0.00    +0.000 N 
ATOM     12  C   UNL     1       7.293   5.532  19.499  0.00  0.00    +0.000 A 
ATOM     13  N   UNL     1       6.089   5.061  19.735  0.00  0.00    +0.000 NA
ATOM     14  C   UNL     1       5.629   4.602  18.509  0.00  0.00    +0.000 A 
ATOM     15  H   UNL     1       8.507   5.679  17.754  0.00  0.00    +0.000 HD
ENDBRANCH   5   6
BRANCH   1  16
ATOM     16  C   UNL     1       2.054   5.680  19.830  0.00  0.00    +0.000 C 
BRANCH  16  17
ATOM     17  O   UNL     1       2.626   6.981  19.860  0.00  0.00    +0.000 OA
BRANCH  17  22
ATOM     18  C   UNL     1      -0.500  10.571  22.257  0.00  0.00    +0.000 A 
ATOM     19  C   UNL     1       0.214   9.528  22.810  0.00  0.00    +0.000 A 
ATOM     20  C   UNL     1       0.999   8.713  21.992  0.00  0.00    +0.000 A 
ATOM     21  C   UNL     1       1.108   8.890  20.579  0.00  0.00    +0.000 A 
ATOM     22  C   UNL     1       1.864   8.102  19.651  0.00  0.00    +0.000 A 
ATOM     23  C   UNL     1       1.871   8.437  18.282  0.00  0.00    +0.000 A 
ATOM     24  C   UNL     1       1.147   9.517  17.798  0.00  0.00    +0.000 A 
ATOM     25  C   UNL     1       0.393  10.280  18.680  0.00  0.00    +0.000 A 
ATOM     26  C   UNL     1       0.366   9.985  20.051  0.00  0.00    +0.000 A 
ATOM     27  C   UNL     1      -0.419  10.798  20.887  0.00  0.00    +0.000 A 
ENDBRANCH  17  22
ENDBRANCH  16  17
ENDBRANCH   1  16
TORSDOF 4
ENDMDL
MODEL 6
REMARK VINA RESULT:      -8.6      1.257      2.148
REMARK  Name = 
REMARK  4 active torsions:
REMARK  status: ('A' for Active; 'I' for Inactive)
REMARK    1  A    between atoms: C_5  and  O_6
REMARK    2  A    between atoms: O_6  and  C_7
REMARK    3  A    between atoms: C_7  and  C_8
REMARK    4  A    between atoms: N_12  and  C_13
REMARK                            x       y       z     vdW  Elec       q    Type
REMARK                         _______ _______ _______ _____ _____    ______ ____
ROOT
ATOM      1  C   UNL     1       3.144   5.055  19.996  0.00  0.00    +0.000 C 
ATOM      2  C   UNL     1       2.762   3.677  20.546  0.00  0.00    +0.000 C 
ATOM      3  C   UNL     1       2.165   2.945  19.353  0.00  0.00    +0.000 C 
ATOM      4  C   UNL     1       2.908   3.515  18.142  0.00  0.00    +0.000 C 
ATOM      5  N   UNL     1       3.511   4.751  18.620  0.00  0.00    +0.000 N 
ENDROOT
BRANCH   5   6
ATOM      6  C   UNL     1       4.544   5.381  17.970  0.00  0.00    +0.000 A 
ATOM      7  N   UNL     1       4.332   5.910  16.726  0.00  0.00    +0.000 NA
ATOM      8  C   UNL     1       5.343   6.547  16.093  0.00  0.00    +0.000 A 
ATOM      9  N   UNL     1       6.601   6.759  16.526  0.00  0.00    +0.000 NA
ATOM     10  C   UNL     1       6.770   6.223  17.741  0.00  0.00    +0.000 A 
ATOM     11  N   UNL     1       7.912   6.251  18.488  0.00  0.00    +0.000 N 
ATOM     12  C   UNL     1       7.657   5.601  19.663  0.00  0.00    +0.000 A 
ATOM     13  N   UNL     1       6.422   5.152  19.711  0.00  0.00    +0.000 NA
ATOM     14  C   UNL     1       5.845   5.538  18.510  0.00  0.00    +0.000 A 
ATOM     15  H   UNL     1       8.779   6.684  18.211  0.00  0.00    +0.000 HD
ENDBRANCH   5   6
BRANCH   1  16
ATOM     16  C   UNL     1       1.995   6.081  20.056  0.00  0.00    +0.000 C 
BRANCH  16  17
ATOM     17  O   UNL     1       2.452   7.423  19.970  0.00  0.00    +0.000 OA
BRANCH  17  22
ATOM     18  C   UNL     1      -0.829  10.605  22.712  0.00  0.00    +0.000 A 
ATOM     19  C   UNL     1       0.018   9.617  23.174  0.00  0.00    +0.000 A 
ATOM     20  C   UNL     1       0.819   8.912  22.273  0.00  0.00    +0.000 A 
ATOM     21  C   UNL     1       0.813   9.149  20.865  0.00  0.00    +0.000 A 
ATOM     22  C   UNL     1       1.575   8.472  19.857  0.00  0.00    +0.000 A 
ATOM     23  C   UNL     1       1.455   8.854  18.506  0.00  0.00    +0.000 A 
ATOM     24  C   UNL     1       0.601   9.874  18.115  0.00  0.00    +0.000 A 
ATOM     25  C   UNL     1      -0.159  10.528  19.076  0.00  0.00    +0.000 A 
ATOM     26  C   UNL     1      -0.064  10.184  20.432  0.00  0.00    +0.000 A 
ATOM     27  C   UNL     1      -0.863  10.887  21.350  0.00  0.00    +0.000 A 
ENDBRANCH  17  22
ENDBRANCH  16  17
ENDBRANCH   1  16
TORSDOF 4
ENDMDL
MODEL 7
REMARK VINA RESULT:      -8.6      1.219      1.784
REMARK  Name = 
REMARK  4 active torsions:
REMARK  status: ('A' for Active; 'I' for Inactive)
REMARK    1  A    between atoms: C_5  and  O_6
REMARK    2  A    between atoms: O_6  and  C_7
REMARK    3  A    between atoms: C_7  and  C_8
REMARK    4  A    between atoms: N_12  and  C_13
REMARK                            x       y       z     vdW  Elec       q    Type
REMARK                         _______ _______ _______ _____ _____    ______ ____
ROOT
ATOM      1  C   UNL     1       3.240   6.310  19.325  0.00  0.00    +0.000 C 
ATOM      2  C   UNL     1       2.087   5.639  20.079  0.00  0.00    +0.000 C 
ATOM      3  C   UNL     1       1.713   4.444  19.214  0.00  0.00    +0.000 C 
ATOM      4  C   UNL     1       3.026   4.025  18.551  0.00  0.00    +0.000 C 
ATOM      5  N   UNL     1       3.908   5.174  18.703  0.00  0.00    +0.000 N 
ENDROOT
BRANCH   5   6
ATOM      6  C   UNL     1       5.272   5.095  18.572  0.00  0.00    +0.000 A 
ATOM      7  N   UNL     1       6.065   5.275  19.673  0.00  0.00    +0.000 NA
ATOM      8  C   UNL     1       7.408   5.179  19.549  0.00  0.00    +0.000 A 
ATOM      9  N   UNL     1       8.130   4.912  18.443  0.00  0.00    +0.000 NA
ATOM     10  C   UNL     1       7.321   4.748  17.389  0.00  0.00    +0.000 A 
ATOM     11  N   UNL     1       7.703   4.460  16.111  0.00  0.00    +0.000 N 
ATOM     12  C   UNL     1       6.572   4.367  15.350  0.00  0.00    +0.000 A 
ATOM     13  N   UNL     1       5.489   4.585  16.061  0.00  0.00    +0.000 NA
ATOM     14  C   UNL     1       5.939   4.823  17.351  0.00  0.00    +0.000 A 
ATOM     15  H   UNL     1       8.654   4.334  15.801  0.00  0.00    +0.000 HD
ENDBRANCH   5   6
BRANCH   1  16
ATOM     16  C   UNL     1       2.774   7.331  18.270  0.00  0.00    +0.000 C 
BRANCH  16  17
ATOM     17  O   UNL     1       1.474   7.839  18.534  0.00  0.00    +0.000 OA
BRANCH  17  22
ATOM     18  C   UNL     1      -0.503  10.456  22.736  0.00  0.00    +0.000 A 
ATOM     19  C   UNL     1      -0.417   9.096  22.515  0.00  0.00    +0.000 A 
ATOM     20  C   UNL     1       0.168   8.618  21.341  0.00  0.00    +0.000 A 
ATOM     21  C   UNL     1       0.692   9.470  20.321  0.00  0.00    +0.000 A 
ATOM     22  C   UNL     1       1.289   9.086  19.077  0.00  0.00    +0.000 A 
ATOM     23  C   UNL     1       1.773  10.070  18.192  0.00  0.00    +0.000 A 
ATOM     24  C   UNL     1       1.676  11.422  18.490  0.00  0.00    +0.000 A 
ATOM     25  C   UNL     1       1.082  11.813  19.682  0.00  0.00    +0.000 A 
ATOM     26  C   UNL     1       0.596  10.865  20.594  0.00  0.00    +0.000 A 
ATOM     27  C   UNL     1       0.006  11.331  21.782  0.00  0.00    +0.000 A 
ENDBRANCH  17  22
ENDBRANCH  16  17
ENDBRANCH   1  16
TORSDOF 4
ENDMDL
MODEL 8
REMARK VINA RESULT:      -8.4      4.538      7.922
REMARK  Name = 
REMARK  4 active torsions:
REMARK  status: ('A' for Active; 'I' for Inactive)
REMARK    1  A    between atoms: C_5  and  O_6
REMARK    2  A    between atoms: O_6  and  C_7
REMARK    3  A    between atoms: C_7  and  C_8
REMARK    4  A    between atoms: N_12  and  C_13
REMARK                            x       y       z     vdW  Elec       q    Type
REMARK                         _______ _______ _______ _____ _____    ______ ____
ROOT
ATOM      1  C   UNL     1       0.111   9.151  20.741  0.00  0.00    +0.000 C 
ATOM      2  C   UNL     1      -0.661   8.495  21.891  0.00  0.00    +0.000 C 
ATOM      3  C   UNL     1      -0.385   9.388  23.092  0.00  0.00    +0.000 C 
ATOM      4  C   UNL     1      -0.213  10.787  22.498  0.00  0.00    +0.000 C 
ATOM      5  N   UNL     1       0.029  10.566  21.078  0.00  0.00    +0.000 N 
ENDROOT
BRANCH   5   6
ATOM      6  C   UNL     1      -0.119  11.547  20.131  0.00  0.00    +0.000 A 
ATOM      7  N   UNL     1       0.578  12.718  20.260  0.00  0.00    +0.000 NA
ATOM      8  C   UNL     1       0.447  13.679  19.318  0.00  0.00    +0.000 A 
ATOM      9  N   UNL     1      -0.304  13.658  18.200  0.00  0.00    +0.000 NA
ATOM     10  C   UNL     1      -0.974  12.502  18.112  0.00  0.00    +0.000 A 
ATOM     11  N   UNL     1      -1.824  12.131  17.111  0.00  0.00    +0.000 N 
ATOM     12  C   UNL     1      -2.285  10.878  17.399  0.00  0.00    +0.000 A 
ATOM     13  N   UNL     1      -1.787  10.425  18.528  0.00  0.00    +0.000 NA
ATOM     14  C   UNL     1      -0.954  11.433  18.991  0.00  0.00    +0.000 A 
ATOM     15  H   UNL     1      -2.055  12.693  16.305  0.00  0.00    +0.000 HD
ENDBRANCH   5   6
BRANCH   1  16
ATOM     16  C   UNL     1       1.576   8.683  20.639  0.00  0.00    +0.000 C 
BRANCH  16  17
ATOM     17  O   UNL     1       1.727   7.292  20.883  0.00  0.00    +0.000 OA
BRANCH  17  22
ATOM     18  C   UNL     1       1.720   2.183  19.364  0.00  0.00    +0.000 A 
ATOM     19  C   UNL     1       1.141   2.765  20.474  0.00  0.00    +0.000 A 
ATOM     20  C   UNL     1       1.245   4.144  20.669  0.00  0.00    +0.000 A 
ATOM     21  C   UNL     1       1.937   5.014  19.773  0.00  0.00    +0.000 A 
ATOM     22  C   UNL     1       2.120   6.430  19.890  0.00  0.00    +0.000 A 
ATOM     23  C   UNL     1       2.821   7.137  18.892  0.00  0.00    +0.000 A 
ATOM     24  C   UNL     1       3.357   6.490  17.789  0.00  0.00    +0.000 A 
ATOM     25  C   UNL     1       3.206   5.115  17.669  0.00  0.00    +0.000 A 
ATOM     26  C   UNL     1       2.509   4.376  18.635  0.00  0.00    +0.000 A 
ATOM     27  C   UNL     1       2.395   2.987  18.451  0.00  0.00    +0.000 A 
ENDBRANCH  17  22
ENDBRANCH  16  17
ENDBRANCH   1  16
TORSDOF 4
ENDMDL
MODEL 9
REMARK VINA RESULT:      -8.3      1.897      3.930
REMARK  Name = 
REMARK  4 active torsions:
REMARK  status: ('A' for Active; 'I' for Inactive)
REMARK    1  A    between atoms: C_5  and  O_6
REMARK    2  A    between atoms: O_6  and  C_7
REMARK    3  A    between atoms: C_7  and  C_8
REMARK    4  A    between atoms: N_12  and  C_13
REMARK                            x       y       z     vdW  Elec       q    Type
REMARK                         _______ _______ _______ _____ _____    ______ ____
ROOT
ATOM      1  C   UNL     1       3.633   6.448  17.513  0.00  0.00    +0.000 C 
ATOM      2  C   UNL     1       4.878   6.457  16.620  0.00  0.00    +0.000 C 
ATOM      3  C   UNL     1       6.045   6.485  17.596  0.00  0.00    +0.000 C 
ATOM      4  C   UNL     1       5.537   5.724  18.823  0.00  0.00    +0.000 C 
ATOM      5  N   UNL     1       4.089   5.698  18.676  0.00  0.00    +0.000 N 
ENDROOT
BRANCH   5   6
ATOM      6  C   UNL     1       3.282   4.820  19.355  0.00  0.00    +0.000 A 
ATOM      7  N   UNL     1       2.846   5.142  20.612  0.00  0.00    +0.000 NA
ATOM      8  C   UNL     1       2.036   4.286  21.276  0.00  0.00    +0.000 A 
ATOM      9  N   UNL     1       1.558   3.096  20.864  0.00  0.00    +0.000 NA
ATOM     10  C   UNL     1       2.010   2.814  19.635  0.00  0.00    +0.000 A 
ATOM     11  N   UNL     1       1.727   1.698  18.903  0.00  0.00    +0.000 N 
ATOM     12  C   UNL     1       2.379   1.808  17.707  0.00  0.00    +0.000 A 
ATOM     13  N   UNL     1       3.068   2.925  17.631  0.00  0.00    +0.000 NA
ATOM     14  C   UNL     1       2.846   3.575  18.836  0.00  0.00    +0.000 A 
ATOM     15  H   UNL     1       1.135   0.939  19.203  0.00  0.00    +0.000 HD
ENDBRANCH   5   6
BRANCH   1  16
ATOM     16  C   UNL     1       3.151   7.857  17.910  0.00  0.00    +0.000 C 
BRANCH  16  17
ATOM     17  O   UNL     1       2.367   7.856  19.094  0.00  0.00    +0.000 OA
BRANCH  17  22
ATOM     18  C   UNL     1      -0.479  10.269  22.900  0.00  0.00    +0.000 A 
ATOM     19  C   UNL     1       0.505   9.309  23.022  0.00  0.00    +0.000 A 
ATOM     20  C   UNL     1       1.148   8.824  21.881  0.00  0.00    +0.000 A 
ATOM     21  C   UNL     1       0.840   9.266  20.559  0.00  0.00    +0.000 A 
ATOM     22  C   UNL     1       1.420   8.821  19.326  0.00  0.00    +0.000 A 
ATOM     23  C   UNL     1       1.003   9.387  18.105  0.00  0.00    +0.000 A 
ATOM     24  C   UNL     1       0.024  10.368  18.059  0.00  0.00    +0.000 A 
ATOM     25  C   UNL     1      -0.564  10.797  19.241  0.00  0.00    +0.000 A 
ATOM     26  C   UNL     1      -0.172  10.266  20.478  0.00  0.00    +0.000 A 
ATOM     27  C   UNL     1      -0.809  10.745  21.636  0.00  0.00    +0.000 A 
ENDBRANCH  17  22
ENDBRANCH  16  17
ENDBRANCH   1  16
TORSDOF 4
ENDMDL
