MODEL 1
REMARK VINA RESULT:      -7.4      0.000      0.000
REMARK  Name = 
REMARK  8 active torsions:
REMARK  status: ('A' for Active; 'I' for Inactive)
REMARK    1  A    between atoms: C_1  and  O_2
REMARK    2  A    between atoms: O_2  and  C_3
REMARK    3  A    between atoms: C_6  and  C_7
REMARK    4  A    between atoms: C_7  and  C_8
REMARK    5  A    between atoms: N_10  and  C_11
REMARK    6  A    between atoms: C_11  and  C_12
REMARK    7  A    between atoms: N_19  and  S_20
REMARK    8  A    between atoms: S_20  and  C_21
REMARK                            x       y       z     vdW  Elec       q    Type
REMARK                         _______ _______ _______ _____ _____    ______ ____
ROOT
ATOM      1  C   UNL     1       3.610   8.029  17.217  0.00  0.00    +0.000 C 
ENDROOT
BRANCH   1   2
ATOM      2  C   UNL     1       2.510   8.431  18.143  0.00  0.00    +0.000 A 
ATOM      3  C   UNL     1       1.609   9.507  17.939  0.00  0.00    +0.000 A 
ATOM      4  C   UNL     1       0.861   9.579  19.092  0.00  0.00    +0.000 A 
ATOM      5  N   UNL     1       1.303   8.561  19.884  0.00  0.00    +0.000 N 
ATOM      6  N   UNL     1       2.305   7.840  19.337  0.00  0.00    +0.000 NA
ATOM      7  C   UNL     1       0.904   8.347  21.261  0.00  0.00    +0.000 C 
ATOM      8  C   UNL     1      -0.291   9.208  21.659  0.00  0.00    +0.000 C 
ATOM      9  N   UNL     1      -0.282  10.515  20.982  0.00  0.00    +0.000 NA
ATOM     10  C   UNL     1      -0.202  10.517  19.522  0.00  0.00    +0.000 C 
BRANCH   9  11
ATOM     11  S   UNL     1      -0.335  11.949  21.834  0.00  0.00    +0.000 S 
ATOM     12  C   UNL     1      -1.727  12.746  21.065  0.00  0.00    +0.000 C 
ATOM     13  O   UNL     1      -0.680  11.666  23.208  0.00  0.00    +0.000 OA
ATOM     14  O   UNL     1       0.849  12.709  21.493  0.00  0.00    +0.000 OA
ENDBRANCH   9  11
ENDBRANCH   1   2
BRANCH   1  17
ATOM     15  C   UNL     1       4.822   6.071  16.449  0.00  0.00    +0.000 C 
ATOM     16  O   UNL     1       5.244   6.689  15.472  0.00  0.00    +0.000 OA
ATOM     17  N   UNL     1       3.972   6.640  17.372  0.00  0.00    +0.000 N 
ATOM     18  H   UNL     1       3.887   6.249  18.304  0.00  0.00    +0.000 HD
BRANCH  15  19
ATOM     19  C   UNL     1       5.189   4.622  16.700  0.00  0.00    +0.000 C 
BRANCH  19  23
ATOM     20  C   UNL     1       2.566   2.524  19.438  0.00  0.00    +0.000 A 
ATOM     21  C   UNL     1       3.832   2.951  19.835  0.00  0.00    +0.000 A 
ATOM     22  C   UNL     1       4.669   3.624  18.942  0.00  0.00    +0.000 A 
ATOM     23  C   UNL     1       4.263   3.860  17.621  0.00  0.00    +0.000 A 
ATOM     24  C   UNL     1       2.981   3.450  17.236  0.00  0.00    +0.000 A 
ATOM     25  C   UNL     1       2.142   2.776  18.134  0.00  0.00    +0.000 A 
BRANCH  20  27
ATOM     26  C   UNL     1       1.494   2.614  21.548  0.00  0.00    +0.000 C 
ATOM     27  O   UNL     1       1.853   1.859  20.397  0.00  0.00    +0.000 OA
ENDBRANCH  20  27
ENDBRANCH  19  23
ENDBRANCH  15  19
ENDBRANCH   1  17
TORSDOF 6
ENDMDL
MODEL 2
REMARK VINA RESULT:      -7.3      2.322      4.344
REMARK  Name = 
REMARK  8 active torsions:
REMARK  status: ('A' for Active; 'I' for Inactive)
REMARK    1  A    between atoms: C_1  and  O_2
REMARK    2  A    between atoms: O_2  and  C_3
REMARK    3  A    between atoms: C_6  and  C_7
REMARK    4  A    between atoms: C_7  and  C_8
REMARK    5  A    between atoms: N_10  and  C_11
REMARK    6  A    between atoms: C_11  and  C_12
REMARK    7  A    between atoms: N_19  and  S_20
REMARK    8  A    between atoms: S_20  and  C_21
REMARK                            x       y       z     vdW  Elec       q    Type
REMARK                         _______ _______ _______ _____ _____    ______ ____
ROOT
ATOM      1  C   UNL     1       1.868   5.714  20.842  0.00  0.00    +0.000 C 
ENDROOT
BRANCH   1   2
ATOM      2  C   UNL     1       1.627   7.151  20.512  0.00  0.00    +0.000 A 
ATOM      3  C   UNL     1       0.787   8.035  21.235  0.00  0.00    +0.000 A 
ATOM      4  C   UNL     1       0.775   9.202  20.506  0.00  0.00    +0.000 A 
ATOM      5  N   UNL     1       1.605   8.984  19.446  0.00  0.00    +0.000 N 
ATOM      6  N   UNL     1       2.142   7.747  19.418  0.00  0.00    +0.000 NA
ATOM      7  C   UNL     1       1.777   9.890  18.327  0.00  0.00    +0.000 C 
ATOM      8  C   UNL     1       1.156  11.260  18.588  0.00  0.00    +0.000 C 
ATOM      9  N   UNL     1      -0.059  11.168  19.414  0.00  0.00    +0.000 NA
ATOM     10  C   UNL     1       0.048  10.479  20.698  0.00  0.00    +0.000 C 
BRANCH   9  11
ATOM     11  S   UNL     1      -1.518  11.799  18.905  0.00  0.00    +0.000 S 
ATOM     12  C   UNL     1      -2.243  10.379  18.116  0.00  0.00    +0.000 C 
ATOM     13  O   UNL     1      -2.317  12.128  20.063  0.00  0.00    +0.000 OA
ATOM     14  O   UNL     1      -1.240  12.779  17.876  0.00  0.00    +0.000 OA
ENDBRANCH   9  11
ENDBRANCH   1   2
BRANCH   1  17
ATOM     15  C   UNL     1       2.962   4.245  19.248  0.00  0.00    +0.000 C 
ATOM     16  O   UNL     1       1.878   3.766  18.914  0.00  0.00    +0.000 OA
ATOM     17  N   UNL     1       3.072   5.207  20.227  0.00  0.00    +0.000 N 
ATOM     18  H   UNL     1       3.891   5.804  20.273  0.00  0.00    +0.000 HD
BRANCH  15  19
ATOM     19  C   UNL     1       4.266   3.792  18.622  0.00  0.00    +0.000 C 
BRANCH  19  23
ATOM     20  C   UNL     1       7.032   6.866  17.327  0.00  0.00    +0.000 A 
ATOM     21  C   UNL     1       7.380   5.954  18.322  0.00  0.00    +0.000 A 
ATOM     22  C   UNL     1       6.478   4.969  18.732  0.00  0.00    +0.000 A 
ATOM     23  C   UNL     1       5.195   4.895  18.170  0.00  0.00    +0.000 A 
ATOM     24  C   UNL     1       4.861   5.799  17.155  0.00  0.00    +0.000 A 
ATOM     25  C   UNL     1       5.768   6.786  16.744  0.00  0.00    +0.000 A 
BRANCH  20  27
ATOM     26  C   UNL     1       8.014   8.956  17.851  0.00  0.00    +0.000 C 
ATOM     27  O   UNL     1       7.992   7.793  17.031  0.00  0.00    +0.000 OA
ENDBRANCH  20  27
ENDBRANCH  19  23
ENDBRANCH  15  19
ENDBRANCH   1  17
TORSDOF 6
ENDMDL
MODEL 3
REMARK VINA RESULT:      -7.3      6.223      9.467
REMARK  Name = 
REMARK  8 active torsions:
REMARK  status: ('A' for Active; 'I' for Inactive)
REMARK    1  A    between atoms: C_1  and  O_2
REMARK    2  A    between atoms: O_2  and  C_3
REMARK    3  A    between atoms: C_6  and  C_7
REMARK    4  A    between atoms: C_7  and  C_8
REMARK    5  A    between atoms: N_10  and  C_11
REMARK    6  A    between atoms: C_11  and  C_12
REMARK    7  A    between atoms: N_19  and  S_20
REMARK    8  A    between atoms: S_20  and  C_21
REMARK                            x       y       z     vdW  Elec       q    Type
REMARK                         _______ _______ _______ _____ _____    ______ ____
ROOT
ATOM      1  C   UNL     1       7.507   7.823  17.048  0.00  0.00    +0.000 C 
ENDROOT
BRANCH   1   2
ATOM      2  C   UNL     1       6.647   6.643  17.359  0.00  0.00    +0.000 A 
ATOM      3  C   UNL     1       5.630   6.118  16.522  0.00  0.00    +0.000 A 
ATOM      4  C   UNL     1       5.028   5.124  17.260  0.00  0.00    +0.000 A 
ATOM      5  N   UNL     1       5.710   5.076  18.440  0.00  0.00    +0.000 N 
ATOM      6  N   UNL     1       6.703   5.985  18.535  0.00  0.00    +0.000 NA
ATOM      7  C   UNL     1       5.326   4.279  19.588  0.00  0.00    +0.000 C 
ATOM      8  C   UNL     1       4.238   3.263  19.252  0.00  0.00    +0.000 C 
ATOM      9  N   UNL     1       3.304   3.769  18.233  0.00  0.00    +0.000 NA
ATOM     10  C   UNL     1       3.874   4.242  16.972  0.00  0.00    +0.000 C 
BRANCH   9  11
ATOM     11  S   UNL     1       1.658   3.833  18.501  0.00  0.00    +0.000 S 
ATOM     12  C   UNL     1       1.291   2.110  18.752  0.00  0.00    +0.000 C 
ATOM     13  O   UNL     1       1.411   4.532  19.740  0.00  0.00    +0.000 OA
ATOM     14  O   UNL     1       1.025   4.240  17.264  0.00  0.00    +0.000 OA
ENDBRANCH   9  11
ENDBRANCH   1   2
BRANCH   1  17
ATOM     15  C   UNL     1       8.497   9.589  18.388  0.00  0.00    +0.000 C 
ATOM     16  O   UNL     1       8.081  10.444  17.606  0.00  0.00    +0.000 OA
ATOM     17  N   UNL     1       8.290   8.243  18.187  0.00  0.00    +0.000 N 
ATOM     18  H   UNL     1       8.351   7.591  18.961  0.00  0.00    +0.000 HD
BRANCH  15  19
ATOM     19  C   UNL     1       9.294   9.954  19.625  0.00  0.00    +0.000 C 
BRANCH  19  23
ATOM     20  C   UNL     1      11.668  13.576  19.477  0.00  0.00    +0.000 A 
ATOM     21  C   UNL     1      10.727  13.370  20.485  0.00  0.00    +0.000 A 
ATOM     22  C   UNL     1       9.967  12.199  20.520  0.00  0.00    +0.000 A 
ATOM     23  C   UNL     1      10.114  11.220  19.527  0.00  0.00    +0.000 A 
ATOM     24  C   UNL     1      11.078  11.423  18.532  0.00  0.00    +0.000 A 
ATOM     25  C   UNL     1      11.842  12.598  18.500  0.00  0.00    +0.000 A 
BRANCH  20  27
ATOM     26  C   UNL     1      11.558  15.932  19.265  0.00  0.00    +0.000 C 
ATOM     27  O   UNL     1      12.331  14.770  19.541  0.00  0.00    +0.000 OA
ENDBRANCH  20  27
ENDBRANCH  19  23
ENDBRANCH  15  19
ENDBRANCH   1  17
TORSDOF 6
ENDMDL
MODEL 4
REMARK VINA RESULT:      -7.2      0.679      1.247
REMARK  Name = 
REMARK  8 active torsions:
REMARK  status: ('A' for Active; 'I' for Inactive)
REMARK    1  A    between atoms: C_1  and  O_2
REMARK    2  A    between atoms: O_2  and  C_3
REMARK    3  A    between atoms: C_6  and  C_7
REMARK    4  A    between atoms: C_7  and  C_8
REMARK    5  A    between atoms: N_10  and  C_11
REMARK    6  A    between atoms: C_11  and  C_12
REMARK    7  A    between atoms: N_19  and  S_20
REMARK    8  A    between atoms: S_20  and  C_21
REMARK                            x       y       z     vdW  Elec       q    Type
REMARK                         _______ _______ _______ _____ _____    ______ ____
ROOT
ATOM      1  C   UNL     1       3.748   7.983  17.253  0.00  0.00    +0.000 C 
ENDROOT
BRANCH   1   2
ATOM      2  C   UNL     1       2.599   8.416  18.104  0.00  0.00    +0.000 A 
ATOM      3  C   UNL     1       1.682   9.450  17.790  0.00  0.00    +0.000 A 
ATOM      4  C   UNL     1       0.883   9.579  18.903  0.00  0.00    +0.000 A 
ATOM      5  N   UNL     1       1.316   8.628  19.780  0.00  0.00    +0.000 N 
ATOM      6  N   UNL     1       2.358   7.900  19.326  0.00  0.00    +0.000 NA
ATOM      7  C   UNL     1       0.863   8.495  21.151  0.00  0.00    +0.000 C 
ATOM      8  C   UNL     1      -0.369   9.348  21.440  0.00  0.00    +0.000 C 
ATOM      9  N   UNL     1      -0.363  10.606  20.676  0.00  0.00    +0.000 NA
ATOM     10  C   UNL     1      -0.221  10.513  19.224  0.00  0.00    +0.000 C 
BRANCH   9  11
ATOM     11  S   UNL     1      -0.489  12.092  21.426  0.00  0.00    +0.000 S 
ATOM     12  C   UNL     1      -1.249  11.629  22.966  0.00  0.00    +0.000 C 
ATOM     13  O   UNL     1       0.838  12.588  21.710  0.00  0.00    +0.000 OA
ATOM     14  O   UNL     1      -1.448  12.882  20.683  0.00  0.00    +0.000 OA
ENDBRANCH   9  11
ENDBRANCH   1   2
BRANCH   1  17
ATOM     15  C   UNL     1       4.810   5.971  16.407  0.00  0.00    +0.000 C 
ATOM     16  O   UNL     1       5.318   6.603  15.481  0.00  0.00    +0.000 OA
ATOM     17  N   UNL     1       3.982   6.560  17.336  0.00  0.00    +0.000 N 
ATOM     18  H   UNL     1       3.831   6.127  18.240  0.00  0.00    +0.000 HD
BRANCH  15  19
ATOM     19  C   UNL     1       5.040   4.483  16.582  0.00  0.00    +0.000 C 
BRANCH  19  23
ATOM     20  C   UNL     1       2.641   2.476  19.581  0.00  0.00    +0.000 A 
ATOM     21  C   UNL     1       2.139   2.730  18.305  0.00  0.00    +0.000 A 
ATOM     22  C   UNL     1       2.922   3.379  17.348  0.00  0.00    +0.000 A 
ATOM     23  C   UNL     1       4.218   3.814  17.660  0.00  0.00    +0.000 A 
ATOM     24  C   UNL     1       4.724   3.535  18.935  0.00  0.00    +0.000 A 
ATOM     25  C   UNL     1       3.937   2.881  19.893  0.00  0.00    +0.000 A 
BRANCH  20  27
ATOM     26  C   UNL     1       1.430   2.570  21.613  0.00  0.00    +0.000 C 
ATOM     27  O   UNL     1       1.770   1.854  20.431  0.00  0.00    +0.000 OA
ENDBRANCH  20  27
ENDBRANCH  19  23
ENDBRANCH  15  19
ENDBRANCH   1  17
TORSDOF 6
ENDMDL
MODEL 5
REMARK VINA RESULT:      -7.1      2.100      4.296
REMARK  Name = 
REMARK  8 active torsions:
REMARK  status: ('A' for Active; 'I' for Inactive)
REMARK    1  A    between atoms: C_1  and  O_2
REMARK    2  A    between atoms: O_2  and  C_3
REMARK    3  A    between atoms: C_6  and  C_7
REMARK    4  A    between atoms: C_7  and  C_8
REMARK    5  A    between atoms: N_10  and  C_11
REMARK    6  A    between atoms: C_11  and  C_12
REMARK    7  A    between atoms: N_19  and  S_20
REMARK    8  A    between atoms: S_20  and  C_21
REMARK                            x       y       z     vdW  Elec       q    Type
REMARK                         _______ _______ _______ _____ _____    ______ ____
ROOT
ATOM      1  C   UNL     1       1.932   5.595  20.622  0.00  0.00    +0.000 C 
ENDROOT
BRANCH   1   2
ATOM      2  C   UNL     1       1.737   7.051  20.353  0.00  0.00    +0.000 A 
ATOM      3  C   UNL     1       1.021   7.955  21.178  0.00  0.00    +0.000 A 
ATOM      4  C   UNL     1       0.997   9.143  20.482  0.00  0.00    +0.000 A 
ATOM      5  N   UNL     1       1.705   8.914  19.339  0.00  0.00    +0.000 N 
ATOM      6  N   UNL     1       2.171   7.653  19.228  0.00  0.00    +0.000 NA
ATOM      7  C   UNL     1       1.813   9.843  18.231  0.00  0.00    +0.000 C 
ATOM      8  C   UNL     1       1.295  11.234  18.586  0.00  0.00    +0.000 C 
ATOM      9  N   UNL     1       0.164  11.179  19.528  0.00  0.00    +0.000 NA
ATOM     10  C   UNL     1       0.362  10.448  20.778  0.00  0.00    +0.000 C 
BRANCH   9  11
ATOM     11  S   UNL     1      -1.302  11.897  19.184  0.00  0.00    +0.000 S 
ATOM     12  C   UNL     1      -2.092  10.615  18.237  0.00  0.00    +0.000 C 
ATOM     13  O   UNL     1      -2.041  12.069  20.414  0.00  0.00    +0.000 OA
ATOM     14  O   UNL     1      -1.051  13.010  18.292  0.00  0.00    +0.000 OA
ENDBRANCH   9  11
ENDBRANCH   1   2
BRANCH   1  17
ATOM     15  C   UNL     1       2.985   3.681  19.563  0.00  0.00    +0.000 C 
ATOM     16  O   UNL     1       2.124   2.929  20.020  0.00  0.00    +0.000 OA
ATOM     17  N   UNL     1       2.999   5.032  19.827  0.00  0.00    +0.000 N 
ATOM     18  H   UNL     1       3.497   5.672  19.217  0.00  0.00    +0.000 HD
BRANCH  15  19
ATOM     19  C   UNL     1       4.113   3.170  18.690  0.00  0.00    +0.000 C 
BRANCH  19  23
ATOM     20  C   UNL     1       6.907   6.211  17.375  0.00  0.00    +0.000 A 
ATOM     21  C   UNL     1       5.882   5.762  16.542  0.00  0.00    +0.000 A 
ATOM     22  C   UNL     1       4.990   4.781  16.978  0.00  0.00    +0.000 A 
ATOM     23  C   UNL     1       5.123   4.205  18.250  0.00  0.00    +0.000 A 
ATOM     24  C   UNL     1       6.140   4.677  19.089  0.00  0.00    +0.000 A 
ATOM     25  C   UNL     1       7.034   5.664  18.651  0.00  0.00    +0.000 A 
BRANCH  20  27
ATOM     26  C   UNL     1       7.910   8.345  17.586  0.00  0.00    +0.000 C 
ATOM     27  O   UNL     1       7.726   7.157  16.825  0.00  0.00    +0.000 OA
ENDBRANCH  20  27
ENDBRANCH  19  23
ENDBRANCH  15  19
ENDBRANCH   1  17
TORSDOF 6
ENDMDL
MODEL 6
REMARK VINA RESULT:      -7.1      5.632      6.705
REMARK  Name = 
REMARK  8 active torsions:
REMARK  status: ('A' for Active; 'I' for Inactive)
REMARK    1  A    between atoms: C_1  and  O_2
REMARK    2  A    between atoms: O_2  and  C_3
REMARK    3  A    between atoms: C_6  and  C_7
REMARK    4  A    between atoms: C_7  and  C_8
REMARK    5  A    between atoms: N_10  and  C_11
REMARK    6  A    between atoms: C_11  and  C_12
REMARK    7  A    between atoms: N_19  and  S_20
REMARK    8  A    between atoms: S_20  and  C_21
REMARK                            x       y       z     vdW  Elec       q    Type
REMARK                         _______ _______ _______ _____ _____    ______ ____
ROOT
ATOM      1  C   UNL     1       8.325   8.048  18.288  0.00  0.00    +0.000 C 
ENDROOT
BRANCH   1   2
ATOM      2  C   UNL     1       8.637   9.507  18.372  0.00  0.00    +0.000 A 
ATOM      3  C   UNL     1       9.389  10.133  19.398  0.00  0.00    +0.000 A 
ATOM      4  C   UNL     1       9.312  11.482  19.133  0.00  0.00    +0.000 A 
ATOM      5  N   UNL     1       8.581  11.592  17.987  0.00  0.00    +0.000 N 
ATOM      6  N   UNL     1       8.155  10.410  17.495  0.00  0.00    +0.000 NA
ATOM      7  C   UNL     1       8.117  12.841  17.416  0.00  0.00    +0.000 C 
ATOM      8  C   UNL     1       8.773  14.056  18.066  0.00  0.00    +0.000 C 
ATOM      9  N   UNL     1       9.048  13.838  19.496  0.00  0.00    +0.000 NA
ATOM     10  C   UNL     1       9.837  12.662  19.859  0.00  0.00    +0.000 C 
BRANCH   9  11
ATOM     11  S   UNL     1       8.468  14.871  20.671  0.00  0.00    +0.000 S 
ATOM     12  C   UNL     1       8.868  13.960  22.146  0.00  0.00    +0.000 C 
ATOM     13  O   UNL     1       9.255  16.082  20.662  0.00  0.00    +0.000 OA
ATOM     14  O   UNL     1       7.025  14.906  20.554  0.00  0.00    +0.000 OA
ENDBRANCH   9  11
ENDBRANCH   1   2
BRANCH   1  17
ATOM     15  C   UNL     1       6.923   6.477  17.080  0.00  0.00    +0.000 C 
ATOM     16  O   UNL     1       7.640   5.539  17.427  0.00  0.00    +0.000 OA
ATOM     17  N   UNL     1       7.193   7.781  17.433  0.00  0.00    +0.000 N 
ATOM     18  H   UNL     1       6.459   8.481  17.418  0.00  0.00    +0.000 HD
BRANCH  15  19
ATOM     19  C   UNL     1       5.696   6.271  16.214  0.00  0.00    +0.000 C 
BRANCH  19  23
ATOM     20  C   UNL     1       2.284   4.367  18.088  0.00  0.00    +0.000 A 
ATOM     21  C   UNL     1       2.541   5.725  18.266  0.00  0.00    +0.000 A 
ATOM     22  C   UNL     1       3.645   6.327  17.658  0.00  0.00    +0.000 A 
ATOM     23  C   UNL     1       4.533   5.571  16.879  0.00  0.00    +0.000 A 
ATOM     24  C   UNL     1       4.257   4.212  16.686  0.00  0.00    +0.000 A 
ATOM     25  C   UNL     1       3.147   3.611  17.296  0.00  0.00    +0.000 A 
BRANCH  20  27
ATOM     26  C   UNL     1       1.436   3.255  19.999  0.00  0.00    +0.000 C 
ATOM     27  O   UNL     1       1.187   3.894  18.752  0.00  0.00    +0.000 OA
ENDBRANCH  20  27
ENDBRANCH  19  23
ENDBRANCH  15  19
ENDBRANCH   1  17
TORSDOF 6
ENDMDL
MODEL 7
REMARK VINA RESULT:      -7.1      2.358      4.377
REMARK  Name = 
REMARK  8 active torsions:
REMARK  status: ('A' for Active; 'I' for Inactive)
REMARK    1  A    between atoms: C_1  and  O_2
REMARK    2  A    between atoms: O_2  and  C_3
REMARK    3  A    between atoms: C_6  and  C_7
REMARK    4  A    between atoms: C_7  and  C_8
REMARK    5  A    between atoms: N_10  and  C_11
REMARK    6  A    between atoms: C_11  and  C_12
REMARK    7  A    between atoms: N_19  and  S_20
REMARK    8  A    between atoms: S_20  and  C_21
REMARK                            x       y       z     vdW  Elec       q    Type
REMARK                         _______ _______ _______ _____ _____    ______ ____
ROOT
ATOM      1  C   UNL     1       2.035   6.013  20.839  0.00  0.00    +0.000 C 
ENDROOT
BRANCH   1   2
ATOM      2  C   UNL     1       1.559   7.371  20.438  0.00  0.00    +0.000 A 
ATOM      3  C   UNL     1       1.949   8.071  19.268  0.00  0.00    +0.000 A 
ATOM      4  C   UNL     1       1.366   9.313  19.377  0.00  0.00    +0.000 A 
ATOM      5  N   UNL     1       0.652   9.286  20.539  0.00  0.00    +0.000 N 
ATOM      6  N   UNL     1       0.746   8.119  21.210  0.00  0.00    +0.000 NA
ATOM      7  C   UNL     1      -0.003  10.432  21.136  0.00  0.00    +0.000 C 
ATOM      8  C   UNL     1      -0.066  11.626  20.187  0.00  0.00    +0.000 C 
ATOM      9  N   UNL     1       1.113  11.697  19.309  0.00  0.00    +0.000 NA
ATOM     10  C   UNL     1       1.434  10.514  18.512  0.00  0.00    +0.000 C 
BRANCH   9  11
ATOM     11  S   UNL     1       2.073  13.060  19.234  0.00  0.00    +0.000 S 
ATOM     12  C   UNL     1       0.861  14.306  18.855  0.00  0.00    +0.000 C 
ATOM     13  O   UNL     1       2.605  13.334  20.549  0.00  0.00    +0.000 OA
ATOM     14  O   UNL     1       2.940  12.927  18.081  0.00  0.00    +0.000 OA
ENDBRANCH   9  11
ENDBRANCH   1   2
BRANCH   1  17
ATOM     15  C   UNL     1       3.323   4.199  19.868  0.00  0.00    +0.000 C 
ATOM     16  O   UNL     1       2.626   3.366  20.447  0.00  0.00    +0.000 OA
ATOM     17  N   UNL     1       3.131   5.554  20.018  0.00  0.00    +0.000 N 
ATOM     18  H   UNL     1       3.480   6.205  19.323  0.00  0.00    +0.000 HD
BRANCH  15  19
ATOM     19  C   UNL     1       4.468   3.794  18.960  0.00  0.00    +0.000 C 
BRANCH  19  23
ATOM     20  C   UNL     1       6.949   6.974  17.375  0.00  0.00    +0.000 A 
ATOM     21  C   UNL     1       7.321   6.268  18.518  0.00  0.00    +0.000 A 
ATOM     22  C   UNL     1       6.512   5.247  19.020  0.00  0.00    +0.000 A 
ATOM     23  C   UNL     1       5.294   4.929  18.401  0.00  0.00    +0.000 A 
ATOM     24  C   UNL     1       4.938   5.626  17.240  0.00  0.00    +0.000 A 
ATOM     25  C   UNL     1       5.753   6.649  16.736  0.00  0.00    +0.000 A 
BRANCH  20  27
ATOM     26  C   UNL     1       8.152   8.915  17.999  0.00  0.00    +0.000 C 
ATOM     27  O   UNL     1       7.814   7.963  16.998  0.00  0.00    +0.000 OA
ENDBRANCH  20  27
ENDBRANCH  19  23
ENDBRANCH  15  19
ENDBRANCH   1  17
TORSDOF 6
ENDMDL
MODEL 8
REMARK VINA RESULT:      -7.1      2.382      4.499
REMARK  Name = 
REMARK  8 active torsions:
REMARK  status: ('A' for Active; 'I' for Inactive)
REMARK    1  A    between atoms: C_1  and  O_2
REMARK    2  A    between atoms: O_2  and  C_3
REMARK    3  A    between atoms: C_6  and  C_7
REMARK    4  A    between atoms: C_7  and  C_8
REMARK    5  A    between atoms: N_10  and  C_11
REMARK    6  A    between atoms: C_11  and  C_12
REMARK    7  A    between atoms: N_19  and  S_20
REMARK    8  A    between atoms: S_20  and  C_21
REMARK                            x       y       z     vdW  Elec       q    Type
REMARK                         _______ _______ _______ _____ _____    ______ ____
ROOT
ATOM      1  C   UNL     1       2.822   5.696  20.001  0.00  0.00    +0.000 C 
ENDROOT
BRANCH   1   2
ATOM      2  C   UNL     1       2.165   7.030  19.864  0.00  0.00    +0.000 A 
ATOM      3  C   UNL     1       2.209   7.859  18.715  0.00  0.00    +0.000 A 
ATOM      4  C   UNL     1       1.579   9.026  19.084  0.00  0.00    +0.000 A 
ATOM      5  N   UNL     1       1.170   8.834  20.371  0.00  0.00    +0.000 N 
ATOM      6  N   UNL     1       1.509   7.630  20.878  0.00  0.00    +0.000 NA
ATOM      7  C   UNL     1       0.595   9.858  21.221  0.00  0.00    +0.000 C 
ATOM      8  C   UNL     1       0.217  11.114  20.441  0.00  0.00    +0.000 C 
ATOM      9  N   UNL     1       1.142  11.372  19.325  0.00  0.00    +0.000 NA
ATOM     10  C   UNL     1       1.348  10.296  18.357  0.00  0.00    +0.000 C 
BRANCH   9  11
ATOM     11  S   UNL     1       1.952  12.823  19.170  0.00  0.00    +0.000 S 
ATOM     12  C   UNL     1       0.629  13.894  18.652  0.00  0.00    +0.000 C 
ATOM     13  O   UNL     1       2.396  13.254  20.476  0.00  0.00    +0.000 OA
ATOM     14  O   UNL     1       2.875  12.697  18.062  0.00  0.00    +0.000 OA
ENDBRANCH   9  11
ENDBRANCH   1   2
BRANCH   1  17
ATOM     15  C   UNL     1       3.857   3.943  18.677  0.00  0.00    +0.000 C 
ATOM     16  O   UNL     1       4.365   3.453  19.685  0.00  0.00    +0.000 OA
ATOM     17  N   UNL     1       3.088   5.085  18.719  0.00  0.00    +0.000 N 
ATOM     18  H   UNL     1       2.435   5.295  17.972  0.00  0.00    +0.000 HD
BRANCH  15  19
ATOM     19  C   UNL     1       4.059   3.338  17.302  0.00  0.00    +0.000 C 
BRANCH  19  23
ATOM     20  C   UNL     1       7.179   5.096  14.862  0.00  0.00    +0.000 A 
ATOM     21  C   UNL     1       6.102   4.426  14.284  0.00  0.00    +0.000 A 
ATOM     22  C   UNL     1       5.104   3.862  15.082  0.00  0.00    +0.000 A 
ATOM     23  C   UNL     1       5.179   3.934  16.480  0.00  0.00    +0.000 A 
ATOM     24  C   UNL     1       6.252   4.628  17.053  0.00  0.00    +0.000 A 
ATOM     25  C   UNL     1       7.252   5.195  16.250  0.00  0.00    +0.000 A 
BRANCH  20  27
ATOM     26  C   UNL     1       7.851   5.311  12.602  0.00  0.00    +0.000 C 
ATOM     27  O   UNL     1       8.099   5.584  13.976  0.00  0.00    +0.000 OA
ENDBRANCH  20  27
ENDBRANCH  19  23
ENDBRANCH  15  19
ENDBRANCH   1  17
TORSDOF 6
ENDMDL
MODEL 9
REMARK VINA RESULT:      -7.0      5.582      8.908
REMARK  Name = 
REMARK  8 active torsions:
REMARK  status: ('A' for Active; 'I' for Inactive)
REMARK    1  A    between atoms: C_1  and  O_2
REMARK    2  A    between atoms: O_2  and  C_3
REMARK    3  A    between atoms: C_6  and  C_7
REMARK    4  A    between atoms: C_7  and  C_8
REMARK    5  A    between atoms: N_10  and  C_11
REMARK    6  A    between atoms: C_11  and  C_12
REMARK    7  A    between atoms: N_19  and  S_20
REMARK    8  A    between atoms: S_20  and  C_21
REMARK                            x       y       z     vdW  Elec       q    Type
REMARK                         _______ _______ _______ _____ _____    ______ ____
ROOT
ATOM      1  C   UNL     1       7.446   6.464  17.379  0.00  0.00    +0.000 C 
ENDROOT
BRANCH   1   2
ATOM      2  C   UNL     1       6.105   5.806  17.393  0.00  0.00    +0.000 A 
ATOM      3  C   UNL     1       4.894   6.408  17.818  0.00  0.00    +0.000 A 
ATOM      4  C   UNL     1       3.954   5.403  17.776  0.00  0.00    +0.000 A 
ATOM      5  N   UNL     1       4.611   4.303  17.309  0.00  0.00    +0.000 N 
ATOM      6  N   UNL     1       5.921   4.512  17.064  0.00  0.00    +0.000 NA
ATOM      7  C   UNL     1       4.051   2.967  17.246  0.00  0.00    +0.000 C 
ATOM      8  C   UNL     1       2.543   2.958  17.482  0.00  0.00    +0.000 C 
ATOM      9  N   UNL     1       2.126   3.998  18.437  0.00  0.00    +0.000 NA
ATOM     10  C   UNL     1       2.521   5.376  18.149  0.00  0.00    +0.000 C 
BRANCH   9  11
ATOM     11  S   UNL     1       1.259   3.631  19.814  0.00  0.00    +0.000 S 
ATOM     12  C   UNL     1       2.502   2.812  20.788  0.00  0.00    +0.000 C 
ATOM     13  O   UNL     1       0.898   4.860  20.484  0.00  0.00    +0.000 OA
ATOM     14  O   UNL     1       0.261   2.645  19.457  0.00  0.00    +0.000 OA
ENDBRANCH   9  11
ENDBRANCH   1   2
BRANCH   1  17
ATOM     15  C   UNL     1       8.084   8.742  17.926  0.00  0.00    +0.000 C 
ATOM     16  O   UNL     1       8.772   8.345  18.866  0.00  0.00    +0.000 OA
ATOM     17  N   UNL     1       7.354   7.884  17.133  0.00  0.00    +0.000 N 
ATOM     18  H   UNL     1       7.059   8.166  16.205  0.00  0.00    +0.000 HD
BRANCH  15  19
ATOM     19  C   UNL     1       7.968  10.213  17.583  0.00  0.00    +0.000 C 
BRANCH  19  23
ATOM     20  C   UNL     1      10.807  12.907  19.443  0.00  0.00    +0.000 A 
ATOM     21  C   UNL     1       9.901  13.361  18.485  0.00  0.00    +0.000 A 
ATOM     22  C   UNL     1       8.993  12.482  17.892  0.00  0.00    +0.000 A 
ATOM     23  C   UNL     1       8.991  11.120  18.226  0.00  0.00    +0.000 A 
ATOM     24  C   UNL     1       9.888  10.676  19.206  0.00  0.00    +0.000 A 
ATOM     25  C   UNL     1      10.798  11.560  19.802  0.00  0.00    +0.000 A 
BRANCH  20  27
ATOM     26  C   UNL     1      11.112  15.165  20.089  0.00  0.00    +0.000 C 
ATOM     27  O   UNL     1      11.657  13.860  19.932  0.00  0.00    +0.000 OA
ENDBRANCH  20  27
ENDBRANCH  19  23
ENDBRANCH  15  19
ENDBRANCH   1  17
TORSDOF 6
ENDMDL
