MODEL 1
REMARK VINA RESULT:      -7.5      0.000      0.000
REMARK  Name = 
REMARK  6 active torsions:
REMARK  status: ('A' for Active; 'I' for Inactive)
REMARK    1  A    between atoms: C_1  and  S_2
REMARK    2  A    between atoms: S_2  and  C_3
REMARK    3  A    between atoms: C_7  and  N_8
REMARK    4  A    between atoms: C_9  and  C_11
REMARK    5  A    between atoms: C_11  and  C_12
REMARK    6  A    between atoms: C_12  and  C_13
REMARK                            x       y       z     vdW  Elec       q    Type
REMARK                         _______ _______ _______ _____ _____    ______ ____
ROOT
ATOM      1  N   UNL     1       6.953   7.630  16.898  0.00  0.00    +0.000 N 
ATOM      2  C   UNL     1       7.872   7.939  17.895  0.00  0.00    +0.000 C 
ATOM      3  O   UNL     1       8.312   7.154  18.731  0.00  0.00    +0.000 OA
ATOM      4  H   UNL     1       6.815   8.311  16.164  0.00  0.00    +0.000 HD
ENDROOT
BRANCH   1   9
ATOM      5  C   UNL     1       4.262   5.087  17.211  0.00  0.00    +0.000 A 
ATOM      6  C   UNL     1       4.820   4.006  16.521  0.00  0.00    +0.000 A 
ATOM      7  C   UNL     1       6.090   4.118  15.964  0.00  0.00    +0.000 A 
ATOM      8  C   UNL     1       6.805   5.310  16.081  0.00  0.00    +0.000 A 
ATOM      9  C   UNL     1       6.259   6.406  16.752  0.00  0.00    +0.000 A 
ATOM     10  C   UNL     1       4.989   6.280  17.329  0.00  0.00    +0.000 A 
BRANCH   5  12
ATOM     11  C   UNL     1       2.250   3.222  17.692  0.00  0.00    +0.000 C 
ATOM     12  S   UNL     1       2.677   4.952  18.032  0.00  0.00    +0.000 S 
ENDBRANCH   5  12
ENDBRANCH   1   9
BRANCH   2  13
ATOM     13  C   UNL     1       8.339   9.373  17.878  0.00  0.00    +0.000 C 
BRANCH  13  14
ATOM     14  C   UNL     1       9.035   9.728  19.185  0.00  0.00    +0.000 C 
BRANCH  14  15
ATOM     15  C   UNL     1       9.961  10.908  19.057  0.00  0.00    +0.000 A 
ATOM     16  C   UNL     1      10.331  11.392  17.796  0.00  0.00    +0.000 A 
ATOM     17  C   UNL     1      11.159  12.510  17.685  0.00  0.00    +0.000 A 
ATOM     18  C   UNL     1      11.629  13.148  18.831  0.00  0.00    +0.000 A 
ATOM     19  C   UNL     1      11.277  12.665  20.090  0.00  0.00    +0.000 A 
ATOM     20  C   UNL     1      10.450  11.548  20.204  0.00  0.00    +0.000 A 
ENDBRANCH  14  15
ENDBRANCH  13  14
ENDBRANCH   2  13
TORSDOF 5
ENDMDL
MODEL 2
REMARK VINA RESULT:      -7.2      0.591      1.124
REMARK  Name = 
REMARK  6 active torsions:
REMARK  status: ('A' for Active; 'I' for Inactive)
REMARK    1  A    between atoms: C_1  and  S_2
REMARK    2  A    between atoms: S_2  and  C_3
REMARK    3  A    between atoms: C_7  and  N_8
REMARK    4  A    between atoms: C_9  and  C_11
REMARK    5  A    between atoms: C_11  and  C_12
REMARK    6  A    between atoms: C_12  and  C_13
REMARK                            x       y       z     vdW  Elec       q    Type
REMARK                         _______ _______ _______ _____ _____    ______ ____
ROOT
ATOM      1  N   UNL     1       6.875   7.551  16.899  0.00  0.00    +0.000 N 
ATOM      2  C   UNL     1       7.807   7.922  17.862  0.00  0.00    +0.000 C 
ATOM      3  O   UNL     1       8.291   7.180  18.714  0.00  0.00    +0.000 OA
ATOM      4  H   UNL     1       6.699   8.202  16.146  0.00  0.00    +0.000 HD
ENDROOT
BRANCH   1   9
ATOM      5  C   UNL     1       4.443   4.832  17.600  0.00  0.00    +0.000 A 
ATOM      6  C   UNL     1       4.867   3.842  16.707  0.00  0.00    +0.000 A 
ATOM      7  C   UNL     1       5.965   4.073  15.884  0.00  0.00    +0.000 A 
ATOM      8  C   UNL     1       6.636   5.295  15.937  0.00  0.00    +0.000 A 
ATOM      9  C   UNL     1       6.218   6.301  16.810  0.00  0.00    +0.000 A 
ATOM     10  C   UNL     1       5.126   6.055  17.651  0.00  0.00    +0.000 A 
BRANCH   5  12
ATOM     11  C   UNL     1       1.844   3.831  17.651  0.00  0.00    +0.000 C 
ATOM     12  S   UNL     1       3.102   4.539  18.750  0.00  0.00    +0.000 S 
ENDBRANCH   5  12
ENDBRANCH   1   9
BRANCH   2  13
ATOM     13  C   UNL     1       8.227   9.369  17.786  0.00  0.00    +0.000 C 
BRANCH  13  14
ATOM     14  C   UNL     1       9.075   9.747  18.993  0.00  0.00    +0.000 C 
BRANCH  14  15
ATOM     15  C   UNL     1       9.800  11.055  18.817  0.00  0.00    +0.000 A 
ATOM     16  C   UNL     1      10.912  11.367  19.610  0.00  0.00    +0.000 A 
ATOM     17  C   UNL     1      11.602  12.563  19.416  0.00  0.00    +0.000 A 
ATOM     18  C   UNL     1      11.184  13.461  18.434  0.00  0.00    +0.000 A 
ATOM     19  C   UNL     1      10.071  13.164  17.650  0.00  0.00    +0.000 A 
ATOM     20  C   UNL     1       9.378  11.969  17.843  0.00  0.00    +0.000 A 
ENDBRANCH  14  15
ENDBRANCH  13  14
ENDBRANCH   2  13
TORSDOF 5
ENDMDL
MODEL 3
REMARK VINA RESULT:      -6.9      5.754      8.155
REMARK  Name = 
REMARK  6 active torsions:
REMARK  status: ('A' for Active; 'I' for Inactive)
REMARK    1  A    between atoms: C_1  and  S_2
REMARK    2  A    between atoms: S_2  and  C_3
REMARK    3  A    between atoms: C_7  and  N_8
REMARK    4  A    between atoms: C_9  and  C_11
REMARK    5  A    between atoms: C_11  and  C_12
REMARK    6  A    between atoms: C_12  and  C_13
REMARK                            x       y       z     vdW  Elec       q    Type
REMARK                         _______ _______ _______ _____ _____    ______ ____
ROOT
ATOM      1  N   UNL     1       5.408   4.778  15.898  0.00  0.00    +0.000 N 
ATOM      2  C   UNL     1       5.141   5.994  16.516  0.00  0.00    +0.000 C 
ATOM      3  O   UNL     1       5.302   7.104  16.013  0.00  0.00    +0.000 OA
ATOM      4  H   UNL     1       5.058   3.941  16.345  0.00  0.00    +0.000 HD
ENDROOT
BRANCH   1   9
ATOM      5  C   UNL     1       6.056   3.495  12.472  0.00  0.00    +0.000 A 
ATOM      6  C   UNL     1       7.233   4.175  12.139  0.00  0.00    +0.000 A 
ATOM      7  C   UNL     1       7.814   5.047  13.054  0.00  0.00    +0.000 A 
ATOM      8  C   UNL     1       7.221   5.255  14.299  0.00  0.00    +0.000 A 
ATOM      9  C   UNL     1       6.037   4.598  14.644  0.00  0.00    +0.000 A 
ATOM     10  C   UNL     1       5.469   3.706  13.727  0.00  0.00    +0.000 A 
BRANCH   5  12
ATOM     11  C   UNL     1       3.766   3.096  10.938  0.00  0.00    +0.000 C 
ATOM     12  S   UNL     1       5.332   2.287  11.367  0.00  0.00    +0.000 S 
ENDBRANCH   5  12
ENDBRANCH   1   9
BRANCH   2  13
ATOM     13  C   UNL     1       4.591   5.866  17.915  0.00  0.00    +0.000 C 
BRANCH  13  14
ATOM     14  C   UNL     1       3.089   6.117  17.928  0.00  0.00    +0.000 C 
BRANCH  14  15
ATOM     15  C   UNL     1       2.315   5.020  18.608  0.00  0.00    +0.000 A 
ATOM     16  C   UNL     1       1.933   5.141  19.950  0.00  0.00    +0.000 A 
ATOM     17  C   UNL     1       1.182   4.138  20.563  0.00  0.00    +0.000 A 
ATOM     18  C   UNL     1       0.813   3.003  19.844  0.00  0.00    +0.000 A 
ATOM     19  C   UNL     1       1.200   2.867  18.512  0.00  0.00    +0.000 A 
ATOM     20  C   UNL     1       1.951   3.869  17.897  0.00  0.00    +0.000 A 
ENDBRANCH  14  15
ENDBRANCH  13  14
ENDBRANCH   2  13
TORSDOF 5
ENDMDL
MODEL 4
REMARK VINA RESULT:      -6.9      5.706      8.051
REMARK  Name = 
REMARK  6 active torsions:
REMARK  status: ('A' for Active; 'I' for Inactive)
REMARK    1  A    between atoms: C_1  and  S_2
REMARK    2  A    between atoms: S_2  and  C_3
REMARK    3  A    between atoms: C_7  and  N_8
REMARK    4  A    between atoms: C_9  and  C_11
REMARK    5  A    between atoms: C_11  and  C_12
REMARK    6  A    between atoms: C_12  and  C_13
REMARK                            x       y       z     vdW  Elec       q    Type
REMARK                         _______ _______ _______ _____ _____    ______ ____
ROOT
ATOM      1  N   UNL     1       6.053   4.842  15.895  0.00  0.00    +0.000 N 
ATOM      2  C   UNL     1       6.823   4.597  17.027  0.00  0.00    +0.000 C 
ATOM      3  O   UNL     1       8.021   4.322  17.032  0.00  0.00    +0.000 OA
ATOM      4  H   UNL     1       5.134   5.239  16.034  0.00  0.00    +0.000 HD
ENDROOT
BRANCH   1   9
ATOM      5  C   UNL     1       6.187   3.546  12.416  0.00  0.00    +0.000 A 
ATOM      6  C   UNL     1       7.239   4.297  11.880  0.00  0.00    +0.000 A 
ATOM      7  C   UNL     1       7.909   5.221  12.675  0.00  0.00    +0.000 A 
ATOM      8  C   UNL     1       7.526   5.411  14.003  0.00  0.00    +0.000 A 
ATOM      9  C   UNL     1       6.468   4.683  14.552  0.00  0.00    +0.000 A 
ATOM     10  C   UNL     1       5.812   3.739  13.753  0.00  0.00    +0.000 A 
BRANCH   5  12
ATOM     11  C   UNL     1       6.765   1.196  11.036  0.00  0.00    +0.000 C 
ATOM     12  S   UNL     1       5.368   2.273  11.460  0.00  0.00    +0.000 S 
ENDBRANCH   5  12
ENDBRANCH   1   9
BRANCH   2  13
ATOM     13  C   UNL     1       6.065   4.716  18.325  0.00  0.00    +0.000 C 
BRANCH  13  14
ATOM     14  C   UNL     1       4.681   5.305  18.087  0.00  0.00    +0.000 C 
BRANCH  14  15
ATOM     15  C   UNL     1       3.576   4.294  18.239  0.00  0.00    +0.000 A 
ATOM     16  C   UNL     1       2.261   4.706  18.493  0.00  0.00    +0.000 A 
ATOM     17  C   UNL     1       1.235   3.766  18.594  0.00  0.00    +0.000 A 
ATOM     18  C   UNL     1       1.515   2.407  18.451  0.00  0.00    +0.000 A 
ATOM     19  C   UNL     1       2.822   1.988  18.212  0.00  0.00    +0.000 A 
ATOM     20  C   UNL     1       3.850   2.926  18.111  0.00  0.00    +0.000 A 
ENDBRANCH  14  15
ENDBRANCH  13  14
ENDBRANCH   2  13
TORSDOF 5
ENDMDL
MODEL 5
REMARK VINA RESULT:      -6.9      1.097      1.189
REMARK  Name = 
REMARK  6 active torsions:
REMARK  status: ('A' for Active; 'I' for Inactive)
REMARK    1  A    between atoms: C_1  and  S_2
REMARK    2  A    between atoms: S_2  and  C_3
REMARK    3  A    between atoms: C_7  and  N_8
REMARK    4  A    between atoms: C_9  and  C_11
REMARK    5  A    between atoms: C_11  and  C_12
REMARK    6  A    between atoms: C_12  and  C_13
REMARK                            x       y       z     vdW  Elec       q    Type
REMARK                         _______ _______ _______ _____ _____    ______ ____
ROOT
ATOM      1  N   UNL     1       6.530   7.466  16.860  0.00  0.00    +0.000 N 
ATOM      2  C   UNL     1       7.600   7.705  17.715  0.00  0.00    +0.000 C 
ATOM      3  O   UNL     1       8.156   6.865  18.419  0.00  0.00    +0.000 OA
ATOM      4  H   UNL     1       6.287   8.194  16.202  0.00  0.00    +0.000 HD
ENDROOT
BRANCH   1   9
ATOM      5  C   UNL     1       3.811   4.976  17.318  0.00  0.00    +0.000 A 
ATOM      6  C   UNL     1       4.305   3.888  16.590  0.00  0.00    +0.000 A 
ATOM      7  C   UNL     1       5.542   3.978  15.961  0.00  0.00    +0.000 A 
ATOM      8  C   UNL     1       6.287   5.154  16.042  0.00  0.00    +0.000 A 
ATOM      9  C   UNL     1       5.803   6.257  16.749  0.00  0.00    +0.000 A 
ATOM     10  C   UNL     1       4.567   6.153  17.399  0.00  0.00    +0.000 A 
BRANCH   5  12
ATOM     11  C   UNL     1       2.503   6.180  19.462  0.00  0.00    +0.000 C 
ATOM     12  S   UNL     1       2.274   4.868  18.230  0.00  0.00    +0.000 S 
ENDBRANCH   5  12
ENDBRANCH   1   9
BRANCH   2  13
ATOM     13  C   UNL     1       8.080   9.135  17.715  0.00  0.00    +0.000 C 
BRANCH  13  14
ATOM     14  C   UNL     1       9.061   9.374  18.855  0.00  0.00    +0.000 C 
BRANCH  14  15
ATOM     15  C   UNL     1       9.341  10.833  19.095  0.00  0.00    +0.000 A 
ATOM     16  C   UNL     1       9.304  11.751  18.037  0.00  0.00    +0.000 A 
ATOM     17  C   UNL     1       9.526  13.108  18.273  0.00  0.00    +0.000 A 
ATOM     18  C   UNL     1       9.794  13.558  19.565  0.00  0.00    +0.000 A 
ATOM     19  C   UNL     1       9.848  12.650  20.621  0.00  0.00    +0.000 A 
ATOM     20  C   UNL     1       9.626  11.293  20.387  0.00  0.00    +0.000 A 
ENDBRANCH  14  15
ENDBRANCH  13  14
ENDBRANCH   2  13
TORSDOF 5
ENDMDL
MODEL 6
REMARK VINA RESULT:      -6.8      1.334      1.706
REMARK  Name = 
REMARK  6 active torsions:
REMARK  status: ('A' for Active; 'I' for Inactive)
REMARK    1  A    between atoms: C_1  and  S_2
REMARK    2  A    between atoms: S_2  and  C_3
REMARK    3  A    between atoms: C_7  and  N_8
REMARK    4  A    between atoms: C_9  and  C_11
REMARK    5  A    between atoms: C_11  and  C_12
REMARK    6  A    between atoms: C_12  and  C_13
REMARK                            x       y       z     vdW  Elec       q    Type
REMARK                         _______ _______ _______ _____ _____    ______ ____
ROOT
ATOM      1  N   UNL     1       7.677   6.660  18.155  0.00  0.00    +0.000 N 
ATOM      2  C   UNL     1       7.693   8.015  17.843  0.00  0.00    +0.000 C 
ATOM      3  O   UNL     1       6.937   8.577  17.055  0.00  0.00    +0.000 OA
ATOM      4  H   UNL     1       8.222   6.359  18.952  0.00  0.00    +0.000 HD
ENDROOT
BRANCH   1   9
ATOM      5  C   UNL     1       4.977   4.162  17.633  0.00  0.00    +0.000 A 
ATOM      6  C   UNL     1       5.284   3.685  16.355  0.00  0.00    +0.000 A 
ATOM      7  C   UNL     1       6.391   4.182  15.674  0.00  0.00    +0.000 A 
ATOM      8  C   UNL     1       7.189   5.166  16.258  0.00  0.00    +0.000 A 
ATOM      9  C   UNL     1       6.890   5.667  17.527  0.00  0.00    +0.000 A 
ATOM     10  C   UNL     1       5.787   5.147  18.215  0.00  0.00    +0.000 A 
BRANCH   5  12
ATOM     11  C   UNL     1       3.333   4.804  19.788  0.00  0.00    +0.000 C 
ATOM     12  S   UNL     1       3.626   3.476  18.586  0.00  0.00    +0.000 S 
ENDBRANCH   5  12
ENDBRANCH   1   9
BRANCH   2  13
ATOM     13  C   UNL     1       8.741   8.805  18.586  0.00  0.00    +0.000 C 
BRANCH  13  14
ATOM     14  C   UNL     1       8.740  10.259  18.135  0.00  0.00    +0.000 C 
BRANCH  14  15
ATOM     15  C   UNL     1       9.891  11.051  18.695  0.00  0.00    +0.000 A 
ATOM     16  C   UNL     1       9.986  11.296  20.071  0.00  0.00    +0.000 A 
ATOM     17  C   UNL     1      11.074  11.997  20.589  0.00  0.00    +0.000 A 
ATOM     18  C   UNL     1      12.073  12.467  19.737  0.00  0.00    +0.000 A 
ATOM     19  C   UNL     1      11.979  12.240  18.365  0.00  0.00    +0.000 A 
ATOM     20  C   UNL     1      10.891  11.539  17.845  0.00  0.00    +0.000 A 
ENDBRANCH  14  15
ENDBRANCH  13  14
ENDBRANCH   2  13
TORSDOF 5
ENDMDL
MODEL 7
REMARK VINA RESULT:      -6.8      1.444      2.534
REMARK  Name = 
REMARK  6 active torsions:
REMARK  status: ('A' for Active; 'I' for Inactive)
REMARK    1  A    between atoms: C_1  and  S_2
REMARK    2  A    between atoms: S_2  and  C_3
REMARK    3  A    between atoms: C_7  and  N_8
REMARK    4  A    between atoms: C_9  and  C_11
REMARK    5  A    between atoms: C_11  and  C_12
REMARK    6  A    between atoms: C_12  and  C_13
REMARK                            x       y       z     vdW  Elec       q    Type
REMARK                         _______ _______ _______ _____ _____    ______ ____
ROOT
ATOM      1  N   UNL     1       6.822   7.852  17.013  0.00  0.00    +0.000 N 
ATOM      2  C   UNL     1       7.856   8.095  17.911  0.00  0.00    +0.000 C 
ATOM      3  O   UNL     1       8.400   7.253  18.621  0.00  0.00    +0.000 OA
ATOM      4  H   UNL     1       6.591   8.588  16.358  0.00  0.00    +0.000 HD
ENDROOT
BRANCH   1   9
ATOM      5  C   UNL     1       5.679   4.655  15.505  0.00  0.00    +0.000 A 
ATOM      6  C   UNL     1       4.760   4.210  16.461  0.00  0.00    +0.000 A 
ATOM      7  C   UNL     1       4.514   4.975  17.597  0.00  0.00    +0.000 A 
ATOM      8  C   UNL     1       5.189   6.180  17.791  0.00  0.00    +0.000 A 
ATOM      9  C   UNL     1       6.121   6.634  16.856  0.00  0.00    +0.000 A 
ATOM     10  C   UNL     1       6.349   5.870  15.705  0.00  0.00    +0.000 A 
BRANCH   5  12
ATOM     11  C   UNL     1       7.306   4.710  13.245  0.00  0.00    +0.000 C 
ATOM     12  S   UNL     1       5.949   3.756  13.980  0.00  0.00    +0.000 S 
ENDBRANCH   5  12
ENDBRANCH   1   9
BRANCH   2  13
ATOM     13  C   UNL     1       8.311   9.533  17.951  0.00  0.00    +0.000 C 
BRANCH  13  14
ATOM     14  C   UNL     1       9.084   9.817  19.232  0.00  0.00    +0.000 C 
BRANCH  14  15
ATOM     15  C   UNL     1      10.062  10.953  19.089  0.00  0.00    +0.000 A 
ATOM     16  C   UNL     1      10.596  11.581  20.222  0.00  0.00    +0.000 A 
ATOM     17  C   UNL     1      11.531  12.607  20.084  0.00  0.00    +0.000 A 
ATOM     18  C   UNL     1      11.934  13.019  18.814  0.00  0.00    +0.000 A 
ATOM     19  C   UNL     1      11.398  12.409  17.682  0.00  0.00    +0.000 A 
ATOM     20  C   UNL     1      10.463  11.383  17.818  0.00  0.00    +0.000 A 
ENDBRANCH  14  15
ENDBRANCH  13  14
ENDBRANCH   2  13
TORSDOF 5
ENDMDL
MODEL 8
REMARK VINA RESULT:      -6.7      1.500      2.096
REMARK  Name = 
REMARK  6 active torsions:
REMARK  status: ('A' for Active; 'I' for Inactive)
REMARK    1  A    between atoms: C_1  and  S_2
REMARK    2  A    between atoms: S_2  and  C_3
REMARK    3  A    between atoms: C_7  and  N_8
REMARK    4  A    between atoms: C_9  and  C_11
REMARK    5  A    between atoms: C_11  and  C_12
REMARK    6  A    between atoms: C_12  and  C_13
REMARK                            x       y       z     vdW  Elec       q    Type
REMARK                         _______ _______ _______ _____ _____    ______ ____
ROOT
ATOM      1  N   UNL     1       6.622   6.265  18.631  0.00  0.00    +0.000 N 
ATOM      2  C   UNL     1       7.163   7.177  17.732  0.00  0.00    +0.000 C 
ATOM      3  O   UNL     1       6.769   7.370  16.584  0.00  0.00    +0.000 OA
ATOM      4  H   UNL     1       6.913   6.335  19.597  0.00  0.00    +0.000 HD
ENDROOT
BRANCH   1   9
ATOM      5  C   UNL     1       3.554   4.207  19.018  0.00  0.00    +0.000 A 
ATOM      6  C   UNL     1       3.606   3.412  17.868  0.00  0.00    +0.000 A 
ATOM      7  C   UNL     1       4.662   3.552  16.974  0.00  0.00    +0.000 A 
ATOM      8  C   UNL     1       5.665   4.491  17.214  0.00  0.00    +0.000 A 
ATOM      9  C   UNL     1       5.623   5.305  18.348  0.00  0.00    +0.000 A 
ATOM     10  C   UNL     1       4.568   5.145  19.255  0.00  0.00    +0.000 A 
BRANCH   5  12
ATOM     11  C   UNL     1       1.073   2.979  19.329  0.00  0.00    +0.000 C 
ATOM     12  S   UNL     1       2.270   3.988  20.247  0.00  0.00    +0.000 S 
ENDBRANCH   5  12
ENDBRANCH   1   9
BRANCH   2  13
ATOM     13  C   UNL     1       8.316   7.977  18.285  0.00  0.00    +0.000 C 
BRANCH  13  14
ATOM     14  C   UNL     1       8.200   9.440  17.879  0.00  0.00    +0.000 C 
BRANCH  14  15
ATOM     15  C   UNL     1       9.201  10.325  18.574  0.00  0.00    +0.000 A 
ATOM     16  C   UNL     1       9.171  10.479  19.965  0.00  0.00    +0.000 A 
ATOM     17  C   UNL     1      10.125  11.270  20.607  0.00  0.00    +0.000 A 
ATOM     18  C   UNL     1      11.110  11.919  19.864  0.00  0.00    +0.000 A 
ATOM     19  C   UNL     1      11.138  11.782  18.477  0.00  0.00    +0.000 A 
ATOM     20  C   UNL     1      10.185  10.992  17.833  0.00  0.00    +0.000 A 
ENDBRANCH  14  15
ENDBRANCH  13  14
ENDBRANCH   2  13
TORSDOF 5
ENDMDL
MODEL 9
REMARK VINA RESULT:      -6.7      1.760      2.558
REMARK  Name = 
REMARK  6 active torsions:
REMARK  status: ('A' for Active; 'I' for Inactive)
REMARK    1  A    between atoms: C_1  and  S_2
REMARK    2  A    between atoms: S_2  and  C_3
REMARK    3  A    between atoms: C_7  and  N_8
REMARK    4  A    between atoms: C_9  and  C_11
REMARK    5  A    between atoms: C_11  and  C_12
REMARK    6  A    between atoms: C_12  and  C_13
REMARK                            x       y       z     vdW  Elec       q    Type
REMARK                         _______ _______ _______ _____ _____    ______ ____
ROOT
ATOM      1  N   UNL     1       5.918   6.292  18.224  0.00  0.00    +0.000 N 
ATOM      2  C   UNL     1       7.241   5.901  18.395  0.00  0.00    +0.000 C 
ATOM      3  O   UNL     1       7.651   4.742  18.391  0.00  0.00    +0.000 OA
ATOM      4  H   UNL     1       5.740   7.274  18.061  0.00  0.00    +0.000 HD
ENDROOT
BRANCH   1   9
ATOM      5  C   UNL     1       2.730   4.635  19.172  0.00  0.00    +0.000 A 
ATOM      6  C   UNL     1       2.547   3.754  18.101  0.00  0.00    +0.000 A 
ATOM      7  C   UNL     1       3.484   3.702  17.075  0.00  0.00    +0.000 A 
ATOM      8  C   UNL     1       4.602   4.536  17.103  0.00  0.00    +0.000 A 
ATOM      9  C   UNL     1       4.795   5.434  18.155  0.00  0.00    +0.000 A 
ATOM     10  C   UNL     1       3.859   5.466  19.196  0.00  0.00    +0.000 A 
BRANCH   5  12
ATOM     11  C   UNL     1       2.209   3.249  21.531  0.00  0.00    +0.000 C 
ATOM     12  S   UNL     1       1.605   4.661  20.564  0.00  0.00    +0.000 S 
ENDBRANCH   5  12
ENDBRANCH   1   9
BRANCH   2  13
ATOM     13  C   UNL     1       8.203   7.048  18.577  0.00  0.00    +0.000 C 
BRANCH  13  14
ATOM     14  C   UNL     1       7.803   8.230  17.704  0.00  0.00    +0.000 C 
BRANCH  14  15
ATOM     15  C   UNL     1       8.405   9.531  18.163  0.00  0.00    +0.000 A 
ATOM     16  C   UNL     1       8.207  10.707  17.428  0.00  0.00    +0.000 A 
ATOM     17  C   UNL     1       8.734  11.917  17.879  0.00  0.00    +0.000 A 
ATOM     18  C   UNL     1       9.470  11.962  19.063  0.00  0.00    +0.000 A 
ATOM     19  C   UNL     1       9.683  10.794  19.793  0.00  0.00    +0.000 A 
ATOM     20  C   UNL     1       9.157   9.583  19.344  0.00  0.00    +0.000 A 
ENDBRANCH  14  15
ENDBRANCH  13  14
ENDBRANCH   2  13
TORSDOF 5
ENDMDL
