MODEL 1
REMARK VINA RESULT:      -8.8      0.000      0.000
REMARK  Name = 
REMARK  7 active torsions:
REMARK  status: ('A' for Active; 'I' for Inactive)
REMARK    1  A    between atoms: C_1  and  C_2
REMARK    2  A    between atoms: C_4  and  C_5
REMARK    3  A    between atoms: C_7  and  C_8
REMARK    4  A    between atoms: C_9  and  C_10
REMARK    5  A    between atoms: N_12  and  N_13
REMARK    6  A    between atoms: C_14  and  C_16
REMARK    7  A    between atoms: C_25  and  C_26
REMARK                            x       y       z     vdW  Elec       q    Type
REMARK                         _______ _______ _______ _____ _____    ______ ____
ROOT
ATOM      1  C   UNL     1       3.445   4.270  19.337  0.00  0.00    +0.000 A 
ATOM      2  C   UNL     1       2.407   5.087  19.883  0.00  0.00    +0.000 A 
ATOM      3  N   UNL     1       1.496   4.305  20.496  0.00  0.00    +0.000 NA
ATOM      4  O   UNL     1       1.901   3.001  20.317  0.00  0.00    +0.000 OA
ATOM      5  C   UNL     1       3.067   2.977  19.627  0.00  0.00    +0.000 A 
ATOM      6  C   UNL     1       3.632   1.639  19.348  0.00  0.00    +0.000 C 
ENDROOT
BRANCH   1   9
ATOM      7  C   UNL     1       5.954   4.836  16.850  0.00  0.00    +0.000 A 
ATOM      8  N   UNL     1       4.752   4.503  17.280  0.00  0.00    +0.000 NA
ATOM      9  C   UNL     1       4.662   4.687  18.644  0.00  0.00    +0.000 A 
ATOM     10  C   UNL     1       5.775   5.246  19.227  0.00  0.00    +0.000 A 
ATOM     11  S   UNL     1       7.017   5.429  18.071  0.00  0.00    +0.000 S 
BRANCH   7  15
ATOM     12  C   UNL     1       8.513   5.809  12.656  0.00  0.00    +0.000 C 
ATOM     13  C   UNL     1       7.511   5.201  13.573  0.00  0.00    +0.000 A 
ATOM     14  N   UNL     1       7.311   5.558  14.825  0.00  0.00    +0.000 NA
ATOM     15  C   UNL     1       6.374   4.720  15.409  0.00  0.00    +0.000 A 
ATOM     16  C   UNL     1       5.861   3.749  14.570  0.00  0.00    +0.000 A 
ATOM     17  S   UNL     1       6.544   3.895  13.012  0.00  0.00    +0.000 S 
ENDBRANCH   7  15
ENDBRANCH   1   9
BRANCH   2  18
ATOM     18  C   UNL     1       2.230   6.545  19.909  0.00  0.00    +0.000 C 
ATOM     19  O   UNL     1       2.451   7.270  18.935  0.00  0.00    +0.000 OA
ATOM     20  N   UNL     1       1.812   7.083  21.105  0.00  0.00    +0.000 N 
ATOM     21  H   UNL     1       1.558   6.511  21.918  0.00  0.00    +0.000 HD
BRANCH  20  22
ATOM     22  N   UNL     1       1.542   8.445  21.217  0.00  0.00    +0.000 N 
ATOM     23  C   UNL     1       0.237   8.806  21.479  0.00  0.00    +0.000 C 
ATOM     24  O   UNL     1      -0.689   8.003  21.589  0.00  0.00    +0.000 OA
ATOM     25  H   UNL     1       2.337   9.049  21.412  0.00  0.00    +0.000 HD
BRANCH  23  26
ATOM     26  C   UNL     1      -0.007  10.250  21.700  0.00  0.00    +0.000 A 
ATOM     27  C   UNL     1       0.646  11.240  20.952  0.00  0.00    +0.000 A 
ATOM     28  C   UNL     1       0.412  12.589  21.237  0.00  0.00    +0.000 A 
ATOM     29  C   UNL     1      -0.473  12.942  22.256  0.00  0.00    +0.000 A 
ATOM     30 CL   UNL     1      -0.724  14.599  22.633  0.00  0.00    +0.000 Cl
ATOM     31  C   UNL     1      -1.154  11.959  22.974  0.00  0.00    +0.000 A 
ATOM     32  C   UNL     1      -0.929  10.613  22.689  0.00  0.00    +0.000 A 
ENDBRANCH  23  26
ENDBRANCH  20  22
ENDBRANCH   2  18
TORSDOF 5
ENDMDL
MODEL 2
REMARK VINA RESULT:      -8.6      0.727      1.084
REMARK  Name = 
REMARK  7 active torsions:
REMARK  status: ('A' for Active; 'I' for Inactive)
REMARK    1  A    between atoms: C_1  and  C_2
REMARK    2  A    between atoms: C_4  and  C_5
REMARK    3  A    between atoms: C_7  and  C_8
REMARK    4  A    between atoms: C_9  and  C_10
REMARK    5  A    between atoms: N_12  and  N_13
REMARK    6  A    between atoms: C_14  and  C_16
REMARK    7  A    between atoms: C_25  and  C_26
REMARK                            x       y       z     vdW  Elec       q    Type
REMARK                         _______ _______ _______ _____ _____    ______ ____
ROOT
ATOM      1  C   UNL     1       3.857   4.349  19.679  0.00  0.00    +0.000 A 
ATOM      2  C   UNL     1       2.734   5.117  20.119  0.00  0.00    +0.000 A 
ATOM      3  N   UNL     1       1.947   4.353  20.902  0.00  0.00    +0.000 NA
ATOM      4  O   UNL     1       2.514   3.098  20.938  0.00  0.00    +0.000 OA
ATOM      5  C   UNL     1       3.657   3.094  20.210  0.00  0.00    +0.000 A 
ATOM      6  C   UNL     1       4.384   1.808  20.148  0.00  0.00    +0.000 C 
ENDROOT
BRANCH   1   9
ATOM      7  C   UNL     1       6.128   4.891  16.968  0.00  0.00    +0.000 A 
ATOM      8  N   UNL     1       4.981   4.530  17.512  0.00  0.00    +0.000 NA
ATOM      9  C   UNL     1       4.993   4.781  18.869  0.00  0.00    +0.000 A 
ATOM     10  C   UNL     1       6.121   5.418  19.329  0.00  0.00    +0.000 A 
ATOM     11  S   UNL     1       7.257   5.593  18.067  0.00  0.00    +0.000 S 
BRANCH   7  15
ATOM     12  C   UNL     1       8.364   5.683  12.557  0.00  0.00    +0.000 C 
ATOM     13  C   UNL     1       7.432   5.119  13.571  0.00  0.00    +0.000 A 
ATOM     14  N   UNL     1       7.330   5.524  14.820  0.00  0.00    +0.000 NA
ATOM     15  C   UNL     1       6.435   4.717  15.505  0.00  0.00    +0.000 A 
ATOM     16  C   UNL     1       5.855   3.720  14.746  0.00  0.00    +0.000 A 
ATOM     17  S   UNL     1       6.417   3.801  13.135  0.00  0.00    +0.000 S 
ENDBRANCH   7  15
ENDBRANCH   1   9
BRANCH   2  18
ATOM     18  C   UNL     1       2.370   6.523  19.895  0.00  0.00    +0.000 C 
ATOM     19  O   UNL     1       2.578   7.113  18.830  0.00  0.00    +0.000 OA
ATOM     20  N   UNL     1       1.784   7.174  20.957  0.00  0.00    +0.000 N 
ATOM     21  H   UNL     1       1.537   6.703  21.834  0.00  0.00    +0.000 HD
BRANCH  20  22
ATOM     22  N   UNL     1       1.333   8.485  20.826  0.00  0.00    +0.000 N 
ATOM     23  C   UNL     1       0.107   8.784  21.381  0.00  0.00    +0.000 C 
ATOM     24  O   UNL     1      -0.609   7.961  21.950  0.00  0.00    +0.000 OA
ATOM     25  H   UNL     1       2.040   9.188  20.626  0.00  0.00    +0.000 HD
BRANCH  23  26
ATOM     26  C   UNL     1      -0.303  10.207  21.325  0.00  0.00    +0.000 A 
ATOM     27  C   UNL     1      -0.733  10.904  22.463  0.00  0.00    +0.000 A 
ATOM     28  C   UNL     1      -1.153  12.232  22.342  0.00  0.00    +0.000 A 
ATOM     29  C   UNL     1      -1.135  12.857  21.094  0.00  0.00    +0.000 A 
ATOM     30 CL   UNL     1      -1.694  14.474  20.941  0.00  0.00    +0.000 Cl
ATOM     31  C   UNL     1      -0.670  12.177  19.969  0.00  0.00    +0.000 A 
ATOM     32  C   UNL     1      -0.244  10.855  20.086  0.00  0.00    +0.000 A 
ENDBRANCH  23  26
ENDBRANCH  20  22
ENDBRANCH   2  18
TORSDOF 5
ENDMDL
MODEL 3
REMARK VINA RESULT:      -8.6      0.854      1.402
REMARK  Name = 
REMARK  7 active torsions:
REMARK  status: ('A' for Active; 'I' for Inactive)
REMARK    1  A    between atoms: C_1  and  C_2
REMARK    2  A    between atoms: C_4  and  C_5
REMARK    3  A    between atoms: C_7  and  C_8
REMARK    4  A    between atoms: C_9  and  C_10
REMARK    5  A    between atoms: N_12  and  N_13
REMARK    6  A    between atoms: C_14  and  C_16
REMARK    7  A    between atoms: C_25  and  C_26
REMARK                            x       y       z     vdW  Elec       q    Type
REMARK                         _______ _______ _______ _____ _____    ______ ____
ROOT
ATOM      1  C   UNL     1       3.378   4.115  19.128  0.00  0.00    +0.000 A 
ATOM      2  C   UNL     1       2.384   4.932  19.751  0.00  0.00    +0.000 A 
ATOM      3  N   UNL     1       1.481   4.146  20.371  0.00  0.00    +0.000 NA
ATOM      4  O   UNL     1       1.847   2.842  20.122  0.00  0.00    +0.000 OA
ATOM      5  C   UNL     1       2.982   2.820  19.382  0.00  0.00    +0.000 A 
ATOM      6  C   UNL     1       3.502   1.483  19.025  0.00  0.00    +0.000 C 
ENDROOT
BRANCH   1   9
ATOM      7  C   UNL     1       5.835   4.645  16.581  0.00  0.00    +0.000 A 
ATOM      8  N   UNL     1       4.647   4.302  17.043  0.00  0.00    +0.000 NA
ATOM      9  C   UNL     1       4.574   4.533  18.401  0.00  0.00    +0.000 A 
ATOM     10  C   UNL     1       5.684   5.136  18.945  0.00  0.00    +0.000 A 
ATOM     11  S   UNL     1       6.904   5.304  17.763  0.00  0.00    +0.000 S 
BRANCH   7  15
ATOM     12  C   UNL     1       5.590   3.077  11.832  0.00  0.00    +0.000 C 
ATOM     13  C   UNL     1       6.100   3.749  13.057  0.00  0.00    +0.000 A 
ATOM     14  N   UNL     1       5.560   3.658  14.255  0.00  0.00    +0.000 NA
ATOM     15  C   UNL     1       6.233   4.487  15.139  0.00  0.00    +0.000 A 
ATOM     16  C   UNL     1       7.295   5.180  14.590  0.00  0.00    +0.000 A 
ATOM     17  S   UNL     1       7.476   4.774  12.941  0.00  0.00    +0.000 S 
ENDBRANCH   7  15
ENDBRANCH   1   9
BRANCH   2  18
ATOM     18  C   UNL     1       2.244   6.391  19.844  0.00  0.00    +0.000 C 
ATOM     19  O   UNL     1       2.558   7.160  18.930  0.00  0.00    +0.000 OA
ATOM     20  N   UNL     1       1.749   6.878  21.033  0.00  0.00    +0.000 N 
ATOM     21  H   UNL     1       1.419   6.272  21.791  0.00  0.00    +0.000 HD
BRANCH  20  22
ATOM     22  N   UNL     1       1.508   8.240  21.198  0.00  0.00    +0.000 N 
ATOM     23  C   UNL     1       0.205   8.620  21.445  0.00  0.00    +0.000 C 
ATOM     24  O   UNL     1      -0.742   7.835  21.498  0.00  0.00    +0.000 OA
ATOM     25  H   UNL     1       2.310   8.816  21.439  0.00  0.00    +0.000 HD
BRANCH  23  26
ATOM     26  C   UNL     1      -0.012  10.058  21.725  0.00  0.00    +0.000 A 
ATOM     27  C   UNL     1      -0.836  10.499  22.770  0.00  0.00    +0.000 A 
ATOM     28  C   UNL     1      -1.041  11.869  22.957  0.00  0.00    +0.000 A 
ATOM     29  C   UNL     1      -0.420  12.788  22.111  0.00  0.00    +0.000 A 
ATOM     30 CL   UNL     1      -0.710  14.469  22.316  0.00  0.00    +0.000 Cl
ATOM     31  C   UNL     1       0.432  12.353  21.096  0.00  0.00    +0.000 A 
ATOM     32  C   UNL     1       0.645  10.988  20.910  0.00  0.00    +0.000 A 
ENDBRANCH  23  26
ENDBRANCH  20  22
ENDBRANCH   2  18
TORSDOF 5
ENDMDL
MODEL 4
REMARK VINA RESULT:      -7.9      1.486      1.979
REMARK  Name = 
REMARK  7 active torsions:
REMARK  status: ('A' for Active; 'I' for Inactive)
REMARK    1  A    between atoms: C_1  and  C_2
REMARK    2  A    between atoms: C_4  and  C_5
REMARK    3  A    between atoms: C_7  and  C_8
REMARK    4  A    between atoms: C_9  and  C_10
REMARK    5  A    between atoms: N_12  and  N_13
REMARK    6  A    between atoms: C_14  and  C_16
REMARK    7  A    between atoms: C_25  and  C_26
REMARK                            x       y       z     vdW  Elec       q    Type
REMARK                         _______ _______ _______ _____ _____    ______ ____
ROOT
ATOM      1  C   UNL     1       3.511   4.973  19.668  0.00  0.00    +0.000 A 
ATOM      2  C   UNL     1       2.459   5.923  19.851  0.00  0.00    +0.000 A 
ATOM      3  N   UNL     1       1.522   5.404  20.669  0.00  0.00    +0.000 NA
ATOM      4  O   UNL     1       1.926   4.125  20.980  0.00  0.00    +0.000 OA
ATOM      5  C   UNL     1       3.116   3.866  20.386  0.00  0.00    +0.000 A 
ATOM      6  C   UNL     1       3.683   2.521  20.622  0.00  0.00    +0.000 C 
ENDROOT
BRANCH   1   9
ATOM      7  C   UNL     1       5.965   4.996  17.065  0.00  0.00    +0.000 A 
ATOM      8  N   UNL     1       4.741   4.921  17.552  0.00  0.00    +0.000 NA
ATOM      9  C   UNL     1       4.754   5.127  18.917  0.00  0.00    +0.000 A 
ATOM     10  C   UNL     1       5.984   5.447  19.441  0.00  0.00    +0.000 A 
ATOM     11  S   UNL     1       7.183   5.363  18.229  0.00  0.00    +0.000 S 
BRANCH   7  15
ATOM     12  C   UNL     1       8.332   5.585  12.691  0.00  0.00    +0.000 C 
ATOM     13  C   UNL     1       7.342   5.100  13.690  0.00  0.00    +0.000 A 
ATOM     14  N   UNL     1       7.249   5.521  14.935  0.00  0.00    +0.000 NA
ATOM     15  C   UNL     1       6.284   4.789  15.609  0.00  0.00    +0.000 A 
ATOM     16  C   UNL     1       5.644   3.832  14.845  0.00  0.00    +0.000 A 
ATOM     17  S   UNL     1       6.240   3.858  13.245  0.00  0.00    +0.000 S 
ENDBRANCH   7  15
ENDBRANCH   1   9
BRANCH   2  18
ATOM     18  C   UNL     1       2.289   7.294  19.350  0.00  0.00    +0.000 C 
ATOM     19  O   UNL     1       2.783   7.693  18.291  0.00  0.00    +0.000 OA
ATOM     20  N   UNL     1       1.549   8.142  20.143  0.00  0.00    +0.000 N 
ATOM     21  H   UNL     1       1.070   7.834  20.996  0.00  0.00    +0.000 HD
BRANCH  20  22
ATOM     22  N   UNL     1       1.265   9.440  19.726  0.00  0.00    +0.000 N 
ATOM     23  C   UNL     1       1.021  10.376  20.709  0.00  0.00    +0.000 C 
ATOM     24  O   UNL     1       1.013  10.121  21.913  0.00  0.00    +0.000 OA
ATOM     25  H   UNL     1       1.559   9.686  18.784  0.00  0.00    +0.000 HD
BRANCH  23  26
ATOM     26  C   UNL     1       0.829  11.770  20.248  0.00  0.00    +0.000 A 
ATOM     27  C   UNL     1       0.034  12.686  20.951  0.00  0.00    +0.000 A 
ATOM     28  C   UNL     1      -0.149  13.976  20.443  0.00  0.00    +0.000 A 
ATOM     29  C   UNL     1       0.465  14.346  19.246  0.00  0.00    +0.000 A 
ATOM     30 CL   UNL     1       0.202  15.916  18.602  0.00  0.00    +0.000 Cl
ATOM     31  C   UNL     1       1.289  13.449  18.566  0.00  0.00    +0.000 A 
ATOM     32  C   UNL     1       1.480  12.165  19.073  0.00  0.00    +0.000 A 
ENDBRANCH  23  26
ENDBRANCH  20  22
ENDBRANCH   2  18
TORSDOF 5
ENDMDL
MODEL 5
REMARK VINA RESULT:      -7.9      1.625      2.122
REMARK  Name = 
REMARK  7 active torsions:
REMARK  status: ('A' for Active; 'I' for Inactive)
REMARK    1  A    between atoms: C_1  and  C_2
REMARK    2  A    between atoms: C_4  and  C_5
REMARK    3  A    between atoms: C_7  and  C_8
REMARK    4  A    between atoms: C_9  and  C_10
REMARK    5  A    between atoms: N_12  and  N_13
REMARK    6  A    between atoms: C_14  and  C_16
REMARK    7  A    between atoms: C_25  and  C_26
REMARK                            x       y       z     vdW  Elec       q    Type
REMARK                         _______ _______ _______ _____ _____    ______ ____
ROOT
ATOM      1  C   UNL     1       3.757   4.715  19.286  0.00  0.00    +0.000 A 
ATOM      2  C   UNL     1       2.712   5.658  19.536  0.00  0.00    +0.000 A 
ATOM      3  N   UNL     1       1.809   5.115  20.377  0.00  0.00    +0.000 NA
ATOM      4  O   UNL     1       2.226   3.829  20.637  0.00  0.00    +0.000 OA
ATOM      5  C   UNL     1       3.392   3.587  19.989  0.00  0.00    +0.000 A 
ATOM      6  C   UNL     1       3.969   2.238  20.166  0.00  0.00    +0.000 C 
ENDROOT
BRANCH   1   9
ATOM      7  C   UNL     1       6.121   4.762  16.601  0.00  0.00    +0.000 A 
ATOM      8  N   UNL     1       4.917   4.661  17.131  0.00  0.00    +0.000 NA
ATOM      9  C   UNL     1       4.970   4.890  18.491  0.00  0.00    +0.000 A 
ATOM     10  C   UNL     1       6.207   5.255  18.968  0.00  0.00    +0.000 A 
ATOM     11  S   UNL     1       7.366   5.183  17.717  0.00  0.00    +0.000 S 
BRANCH   7  15
ATOM     12  C   UNL     1       5.447   3.028  11.951  0.00  0.00    +0.000 C 
ATOM     13  C   UNL     1       6.074   3.729  13.104  0.00  0.00    +0.000 A 
ATOM     14  N   UNL     1       5.630   3.699  14.345  0.00  0.00    +0.000 NA
ATOM     15  C   UNL     1       6.397   4.538  15.139  0.00  0.00    +0.000 A 
ATOM     16  C   UNL     1       7.430   5.176  14.480  0.00  0.00    +0.000 A 
ATOM     17  S   UNL     1       7.464   4.705  12.839  0.00  0.00    +0.000 S 
ENDBRANCH   7  15
ENDBRANCH   1   9
BRANCH   2  18
ATOM     18  C   UNL     1       2.522   7.042  19.080  0.00  0.00    +0.000 C 
ATOM     19  O   UNL     1       2.962   7.465  18.006  0.00  0.00    +0.000 OA
ATOM     20  N   UNL     1       1.828   7.871  19.931  0.00  0.00    +0.000 N 
ATOM     21  H   UNL     1       1.393   7.543  20.800  0.00  0.00    +0.000 HD
BRANCH  20  22
ATOM     22  N   UNL     1       1.528   9.180  19.562  0.00  0.00    +0.000 N 
ATOM     23  C   UNL     1       0.471   9.787  20.207  0.00  0.00    +0.000 C 
ATOM     24  O   UNL     1      -0.226   9.231  21.056  0.00  0.00    +0.000 OA
ATOM     25  H   UNL     1       2.268   9.699  19.097  0.00  0.00    +0.000 HD
BRANCH  23  26
ATOM     26  C   UNL     1       0.239  11.212  19.877  0.00  0.00    +0.000 A 
ATOM     27  C   UNL     1      -0.841  11.934  20.406  0.00  0.00    +0.000 A 
ATOM     28  C   UNL     1      -1.038  13.264  20.022  0.00  0.00    +0.000 A 
ATOM     29  C   UNL     1      -0.157  13.866  19.124  0.00  0.00    +0.000 A 
ATOM     30 CL   UNL     1      -0.427  15.486  18.620  0.00  0.00    +0.000 Cl
ATOM     31  C   UNL     1       0.941  13.162  18.628  0.00  0.00    +0.000 A 
ATOM     32  C   UNL     1       1.144  11.838  19.013  0.00  0.00    +0.000 A 
ENDBRANCH  23  26
ENDBRANCH  20  22
ENDBRANCH   2  18
TORSDOF 5
ENDMDL
MODEL 6
REMARK VINA RESULT:      -7.8      1.883      2.236
REMARK  Name = 
REMARK  7 active torsions:
REMARK  status: ('A' for Active; 'I' for Inactive)
REMARK    1  A    between atoms: C_1  and  C_2
REMARK    2  A    between atoms: C_4  and  C_5
REMARK    3  A    between atoms: C_7  and  C_8
REMARK    4  A    between atoms: C_9  and  C_10
REMARK    5  A    between atoms: N_12  and  N_13
REMARK    6  A    between atoms: C_14  and  C_16
REMARK    7  A    between atoms: C_25  and  C_26
REMARK                            x       y       z     vdW  Elec       q    Type
REMARK                         _______ _______ _______ _____ _____    ______ ____
ROOT
ATOM      1  C   UNL     1       3.831   4.739  18.980  0.00  0.00    +0.000 A 
ATOM      2  C   UNL     1       2.847   5.731  19.280  0.00  0.00    +0.000 A 
ATOM      3  N   UNL     1       2.006   5.259  20.222  0.00  0.00    +0.000 NA
ATOM      4  O   UNL     1       2.400   3.969  20.501  0.00  0.00    +0.000 OA
ATOM      5  C   UNL     1       3.492   3.656  19.762  0.00  0.00    +0.000 A 
ATOM      6  C   UNL     1       4.035   2.293  19.946  0.00  0.00    +0.000 C 
ENDROOT
BRANCH   1   9
ATOM      7  C   UNL     1       5.935   4.600  16.089  0.00  0.00    +0.000 A 
ATOM      8  N   UNL     1       4.782   4.572  16.730  0.00  0.00    +0.000 NA
ATOM      9  C   UNL     1       4.971   4.834  18.072  0.00  0.00    +0.000 A 
ATOM     10  C   UNL     1       6.263   5.150  18.422  0.00  0.00    +0.000 A 
ATOM     11  S   UNL     1       7.296   4.990  17.073  0.00  0.00    +0.000 S 
BRANCH   7  15
ATOM     12  C   UNL     1       4.556   3.224  11.476  0.00  0.00    +0.000 C 
ATOM     13  C   UNL     1       5.418   3.684  12.598  0.00  0.00    +0.000 A 
ATOM     14  N   UNL     1       5.043   3.771  13.858  0.00  0.00    +0.000 NA
ATOM     15  C   UNL     1       6.063   4.326  14.615  0.00  0.00    +0.000 A 
ATOM     16  C   UNL     1       7.210   4.630  13.908  0.00  0.00    +0.000 A 
ATOM     17  S   UNL     1       7.025   4.195  12.267  0.00  0.00    +0.000 S 
ENDBRANCH   7  15
ENDBRANCH   1   9
BRANCH   2  18
ATOM     18  C   UNL     1       2.665   7.101  18.782  0.00  0.00    +0.000 C 
ATOM     19  O   UNL     1       3.187   7.517  17.744  0.00  0.00    +0.000 OA
ATOM     20  N   UNL     1       1.879   7.927  19.554  0.00  0.00    +0.000 N 
ATOM     21  H   UNL     1       1.377   7.603  20.387  0.00  0.00    +0.000 HD
BRANCH  20  22
ATOM     22  N   UNL     1       1.581   9.221  19.134  0.00  0.00    +0.000 N 
ATOM     23  C   UNL     1       0.655   9.924  19.877  0.00  0.00    +0.000 C 
ATOM     24  O   UNL     1       0.068   9.464  20.856  0.00  0.00    +0.000 OA
ATOM     25  H   UNL     1       2.266   9.669  18.530  0.00  0.00    +0.000 HD
BRANCH  23  26
ATOM     26  C   UNL     1       0.435  11.333  19.478  0.00  0.00    +0.000 A 
ATOM     27  C   UNL     1       1.426  12.090  18.836  0.00  0.00    +0.000 A 
ATOM     28  C   UNL     1       1.179  13.431  18.525  0.00  0.00    +0.000 A 
ATOM     29  C   UNL     1      -0.052  14.004  18.847  0.00  0.00    +0.000 A 
ATOM     30 CL   UNL     1      -0.336  15.663  18.503  0.00  0.00    +0.000 Cl
ATOM     31  C   UNL     1      -1.053  13.241  19.448  0.00  0.00    +0.000 A 
ATOM     32  C   UNL     1      -0.813  11.903  19.754  0.00  0.00    +0.000 A 
ENDBRANCH  23  26
ENDBRANCH  20  22
ENDBRANCH   2  18
TORSDOF 5
ENDMDL
MODEL 7
REMARK VINA RESULT:      -7.7      1.245      1.745
REMARK  Name = 
REMARK  7 active torsions:
REMARK  status: ('A' for Active; 'I' for Inactive)
REMARK    1  A    between atoms: C_1  and  C_2
REMARK    2  A    between atoms: C_4  and  C_5
REMARK    3  A    between atoms: C_7  and  C_8
REMARK    4  A    between atoms: C_9  and  C_10
REMARK    5  A    between atoms: N_12  and  N_13
REMARK    6  A    between atoms: C_14  and  C_16
REMARK    7  A    between atoms: C_25  and  C_26
REMARK                            x       y       z     vdW  Elec       q    Type
REMARK                         _______ _______ _______ _____ _____    ______ ____
ROOT
ATOM      1  C   UNL     1       3.857   4.647  19.305  0.00  0.00    +0.000 A 
ATOM      2  C   UNL     1       2.787   5.446  19.815  0.00  0.00    +0.000 A 
ATOM      3  N   UNL     1       2.088   4.735  20.722  0.00  0.00    +0.000 NA
ATOM      4  O   UNL     1       2.656   3.482  20.773  0.00  0.00    +0.000 OA
ATOM      5  C   UNL     1       3.716   3.427  19.930  0.00  0.00    +0.000 A 
ATOM      6  C   UNL     1       4.433   2.136  19.868  0.00  0.00    +0.000 C 
ENDROOT
BRANCH   1   9
ATOM      7  C   UNL     1       5.881   4.933  16.369  0.00  0.00    +0.000 A 
ATOM      8  N   UNL     1       4.802   4.591  17.048  0.00  0.00    +0.000 NA
ATOM      9  C   UNL     1       4.900   5.023  18.355  0.00  0.00    +0.000 A 
ATOM     10  C   UNL     1       6.018   5.773  18.633  0.00  0.00    +0.000 A 
ATOM     11  S   UNL     1       7.043   5.833  17.269  0.00  0.00    +0.000 S 
BRANCH   7  15
ATOM     12  C   UNL     1       4.780   3.206  11.799  0.00  0.00    +0.000 C 
ATOM     13  C   UNL     1       5.565   3.782  12.924  0.00  0.00    +0.000 A 
ATOM     14  N   UNL     1       5.133   3.921  14.160  0.00  0.00    +0.000 NA
ATOM     15  C   UNL     1       6.087   4.580  14.921  0.00  0.00    +0.000 A 
ATOM     16  C   UNL     1       7.244   4.909  14.241  0.00  0.00    +0.000 A 
ATOM     17  S   UNL     1       7.154   4.367  12.624  0.00  0.00    +0.000 S 
ENDBRANCH   7  15
ENDBRANCH   1   9
BRANCH   2  18
ATOM     18  C   UNL     1       2.399   6.838  19.546  0.00  0.00    +0.000 C 
ATOM     19  O   UNL     1       2.655   7.418  18.486  0.00  0.00    +0.000 OA
ATOM     20  N   UNL     1       1.736   7.489  20.561  0.00  0.00    +0.000 N 
ATOM     21  H   UNL     1       1.450   7.026  21.430  0.00  0.00    +0.000 HD
BRANCH  20  22
ATOM     22  N   UNL     1       1.259   8.786  20.382  0.00  0.00    +0.000 N 
ATOM     23  C   UNL     1       0.908   9.487  21.517  0.00  0.00    +0.000 C 
ATOM     24  O   UNL     1       0.966   9.024  22.656  0.00  0.00    +0.000 OA
ATOM     25  H   UNL     1       1.492   9.235  19.500  0.00  0.00    +0.000 HD
BRANCH  23  26
ATOM     26  C   UNL     1       0.507  10.898  21.312  0.00  0.00    +0.000 A 
ATOM     27  C   UNL     1      -0.485  11.512  22.090  0.00  0.00    +0.000 A 
ATOM     28  C   UNL     1      -0.856  12.833  21.820  0.00  0.00    +0.000 A 
ATOM     29  C   UNL     1      -0.232  13.534  20.787  0.00  0.00    +0.000 A 
ATOM     30 CL   UNL     1      -0.721  15.141  20.430  0.00  0.00    +0.000 Cl
ATOM     31  C   UNL     1       0.783  12.938  20.039  0.00  0.00    +0.000 A 
ATOM     32  C   UNL     1       1.160  11.624  20.309  0.00  0.00    +0.000 A 
ENDBRANCH  23  26
ENDBRANCH  20  22
ENDBRANCH   2  18
TORSDOF 5
ENDMDL
MODEL 8
REMARK VINA RESULT:      -7.6      4.889      9.589
REMARK  Name = 
REMARK  7 active torsions:
REMARK  status: ('A' for Active; 'I' for Inactive)
REMARK    1  A    between atoms: C_1  and  C_2
REMARK    2  A    between atoms: C_4  and  C_5
REMARK    3  A    between atoms: C_7  and  C_8
REMARK    4  A    between atoms: C_9  and  C_10
REMARK    5  A    between atoms: N_12  and  N_13
REMARK    6  A    between atoms: C_14  and  C_16
REMARK    7  A    between atoms: C_25  and  C_26
REMARK                            x       y       z     vdW  Elec       q    Type
REMARK                         _______ _______ _______ _____ _____    ______ ____
ROOT
ATOM      1  C   UNL     1       0.104  10.611  20.922  0.00  0.00    +0.000 A 
ATOM      2  C   UNL     1       0.588   9.328  20.519  0.00  0.00    +0.000 A 
ATOM      3  N   UNL     1       0.185   8.397  21.406  0.00  0.00    +0.000 NA
ATOM      4  O   UNL     1      -0.509   9.059  22.395  0.00  0.00    +0.000 OA
ATOM      5  C   UNL     1      -0.562  10.382  22.107  0.00  0.00    +0.000 A 
ATOM      6  C   UNL     1      -1.274  11.234  23.082  0.00  0.00    +0.000 C 
ENDROOT
BRANCH   1   9
ATOM      7  C   UNL     1       1.403  13.674  19.605  0.00  0.00    +0.000 A 
ATOM      8  N   UNL     1       1.490  12.480  20.161  0.00  0.00    +0.000 NA
ATOM      9  C   UNL     1       0.243  11.893  20.235  0.00  0.00    +0.000 A 
ATOM     10  C   UNL     1      -0.771  12.613  19.649  0.00  0.00    +0.000 A 
ATOM     11  S   UNL     1      -0.185  14.122  19.106  0.00  0.00    +0.000 S 
BRANCH   7  15
ATOM     12  C   UNL     1       4.623  17.394  20.537  0.00  0.00    +0.000 C 
ATOM     13  C   UNL     1       3.973  16.249  19.844  0.00  0.00    +0.000 A 
ATOM     14  N   UNL     1       2.852  15.668  20.222  0.00  0.00    +0.000 NA
ATOM     15  C   UNL     1       2.590  14.577  19.408  0.00  0.00    +0.000 A 
ATOM     16  C   UNL     1       3.517  14.365  18.406  0.00  0.00    +0.000 A 
ATOM     17  S   UNL     1       4.732  15.564  18.462  0.00  0.00    +0.000 S 
ENDBRANCH   7  15
ENDBRANCH   1   9
BRANCH   2  18
ATOM     18  C   UNL     1       1.362   8.906  19.343  0.00  0.00    +0.000 C 
ATOM     19  O   UNL     1       1.327   9.502  18.262  0.00  0.00    +0.000 OA
ATOM     20  N   UNL     1       2.135   7.778  19.499  0.00  0.00    +0.000 N 
ATOM     21  H   UNL     1       2.240   7.292  20.396  0.00  0.00    +0.000 HD
BRANCH  20  22
ATOM     22  N   UNL     1       2.963   7.336  18.470  0.00  0.00    +0.000 N 
ATOM     23  C   UNL     1       3.424   6.038  18.550  0.00  0.00    +0.000 C 
ATOM     24  O   UNL     1       3.169   5.275  19.481  0.00  0.00    +0.000 OA
ATOM     25  H   UNL     1       2.920   7.859  17.599  0.00  0.00    +0.000 HD
BRANCH  23  26
ATOM     26  C   UNL     1       4.214   5.556  17.394  0.00  0.00    +0.000 A 
ATOM     27  C   UNL     1       4.743   6.431  16.434  0.00  0.00    +0.000 A 
ATOM     28  C   UNL     1       5.440   5.915  15.338  0.00  0.00    +0.000 A 
ATOM     29  C   UNL     1       5.612   4.536  15.208  0.00  0.00    +0.000 A 
ATOM     30 CL   UNL     1       6.430   3.903  13.836  0.00  0.00    +0.000 Cl
ATOM     31  C   UNL     1       5.121   3.667  16.182  0.00  0.00    +0.000 A 
ATOM     32  C   UNL     1       4.431   4.178  17.280  0.00  0.00    +0.000 A 
ENDBRANCH  23  26
ENDBRANCH  20  22
ENDBRANCH   2  18
TORSDOF 5
ENDMDL
MODEL 9
REMARK VINA RESULT:      -7.6      1.972      2.296
REMARK  Name = 
REMARK  7 active torsions:
REMARK  status: ('A' for Active; 'I' for Inactive)
REMARK    1  A    between atoms: C_1  and  C_2
REMARK    2  A    between atoms: C_4  and  C_5
REMARK    3  A    between atoms: C_7  and  C_8
REMARK    4  A    between atoms: C_9  and  C_10
REMARK    5  A    between atoms: N_12  and  N_13
REMARK    6  A    between atoms: C_14  and  C_16
REMARK    7  A    between atoms: C_25  and  C_26
REMARK                            x       y       z     vdW  Elec       q    Type
REMARK                         _______ _______ _______ _____ _____    ______ ____
ROOT
ATOM      1  C   UNL     1       3.250   4.052  18.901  0.00  0.00    +0.000 A 
ATOM      2  C   UNL     1       2.245   4.870  19.503  0.00  0.00    +0.000 A 
ATOM      3  N   UNL     1       1.253   4.089  19.975  0.00  0.00    +0.000 NA
ATOM      4  O   UNL     1       1.577   2.790  19.650  0.00  0.00    +0.000 OA
ATOM      5  C   UNL     1       2.771   2.765  19.011  0.00  0.00    +0.000 A 
ATOM      6  C   UNL     1       3.257   1.434  18.590  0.00  0.00    +0.000 C 
ENDROOT
BRANCH   1   9
ATOM      7  C   UNL     1       5.935   4.680  16.621  0.00  0.00    +0.000 A 
ATOM      8  N   UNL     1       4.694   4.375  16.951  0.00  0.00    +0.000 NA
ATOM      9  C   UNL     1       4.526   4.460  18.318  0.00  0.00    +0.000 A 
ATOM     10  C   UNL     1       5.623   4.919  19.007  0.00  0.00    +0.000 A 
ATOM     11  S   UNL     1       6.943   5.127  17.946  0.00  0.00    +0.000 S 
BRANCH   7  15
ATOM     12  C   UNL     1       8.706   5.935  12.643  0.00  0.00    +0.000 C 
ATOM     13  C   UNL     1       7.668   5.257  13.465  0.00  0.00    +0.000 A 
ATOM     14  N   UNL     1       7.388   5.540  14.721  0.00  0.00    +0.000 NA
ATOM     15  C   UNL     1       6.438   4.652  15.203  0.00  0.00    +0.000 A 
ATOM     16  C   UNL     1       5.999   3.718  14.285  0.00  0.00    +0.000 A 
ATOM     17  S   UNL     1       6.766   3.964  12.779  0.00  0.00    +0.000 S 
ENDBRANCH   7  15
ENDBRANCH   1   9
BRANCH   2  18
ATOM     18  C   UNL     1       2.166   6.324  19.706  0.00  0.00    +0.000 C 
ATOM     19  O   UNL     1       1.841   6.839  20.780  0.00  0.00    +0.000 OA
ATOM     20  N   UNL     1       2.464   7.106  18.613  0.00  0.00    +0.000 N 
ATOM     21  H   UNL     1       2.799   6.720  17.724  0.00  0.00    +0.000 HD
BRANCH  20  22
ATOM     22  N   UNL     1       2.492   8.494  18.718  0.00  0.00    +0.000 N 
ATOM     23  C   UNL     1       1.474   9.191  18.101  0.00  0.00    +0.000 C 
ATOM     24  O   UNL     1       0.575   8.659  17.449  0.00  0.00    +0.000 OA
ATOM     25  H   UNL     1       3.048   8.878  19.478  0.00  0.00    +0.000 HD
BRANCH  23  26
ATOM     26  C   UNL     1       1.464  10.656  18.317  0.00  0.00    +0.000 A 
ATOM     27  C   UNL     1       2.507  11.482  17.875  0.00  0.00    +0.000 A 
ATOM     28  C   UNL     1       2.466  12.853  18.148  0.00  0.00    +0.000 A 
ATOM     29  C   UNL     1       1.387  13.391  18.850  0.00  0.00    +0.000 A 
ATOM     30 CL   UNL     1       1.362  15.067  19.223  0.00  0.00    +0.000 Cl
ATOM     31  C   UNL     1       0.329  12.576  19.255  0.00  0.00    +0.000 A 
ATOM     32  C   UNL     1       0.363  11.211  18.979  0.00  0.00    +0.000 A 
ENDBRANCH  23  26
ENDBRANCH  20  22
ENDBRANCH   2  18
TORSDOF 5
ENDMDL
