MODEL 1
REMARK VINA RESULT:      -9.6      0.000      0.000
REMARK  Name = 
REMARK  5 active torsions:
REMARK  status: ('A' for Active; 'I' for Inactive)
REMARK    1  A    between atoms: C_2  and  C_3
REMARK    2  A    between atoms: C_6  and  N_7
REMARK    3  A    between atoms: C_12  and  N_13
REMARK    4  A    between atoms: N_13  and  C_14
REMARK    5  A    between atoms: C_18  and  C_19
REMARK                            x       y       z     vdW  Elec       q    Type
REMARK                         _______ _______ _______ _____ _____    ______ ____
ROOT
ATOM      1  N   UNL     1       0.204  11.576  21.722  0.00  0.00    +0.000 N 
ATOM      2  H   UNL     1       0.680  11.787  22.596  0.00  0.00    +0.000 HD
ENDROOT
BRANCH   1   8
ATOM      3  N   UNL     1      -3.952  12.477  19.612  0.00  0.00    +0.000 N 
ATOM      4  C   UNL     1      -3.167  12.393  20.765  0.00  0.00    +0.000 A 
ATOM      5  N   UNL     1      -3.799  12.584  21.928  0.00  0.00    +0.000 NA
ATOM      6  C   UNL     1      -3.083  12.371  23.046  0.00  0.00    +0.000 A 
ATOM      7  C   UNL     1      -1.762  11.985  23.046  0.00  0.00    +0.000 A 
ATOM      8  C   UNL     1      -1.172  11.880  21.812  0.00  0.00    +0.000 A 
ATOM      9  N   UNL     1      -1.875  12.058  20.689  0.00  0.00    +0.000 NA
ATOM     10  H   UNL     1      -4.912  12.598  19.901  0.00  0.00    +0.000 HD
BRANCH   3  14
ATOM     11  C   UNL     1      -3.217  10.750  15.820  0.00  0.00    +0.000 A 
ATOM     12  C   UNL     1      -2.199  10.854  16.770  0.00  0.00    +0.000 A 
ATOM     13  C   UNL     1      -2.465  11.412  18.028  0.00  0.00    +0.000 A 
ATOM     14  C   UNL     1      -3.743  11.890  18.353  0.00  0.00    +0.000 A 
ATOM     15  C   UNL     1      -4.755  11.738  17.395  0.00  0.00    +0.000 A 
ATOM     16  C   UNL     1      -4.499  11.190  16.137  0.00  0.00    +0.000 A 
BRANCH  11  18
ATOM     17  N   UNL     1      -2.738   9.738  13.482  0.00  0.00    +0.000 NA
ATOM     18  C   UNL     1      -2.950  10.190  14.530  0.00  0.00    +0.000 C 
ENDBRANCH  11  18
ENDBRANCH   3  14
ENDBRANCH   1   8
BRANCH   1  19
ATOM     19  C   UNL     1       0.710  10.407  21.101  0.00  0.00    +0.000 A 
ATOM     20  C   UNL     1       0.962  10.337  19.723  0.00  0.00    +0.000 A 
ATOM     21  F   UNL     1       0.771  11.409  18.938  0.00  0.00    +0.000 F 
ATOM     22  C   UNL     1       1.456   9.182  19.121  0.00  0.00    +0.000 A 
ATOM     23  C   UNL     1       1.772   8.055  19.888  0.00  0.00    +0.000 A 
ATOM     24  C   UNL     1       1.572   8.128  21.273  0.00  0.00    +0.000 A 
ATOM     25  C   UNL     1       1.034   9.279  21.856  0.00  0.00    +0.000 A 
ATOM     26  F   UNL     1       0.820   9.289  23.182  0.00  0.00    +0.000 F 
BRANCH  23  27
ATOM     27  C   UNL     1       2.319   6.846  19.259  0.00  0.00    +0.000 A 
ATOM     28  C   UNL     1       3.200   6.943  18.195  0.00  0.00    +0.000 A 
ATOM     29  S   UNL     1       3.728   5.432  17.619  0.00  0.00    +0.000 S 
ATOM     30  C   UNL     1       2.806   4.586  18.794  0.00  0.00    +0.000 A 
ATOM     31  C   UNL     1       2.752   3.184  18.961  0.00  0.00    +0.000 A 
ATOM     32  C   UNL     1       1.950   2.649  19.968  0.00  0.00    +0.000 A 
ATOM     33  C   UNL     1       1.199   3.479  20.780  0.00  0.00    +0.000 A 
ATOM     34  C   UNL     1       1.239   4.864  20.595  0.00  0.00    +0.000 A 
ATOM     35  C   UNL     1       2.072   5.456  19.607  0.00  0.00    +0.000 A 
ENDBRANCH  23  27
ENDBRANCH   1  19
TORSDOF 5
ENDMDL
MODEL 2
REMARK VINA RESULT:      -9.5      0.161      1.443
REMARK  Name = 
REMARK  5 active torsions:
REMARK  status: ('A' for Active; 'I' for Inactive)
REMARK    1  A    between atoms: C_2  and  C_3
REMARK    2  A    between atoms: C_6  and  N_7
REMARK    3  A    between atoms: C_12  and  N_13
REMARK    4  A    between atoms: N_13  and  C_14
REMARK    5  A    between atoms: C_18  and  C_19
REMARK                            x       y       z     vdW  Elec       q    Type
REMARK                         _______ _______ _______ _____ _____    ______ ____
ROOT
ATOM      1  N   UNL     1       0.330  11.579  21.533  0.00  0.00    +0.000 N 
ATOM      2  H   UNL     1       0.830  11.859  22.373  0.00  0.00    +0.000 HD
ENDROOT
BRANCH   1   8
ATOM      3  N   UNL     1      -3.895  12.383  19.524  0.00  0.00    +0.000 N 
ATOM      4  C   UNL     1      -3.082  12.315  20.658  0.00  0.00    +0.000 A 
ATOM      5  N   UNL     1      -3.691  12.485  21.836  0.00  0.00    +0.000 NA
ATOM      6  C   UNL     1      -2.944  12.286  22.937  0.00  0.00    +0.000 A 
ATOM      7  C   UNL     1      -1.614  11.934  22.904  0.00  0.00    +0.000 A 
ATOM      8  C   UNL     1      -1.050  11.847  21.656  0.00  0.00    +0.000 A 
ATOM      9  N   UNL     1      -1.784  12.012  20.550  0.00  0.00    +0.000 NA
ATOM     10  H   UNL     1      -4.851  12.479  19.836  0.00  0.00    +0.000 HD
BRANCH   3  14
ATOM     11  C   UNL     1      -3.200  10.673  15.717  0.00  0.00    +0.000 A 
ATOM     12  C   UNL     1      -2.226  10.621  16.715  0.00  0.00    +0.000 A 
ATOM     13  C   UNL     1      -2.480  11.176  17.977  0.00  0.00    +0.000 A 
ATOM     14  C   UNL     1      -3.701  11.806  18.258  0.00  0.00    +0.000 A 
ATOM     15  C   UNL     1      -4.676  11.811  17.251  0.00  0.00    +0.000 A 
ATOM     16  C   UNL     1      -4.430  11.266  15.989  0.00  0.00    +0.000 A 
BRANCH  11  18
ATOM     17  N   UNL     1      -2.736   9.660  13.376  0.00  0.00    +0.000 NA
ATOM     18  C   UNL     1      -2.944  10.116  14.423  0.00  0.00    +0.000 C 
ENDBRANCH  11  18
ENDBRANCH   3  14
ENDBRANCH   1   8
BRANCH   1  19
ATOM     19  C   UNL     1       0.849  10.387  20.968  0.00  0.00    +0.000 A 
ATOM     20  C   UNL     1       1.104   9.241  21.734  0.00  0.00    +0.000 A 
ATOM     21  F   UNL     1       0.820   9.218  23.046  0.00  0.00    +0.000 F 
ATOM     22  C   UNL     1       1.617   8.074  21.170  0.00  0.00    +0.000 A 
ATOM     23  C   UNL     1       1.848   7.989  19.793  0.00  0.00    +0.000 A 
ATOM     24  C   UNL     1       1.551   9.110  19.007  0.00  0.00    +0.000 A 
ATOM     25  C   UNL     1       1.078  10.287  19.595  0.00  0.00    +0.000 A 
ATOM     26  F   UNL     1       0.846  11.351  18.808  0.00  0.00    +0.000 F 
BRANCH  23  27
ATOM     27  C   UNL     1       2.363   6.751  19.192  0.00  0.00    +0.000 A 
ATOM     28  C   UNL     1       3.239   6.800  18.121  0.00  0.00    +0.000 A 
ATOM     29  S   UNL     1       3.728   5.262  17.583  0.00  0.00    +0.000 S 
ATOM     30  C   UNL     1       2.795   4.468  18.786  0.00  0.00    +0.000 A 
ATOM     31  C   UNL     1       2.710   3.073  18.991  0.00  0.00    +0.000 A 
ATOM     32  C   UNL     1       1.902   2.585  20.016  0.00  0.00    +0.000 A 
ATOM     33  C   UNL     1       1.177   3.454  20.811  0.00  0.00    +0.000 A 
ATOM     34  C   UNL     1       1.247   4.832  20.589  0.00  0.00    +0.000 A 
ATOM     35  C   UNL     1       2.087   5.377  19.580  0.00  0.00    +0.000 A 
ENDBRANCH  23  27
ENDBRANCH   1  19
TORSDOF 5
ENDMDL
MODEL 3
REMARK VINA RESULT:      -9.3      0.915      2.347
REMARK  Name = 
REMARK  5 active torsions:
REMARK  status: ('A' for Active; 'I' for Inactive)
REMARK    1  A    between atoms: C_2  and  C_3
REMARK    2  A    between atoms: C_6  and  N_7
REMARK    3  A    between atoms: C_12  and  N_13
REMARK    4  A    between atoms: N_13  and  C_14
REMARK    5  A    between atoms: C_18  and  C_19
REMARK                            x       y       z     vdW  Elec       q    Type
REMARK                         _______ _______ _______ _____ _____    ______ ____
ROOT
ATOM      1  N   UNL     1       0.334  11.611  21.563  0.00  0.00    +0.000 N 
ATOM      2  H   UNL     1       0.855  11.968  22.359  0.00  0.00    +0.000 HD
ENDROOT
BRANCH   1   8
ATOM      3  N   UNL     1      -3.884  12.476  19.563  0.00  0.00    +0.000 N 
ATOM      4  C   UNL     1      -3.068  12.401  20.695  0.00  0.00    +0.000 A 
ATOM      5  N   UNL     1      -3.670  12.589  21.875  0.00  0.00    +0.000 NA
ATOM      6  C   UNL     1      -2.922  12.384  22.973  0.00  0.00    +0.000 A 
ATOM      7  C   UNL     1      -1.598  12.009  22.939  0.00  0.00    +0.000 A 
ATOM      8  C   UNL     1      -1.041  11.904  21.689  0.00  0.00    +0.000 A 
ATOM      9  N   UNL     1      -1.776  12.075  20.585  0.00  0.00    +0.000 NA
ATOM     10  H   UNL     1      -4.837  12.590  19.878  0.00  0.00    +0.000 HD
BRANCH   3  14
ATOM     11  C   UNL     1      -3.239  10.747  15.756  0.00  0.00    +0.000 A 
ATOM     12  C   UNL     1      -2.195  10.869  16.675  0.00  0.00    +0.000 A 
ATOM     13  C   UNL     1      -2.430  11.426  17.939  0.00  0.00    +0.000 A 
ATOM     14  C   UNL     1      -3.705  11.888  18.301  0.00  0.00    +0.000 A 
ATOM     15  C   UNL     1      -4.743  11.719  17.374  0.00  0.00    +0.000 A 
ATOM     16  C   UNL     1      -4.517  11.170  16.110  0.00  0.00    +0.000 A 
BRANCH  11  18
ATOM     17  N   UNL     1      -2.817   9.733  13.408  0.00  0.00    +0.000 NA
ATOM     18  C   UNL     1      -3.003  10.187  14.460  0.00  0.00    +0.000 C 
ENDBRANCH  11  18
ENDBRANCH   3  14
ENDBRANCH   1   8
BRANCH   1  19
ATOM     19  C   UNL     1       0.831  10.364  21.107  0.00  0.00    +0.000 A 
ATOM     20  C   UNL     1       1.069   9.288  21.973  0.00  0.00    +0.000 A 
ATOM     21  F   UNL     1       0.790   9.390  23.282  0.00  0.00    +0.000 F 
ATOM     22  C   UNL     1       1.560   8.067  21.516  0.00  0.00    +0.000 A 
ATOM     23  C   UNL     1       1.785   7.853  20.152  0.00  0.00    +0.000 A 
ATOM     24  C   UNL     1       1.503   8.903  19.269  0.00  0.00    +0.000 A 
ATOM     25  C   UNL     1       1.052  10.136  19.748  0.00  0.00    +0.000 A 
ATOM     26  F   UNL     1       0.835  11.129  18.868  0.00  0.00    +0.000 F 
BRANCH  23  27
ATOM     27  C   UNL     1       2.276   6.557  19.665  0.00  0.00    +0.000 A 
ATOM     28  C   UNL     1       1.876   5.379  20.273  0.00  0.00    +0.000 A 
ATOM     29  S   UNL     1       2.544   3.991  19.552  0.00  0.00    +0.000 S 
ATOM     30  C   UNL     1       3.383   4.920  18.378  0.00  0.00    +0.000 A 
ATOM     31  C   UNL     1       4.201   4.416  17.342  0.00  0.00    +0.000 A 
ATOM     32  C   UNL     1       4.817   5.307  16.466  0.00  0.00    +0.000 A 
ATOM     33  C   UNL     1       4.647   6.671  16.621  0.00  0.00    +0.000 A 
ATOM     34  C   UNL     1       3.856   7.166  17.661  0.00  0.00    +0.000 A 
ATOM     35  C   UNL     1       3.177   6.293  18.554  0.00  0.00    +0.000 A 
ENDBRANCH  23  27
ENDBRANCH   1  19
TORSDOF 5
ENDMDL
MODEL 4
REMARK VINA RESULT:      -9.2      0.937      1.890
REMARK  Name = 
REMARK  5 active torsions:
REMARK  status: ('A' for Active; 'I' for Inactive)
REMARK    1  A    between atoms: C_2  and  C_3
REMARK    2  A    between atoms: C_6  and  N_7
REMARK    3  A    between atoms: C_12  and  N_13
REMARK    4  A    between atoms: N_13  and  C_14
REMARK    5  A    between atoms: C_18  and  C_19
REMARK                            x       y       z     vdW  Elec       q    Type
REMARK                         _______ _______ _______ _____ _____    ______ ____
ROOT
ATOM      1  N   UNL     1       0.375  11.561  21.520  0.00  0.00    +0.000 N 
ATOM      2  H   UNL     1       0.912  11.882  22.321  0.00  0.00    +0.000 HD
ENDROOT
BRANCH   1   8
ATOM      3  N   UNL     1      -3.858  12.499  19.586  0.00  0.00    +0.000 N 
ATOM      4  C   UNL     1      -3.025  12.414  20.704  0.00  0.00    +0.000 A 
ATOM      5  N   UNL     1      -3.602  12.623  21.893  0.00  0.00    +0.000 NA
ATOM      6  C   UNL     1      -2.840  12.409  22.980  0.00  0.00    +0.000 A 
ATOM      7  C   UNL     1      -1.525  12.007  22.925  0.00  0.00    +0.000 A 
ATOM      8  C   UNL     1      -0.992  11.883  21.667  0.00  0.00    +0.000 A 
ATOM      9  N   UNL     1      -1.742  12.061  20.575  0.00  0.00    +0.000 NA
ATOM     10  H   UNL     1      -4.803  12.635  19.917  0.00  0.00    +0.000 HD
BRANCH   3  14
ATOM     11  C   UNL     1      -3.312  10.725  15.784  0.00  0.00    +0.000 A 
ATOM     12  C   UNL     1      -2.272  10.758  16.717  0.00  0.00    +0.000 A 
ATOM     13  C   UNL     1      -2.477  11.333  17.979  0.00  0.00    +0.000 A 
ATOM     14  C   UNL     1      -3.713  11.898  18.325  0.00  0.00    +0.000 A 
ATOM     15  C   UNL     1      -4.750  11.817  17.385  0.00  0.00    +0.000 A 
ATOM     16  C   UNL     1      -4.554  11.253  16.123  0.00  0.00    +0.000 A 
BRANCH  11  18
ATOM     17  N   UNL     1      -2.936   9.683  13.440  0.00  0.00    +0.000 NA
ATOM     18  C   UNL     1      -3.107  10.148  14.490  0.00  0.00    +0.000 C 
ENDBRANCH  11  18
ENDBRANCH   3  14
ENDBRANCH   1   8
BRANCH   1  19
ATOM     19  C   UNL     1       0.837  10.316  21.024  0.00  0.00    +0.000 A 
ATOM     20  C   UNL     1       1.091  10.097  19.663  0.00  0.00    +0.000 A 
ATOM     21  F   UNL     1       0.944  11.090  18.772  0.00  0.00    +0.000 F 
ATOM     22  C   UNL     1       1.543   8.868  19.184  0.00  0.00    +0.000 A 
ATOM     23  C   UNL     1       1.812   7.814  20.064  0.00  0.00    +0.000 A 
ATOM     24  C   UNL     1       1.610   8.035  21.433  0.00  0.00    +0.000 A 
ATOM     25  C   UNL     1       1.115   9.259  21.892  0.00  0.00    +0.000 A 
ATOM     26  F   UNL     1       0.897   9.412  23.209  0.00  0.00    +0.000 F 
BRANCH  23  27
ATOM     27  C   UNL     1       2.314   6.528  19.565  0.00  0.00    +0.000 A 
ATOM     28  C   UNL     1       1.907   5.339  20.147  0.00  0.00    +0.000 A 
ATOM     29  S   UNL     1       2.589   3.964  19.414  0.00  0.00    +0.000 S 
ATOM     30  C   UNL     1       3.445   4.914  18.268  0.00  0.00    +0.000 A 
ATOM     31  C   UNL     1       4.281   4.428  17.238  0.00  0.00    +0.000 A 
ATOM     32  C   UNL     1       4.908   5.335  16.386  0.00  0.00    +0.000 A 
ATOM     33  C   UNL     1       4.732   6.696  16.560  0.00  0.00    +0.000 A 
ATOM     34  C   UNL     1       3.923   7.172  17.596  0.00  0.00    +0.000 A 
ATOM     35  C   UNL     1       3.233   6.283  18.464  0.00  0.00    +0.000 A 
ENDBRANCH  23  27
ENDBRANCH   1  19
TORSDOF 5
ENDMDL
MODEL 5
REMARK VINA RESULT:      -9.0      0.786      1.852
REMARK  Name = 
REMARK  5 active torsions:
REMARK  status: ('A' for Active; 'I' for Inactive)
REMARK    1  A    between atoms: C_2  and  C_3
REMARK    2  A    between atoms: C_6  and  N_7
REMARK    3  A    between atoms: C_12  and  N_13
REMARK    4  A    between atoms: N_13  and  C_14
REMARK    5  A    between atoms: C_18  and  C_19
REMARK                            x       y       z     vdW  Elec       q    Type
REMARK                         _______ _______ _______ _____ _____    ______ ____
ROOT
ATOM      1  N   UNL     1       0.889  11.219  20.936  0.00  0.00    +0.000 N 
ATOM      2  H   UNL     1       1.501  11.552  21.677  0.00  0.00    +0.000 HD
ENDROOT
BRANCH   1   8
ATOM      3  N   UNL     1      -3.493  12.262  19.438  0.00  0.00    +0.000 N 
ATOM      4  C   UNL     1      -2.567  12.110  20.473  0.00  0.00    +0.000 A 
ATOM      5  N   UNL     1      -3.040  12.241  21.717  0.00  0.00    +0.000 NA
ATOM      6  C   UNL     1      -2.187  11.962  22.719  0.00  0.00    +0.000 A 
ATOM      7  C   UNL     1      -0.882  11.568  22.526  0.00  0.00    +0.000 A 
ATOM      8  C   UNL     1      -0.459  11.526  21.221  0.00  0.00    +0.000 A 
ATOM      9  N   UNL     1      -1.301  11.771  20.211  0.00  0.00    +0.000 NA
ATOM     10  H   UNL     1      -4.406  12.373  19.857  0.00  0.00    +0.000 HD
BRANCH   3  14
ATOM     11  C   UNL     1      -3.500  10.677  15.516  0.00  0.00    +0.000 A 
ATOM     12  C   UNL     1      -4.604  11.375  16.009  0.00  0.00    +0.000 A 
ATOM     13  C   UNL     1      -4.577  11.910  17.304  0.00  0.00    +0.000 A 
ATOM     14  C   UNL     1      -3.458  11.743  18.134  0.00  0.00    +0.000 A 
ATOM     15  C   UNL     1      -2.350  11.071  17.600  0.00  0.00    +0.000 A 
ATOM     16  C   UNL     1      -2.369  10.529  16.314  0.00  0.00    +0.000 A 
BRANCH  11  18
ATOM     17  N   UNL     1      -3.543   9.673  13.126  0.00  0.00    +0.000 NA
ATOM     18  C   UNL     1      -3.524  10.120  14.197  0.00  0.00    +0.000 C 
ENDBRANCH  11  18
ENDBRANCH   3  14
ENDBRANCH   1   8
BRANCH   1  19
ATOM     19  C   UNL     1       1.313   9.976  20.403  0.00  0.00    +0.000 A 
ATOM     20  C   UNL     1       1.446   8.825  21.193  0.00  0.00    +0.000 A 
ATOM     21  F   UNL     1       1.129   8.852  22.497  0.00  0.00    +0.000 F 
ATOM     22  C   UNL     1       1.867   7.608  20.660  0.00  0.00    +0.000 A 
ATOM     23  C   UNL     1       2.123   7.479  19.291  0.00  0.00    +0.000 A 
ATOM     24  C   UNL     1       1.946   8.608  18.481  0.00  0.00    +0.000 A 
ATOM     25  C   UNL     1       1.565   9.832  19.038  0.00  0.00    +0.000 A 
ATOM     26  F   UNL     1       1.448  10.899  18.229  0.00  0.00    +0.000 F 
BRANCH  23  27
ATOM     27  C   UNL     1       2.540   6.190  18.723  0.00  0.00    +0.000 A 
ATOM     28  C   UNL     1       3.498   6.137  17.724  0.00  0.00    +0.000 A 
ATOM     29  S   UNL     1       3.851   4.553  17.214  0.00  0.00    +0.000 S 
ATOM     30  C   UNL     1       2.742   3.872  18.334  0.00  0.00    +0.000 A 
ATOM     31  C   UNL     1       2.483   2.496  18.521  0.00  0.00    +0.000 A 
ATOM     32  C   UNL     1       1.548   2.104  19.476  0.00  0.00    +0.000 A 
ATOM     33  C   UNL     1       0.865   3.050  20.218  0.00  0.00    +0.000 A 
ATOM     34  C   UNL     1       1.108   4.411  20.013  0.00  0.00    +0.000 A 
ATOM     35  C   UNL     1       2.081   4.856  19.077  0.00  0.00    +0.000 A 
ENDBRANCH  23  27
ENDBRANCH   1  19
TORSDOF 5
ENDMDL
MODEL 6
REMARK VINA RESULT:      -8.9      1.137      1.675
REMARK  Name = 
REMARK  5 active torsions:
REMARK  status: ('A' for Active; 'I' for Inactive)
REMARK    1  A    between atoms: C_2  and  C_3
REMARK    2  A    between atoms: C_6  and  N_7
REMARK    3  A    between atoms: C_12  and  N_13
REMARK    4  A    between atoms: N_13  and  C_14
REMARK    5  A    between atoms: C_18  and  C_19
REMARK                            x       y       z     vdW  Elec       q    Type
REMARK                         _______ _______ _______ _____ _____    ______ ____
ROOT
ATOM      1  N   UNL     1      -1.038  11.900  22.934  0.00  0.00    +0.000 N 
ATOM      2  H   UNL     1      -0.752  11.826  23.907  0.00  0.00    +0.000 HD
ENDROOT
BRANCH   1   8
ATOM      3  N   UNL     1      -4.878  12.763  20.280  0.00  0.00    +0.000 N 
ATOM      4  C   UNL     1      -4.265  12.656  21.530  0.00  0.00    +0.000 A 
ATOM      5  N   UNL     1      -5.063  12.779  22.596  0.00  0.00    +0.000 NA
ATOM      6  C   UNL     1      -4.507  12.542  23.798  0.00  0.00    +0.000 A 
ATOM      7  C   UNL     1      -3.187  12.197  23.975  0.00  0.00    +0.000 A 
ATOM      8  C   UNL     1      -2.423  12.159  22.835  0.00  0.00    +0.000 A 
ATOM      9  N   UNL     1      -2.964  12.362  21.630  0.00  0.00    +0.000 NA
ATOM     10  H   UNL     1      -5.874  12.843  20.432  0.00  0.00    +0.000 HD
BRANCH   3  14
ATOM     11  C   UNL     1      -3.756  11.125  16.544  0.00  0.00    +0.000 A 
ATOM     12  C   UNL     1      -5.055  11.586  16.764  0.00  0.00    +0.000 A 
ATOM     13  C   UNL     1      -5.405  12.144  18.001  0.00  0.00    +0.000 A 
ATOM     14  C   UNL     1      -4.471  12.234  19.045  0.00  0.00    +0.000 A 
ATOM     15  C   UNL     1      -3.164  11.799  18.785  0.00  0.00    +0.000 A 
ATOM     16  C   UNL     1      -2.808  11.236  17.557  0.00  0.00    +0.000 A 
BRANCH  11  18
ATOM     17  N   UNL     1      -3.101  10.081  14.263  0.00  0.00    +0.000 NA
ATOM     18  C   UNL     1      -3.395  10.546  15.286  0.00  0.00    +0.000 C 
ENDBRANCH  11  18
ENDBRANCH   3  14
ENDBRANCH   1   8
BRANCH   1  19
ATOM     19  C   UNL     1      -0.350  10.987  22.097  0.00  0.00    +0.000 A 
ATOM     20  C   UNL     1       0.036  11.310  20.789  0.00  0.00    +0.000 A 
ATOM     21  F   UNL     1      -0.198  12.534  20.290  0.00  0.00    +0.000 F 
ATOM     22  C   UNL     1       0.710  10.404  19.972  0.00  0.00    +0.000 A 
ATOM     23  C   UNL     1       1.075   9.143  20.455  0.00  0.00    +0.000 A 
ATOM     24  C   UNL     1       0.739   8.824  21.777  0.00  0.00    +0.000 A 
ATOM     25  C   UNL     1       0.025   9.728  22.569  0.00  0.00    +0.000 A 
ATOM     26  F   UNL     1      -0.312   9.364  23.817  0.00  0.00    +0.000 F 
BRANCH  23  27
ATOM     27  C   UNL     1       1.809   8.196  19.605  0.00  0.00    +0.000 A 
ATOM     28  C   UNL     1       2.376   8.614  18.413  0.00  0.00    +0.000 A 
ATOM     29  S   UNL     1       3.194   7.373  17.585  0.00  0.00    +0.000 S 
ATOM     30  C   UNL     1       2.835   6.226  18.812  0.00  0.00    +0.000 A 
ATOM     31  C   UNL     1       3.235   4.871  18.830  0.00  0.00    +0.000 A 
ATOM     32  C   UNL     1       2.860   4.066  19.904  0.00  0.00    +0.000 A 
ATOM     33  C   UNL     1       2.087   4.581  20.928  0.00  0.00    +0.000 A 
ATOM     34  C   UNL     1       1.674   5.916  20.893  0.00  0.00    +0.000 A 
ATOM     35  C   UNL     1       2.066   6.784  19.838  0.00  0.00    +0.000 A 
ENDBRANCH  23  27
ENDBRANCH   1  19
TORSDOF 5
ENDMDL
MODEL 7
REMARK VINA RESULT:      -8.9      4.793      9.143
REMARK  Name = 
REMARK  5 active torsions:
REMARK  status: ('A' for Active; 'I' for Inactive)
REMARK    1  A    between atoms: C_2  and  C_3
REMARK    2  A    between atoms: C_6  and  N_7
REMARK    3  A    between atoms: C_12  and  N_13
REMARK    4  A    between atoms: N_13  and  C_14
REMARK    5  A    between atoms: C_18  and  C_19
REMARK                            x       y       z     vdW  Elec       q    Type
REMARK                         _______ _______ _______ _____ _____    ______ ____
ROOT
ATOM      1  N   UNL     1       3.164   6.980  19.998  0.00  0.00    +0.000 N 
ATOM      2  H   UNL     1       4.043   7.389  19.695  0.00  0.00    +0.000 HD
ENDROOT
BRANCH   1   8
ATOM      3  N   UNL     1       4.052   3.355  17.065  0.00  0.00    +0.000 N 
ATOM      4  C   UNL     1       3.497   3.855  18.246  0.00  0.00    +0.000 A 
ATOM      5  N   UNL     1       2.976   2.953  19.085  0.00  0.00    +0.000 NA
ATOM      6  C   UNL     1       2.565   3.409  20.281  0.00  0.00    +0.000 A 
ATOM      7  C   UNL     1       2.645   4.728  20.666  0.00  0.00    +0.000 A 
ATOM      8  C   UNL     1       3.130   5.597  19.720  0.00  0.00    +0.000 A 
ATOM      9  N   UNL     1       3.571   5.158  18.537  0.00  0.00    +0.000 NA
ATOM     10  H   UNL     1       4.016   2.346  17.111  0.00  0.00    +0.000 HD
BRANCH   3  14
ATOM     11  C   UNL     1       7.044   4.948  14.533  0.00  0.00    +0.000 A 
ATOM     12  C   UNL     1       5.930   4.293  14.004  0.00  0.00    +0.000 A 
ATOM     13  C   UNL     1       4.939   3.788  14.856  0.00  0.00    +0.000 A 
ATOM     14  C   UNL     1       5.050   3.912  16.249  0.00  0.00    +0.000 A 
ATOM     15  C   UNL     1       6.158   4.608  16.752  0.00  0.00    +0.000 A 
ATOM     16  C   UNL     1       7.154   5.108  15.911  0.00  0.00    +0.000 A 
BRANCH  11  18
ATOM     17  N   UNL     1       8.889   5.870  12.962  0.00  0.00    +0.000 NA
ATOM     18  C   UNL     1       8.065   5.458  13.668  0.00  0.00    +0.000 C 
ENDBRANCH  11  18
ENDBRANCH   3  14
ENDBRANCH   1   8
BRANCH   1  19
ATOM     19  C   UNL     1       2.063   7.849  19.789  0.00  0.00    +0.000 A 
ATOM     20  C   UNL     1       1.197   8.227  20.824  0.00  0.00    +0.000 A 
ATOM     21  F   UNL     1       1.410   7.807  22.081  0.00  0.00    +0.000 F 
ATOM     22  C   UNL     1       0.115   9.079  20.608  0.00  0.00    +0.000 A 
ATOM     23  C   UNL     1      -0.114   9.635  19.345  0.00  0.00    +0.000 A 
ATOM     24  C   UNL     1       0.773   9.305  18.312  0.00  0.00    +0.000 A 
ATOM     25  C   UNL     1       1.827   8.415  18.535  0.00  0.00    +0.000 A 
ATOM     26  F   UNL     1       2.628   8.094  17.505  0.00  0.00    +0.000 F 
BRANCH  23  27
ATOM     27  C   UNL     1      -1.237  10.555  19.122  0.00  0.00    +0.000 A 
ATOM     28  C   UNL     1      -1.493  11.583  20.013  0.00  0.00    +0.000 A 
ATOM     29  S   UNL     1      -2.825  12.543  19.568  0.00  0.00    +0.000 S 
ATOM     30  C   UNL     1      -3.098  11.625  18.143  0.00  0.00    +0.000 A 
ATOM     31  C   UNL     1      -4.104  11.858  17.179  0.00  0.00    +0.000 A 
ATOM     32  C   UNL     1      -4.194  11.017  16.072  0.00  0.00    +0.000 A 
ATOM     33  C   UNL     1      -3.322   9.953  15.929  0.00  0.00    +0.000 A 
ATOM     34  C   UNL     1      -2.343   9.712  16.898  0.00  0.00    +0.000 A 
ATOM     35  C   UNL     1      -2.190  10.567  18.023  0.00  0.00    +0.000 A 
ENDBRANCH  23  27
ENDBRANCH   1  19
TORSDOF 5
ENDMDL
MODEL 8
REMARK VINA RESULT:      -8.9      1.065      1.909
REMARK  Name = 
REMARK  5 active torsions:
REMARK  status: ('A' for Active; 'I' for Inactive)
REMARK    1  A    between atoms: C_2  and  C_3
REMARK    2  A    between atoms: C_6  and  N_7
REMARK    3  A    between atoms: C_12  and  N_13
REMARK    4  A    between atoms: N_13  and  C_14
REMARK    5  A    between atoms: C_18  and  C_19
REMARK                            x       y       z     vdW  Elec       q    Type
REMARK                         _______ _______ _______ _____ _____    ______ ____
ROOT
ATOM      1  N   UNL     1      -0.836  12.004  22.726  0.00  0.00    +0.000 N 
ATOM      2  H   UNL     1      -0.510  12.024  23.689  0.00  0.00    +0.000 HD
ENDROOT
BRANCH   1   8
ATOM      3  N   UNL     1      -4.785  12.638  20.169  0.00  0.00    +0.000 N 
ATOM      4  C   UNL     1      -4.130  12.595  21.402  0.00  0.00    +0.000 A 
ATOM      5  N   UNL     1      -4.899  12.726  22.489  0.00  0.00    +0.000 NA
ATOM      6  C   UNL     1      -4.298  12.550  23.679  0.00  0.00    +0.000 A 
ATOM      7  C   UNL     1      -2.961  12.258  23.825  0.00  0.00    +0.000 A 
ATOM      8  C   UNL     1      -2.231  12.209  22.663  0.00  0.00    +0.000 A 
ATOM      9  N   UNL     1      -2.817  12.352  21.470  0.00  0.00    +0.000 NA
ATOM     10  H   UNL     1      -5.778  12.688  20.350  0.00  0.00    +0.000 HD
BRANCH   3  14
ATOM     11  C   UNL     1      -3.519  11.024  16.470  0.00  0.00    +0.000 A 
ATOM     12  C   UNL     1      -2.600  11.300  17.484  0.00  0.00    +0.000 A 
ATOM     13  C   UNL     1      -3.039  11.816  18.711  0.00  0.00    +0.000 A 
ATOM     14  C   UNL     1      -4.397  12.083  18.940  0.00  0.00    +0.000 A 
ATOM     15  C   UNL     1      -5.302  11.761  17.918  0.00  0.00    +0.000 A 
ATOM     16  C   UNL     1      -4.874  11.252  16.691  0.00  0.00    +0.000 A 
BRANCH  11  18
ATOM     17  N   UNL     1      -2.711  10.082  14.193  0.00  0.00    +0.000 NA
ATOM     18  C   UNL     1      -3.075  10.504  15.211  0.00  0.00    +0.000 C 
ENDBRANCH  11  18
ENDBRANCH   3  14
ENDBRANCH   1   8
BRANCH   1  19
ATOM     19  C   UNL     1      -0.150  11.042  21.943  0.00  0.00    +0.000 A 
ATOM     20  C   UNL     1       0.129   9.751  22.412  0.00  0.00    +0.000 A 
ATOM     21  F   UNL     1      -0.290   9.360  23.626  0.00  0.00    +0.000 F 
ATOM     22  C   UNL     1       0.807   8.813  21.636  0.00  0.00    +0.000 A 
ATOM     23  C   UNL     1       1.191   9.116  20.325  0.00  0.00    +0.000 A 
ATOM     24  C   UNL     1       0.874  10.385  19.825  0.00  0.00    +0.000 A 
ATOM     25  C   UNL     1       0.232  11.329  20.632  0.00  0.00    +0.000 A 
ATOM     26  F   UNL     1      -0.014  12.548  20.124  0.00  0.00    +0.000 F 
BRANCH  23  27
ATOM     27  C   UNL     1       1.881   8.119  19.496  0.00  0.00    +0.000 A 
ATOM     28  C   UNL     1       2.442   8.480  18.282  0.00  0.00    +0.000 A 
ATOM     29  S   UNL     1       3.207   7.186  17.484  0.00  0.00    +0.000 S 
ATOM     30  C   UNL     1       2.831   6.092  18.753  0.00  0.00    +0.000 A 
ATOM     31  C   UNL     1       3.188   4.726  18.810  0.00  0.00    +0.000 A 
ATOM     32  C   UNL     1       2.804   3.969  19.914  0.00  0.00    +0.000 A 
ATOM     33  C   UNL     1       2.064   4.541  20.933  0.00  0.00    +0.000 A 
ATOM     34  C   UNL     1       1.694   5.887  20.860  0.00  0.00    +0.000 A 
ATOM     35  C   UNL     1       2.096   6.707  19.772  0.00  0.00    +0.000 A 
ENDBRANCH  23  27
ENDBRANCH   1  19
TORSDOF 5
ENDMDL
MODEL 9
REMARK VINA RESULT:      -8.9      4.765      8.998
REMARK  Name = 
REMARK  5 active torsions:
REMARK  status: ('A' for Active; 'I' for Inactive)
REMARK    1  A    between atoms: C_2  and  C_3
REMARK    2  A    between atoms: C_6  and  N_7
REMARK    3  A    between atoms: C_12  and  N_13
REMARK    4  A    between atoms: N_13  and  C_14
REMARK    5  A    between atoms: C_18  and  C_19
REMARK                            x       y       z     vdW  Elec       q    Type
REMARK                         _______ _______ _______ _____ _____    ______ ____
ROOT
ATOM      1  N   UNL     1       3.212   7.056  19.909  0.00  0.00    +0.000 N 
ATOM      2  H   UNL     1       4.090   7.434  19.561  0.00  0.00    +0.000 HD
ENDROOT
BRANCH   1   8
ATOM      3  N   UNL     1       3.948   3.318  17.077  0.00  0.00    +0.000 N 
ATOM      4  C   UNL     1       3.429   3.870  18.251  0.00  0.00    +0.000 A 
ATOM      5  N   UNL     1       2.897   3.010  19.127  0.00  0.00    +0.000 NA
ATOM      6  C   UNL     1       2.520   3.515  20.315  0.00  0.00    +0.000 A 
ATOM      7  C   UNL     1       2.644   4.842  20.657  0.00  0.00    +0.000 A 
ATOM      8  C   UNL     1       3.135   5.666  19.675  0.00  0.00    +0.000 A 
ATOM      9  N   UNL     1       3.544   5.178  18.499  0.00  0.00    +0.000 NA
ATOM     10  H   UNL     1       3.885   2.312  17.156  0.00  0.00    +0.000 HD
BRANCH   3  14
ATOM     11  C   UNL     1       6.978   4.915  14.594  0.00  0.00    +0.000 A 
ATOM     12  C   UNL     1       7.103   4.939  15.985  0.00  0.00    +0.000 A 
ATOM     13  C   UNL     1       6.099   4.388  16.792  0.00  0.00    +0.000 A 
ATOM     14  C   UNL     1       4.946   3.821  16.228  0.00  0.00    +0.000 A 
ATOM     15  C   UNL     1       4.864   3.775  14.829  0.00  0.00    +0.000 A 
ATOM     16  C   UNL     1       5.857   4.327  14.017  0.00  0.00    +0.000 A 
BRANCH  11  18
ATOM     17  N   UNL     1       8.819   5.950  13.090  0.00  0.00    +0.000 NA
ATOM     18  C   UNL     1       7.996   5.484  13.764  0.00  0.00    +0.000 C 
ENDBRANCH  11  18
ENDBRANCH   3  14
ENDBRANCH   1   8
BRANCH   1  19
ATOM     19  C   UNL     1       2.126   7.945  19.712  0.00  0.00    +0.000 A 
ATOM     20  C   UNL     1       1.851   8.532  18.468  0.00  0.00    +0.000 A 
ATOM     21  F   UNL     1       2.596   8.233  17.392  0.00  0.00    +0.000 F 
ATOM     22  C   UNL     1       0.783   9.408  18.285  0.00  0.00    +0.000 A 
ATOM     23  C   UNL     1      -0.095   9.692  19.336  0.00  0.00    +0.000 A 
ATOM     24  C   UNL     1       0.138   9.074  20.571  0.00  0.00    +0.000 A 
ATOM     25  C   UNL     1       1.239   8.233  20.750  0.00  0.00    +0.000 A 
ATOM     26  F   UNL     1       1.448   7.694  21.964  0.00  0.00    +0.000 F 
BRANCH  23  27
ATOM     27  C   UNL     1      -1.239  10.593  19.137  0.00  0.00    +0.000 A 
ATOM     28  C   UNL     1      -1.504  11.605  20.045  0.00  0.00    +0.000 A 
ATOM     29  S   UNL     1      -2.860  12.544  19.626  0.00  0.00    +0.000 S 
ATOM     30  C   UNL     1      -3.131  11.638  18.193  0.00  0.00    +0.000 A 
ATOM     31  C   UNL     1      -4.153  11.864  17.244  0.00  0.00    +0.000 A 
ATOM     32  C   UNL     1      -4.239  11.034  16.128  0.00  0.00    +0.000 A 
ATOM     33  C   UNL     1      -3.349   9.989  15.961  0.00  0.00    +0.000 A 
ATOM     34  C   UNL     1      -2.354   9.756  16.916  0.00  0.00    +0.000 A 
ATOM     35  C   UNL     1      -2.204  10.600  18.049  0.00  0.00    +0.000 A 
ENDBRANCH  23  27
ENDBRANCH   1  19
TORSDOF 5
ENDMDL
