MODEL 1
REMARK VINA RESULT:      -6.7      0.000      0.000
REMARK  Name = 
REMARK  10 active torsions:
REMARK  status: ('A' for Active; 'I' for Inactive)
REMARK    1  A    between atoms: C_1  and  O_2
REMARK    2  A    between atoms: O_2  and  C_3
REMARK    3  A    between atoms: C_8  and  C_9
REMARK    4  A    between atoms: C_9  and  N_10
REMARK    5  A    between atoms: N_10  and  C_11
REMARK    6  A    between atoms: C_12  and  C_14
REMARK    7  A    between atoms: C_14  and  S_15
REMARK    8  A    between atoms: S_15  and  C_17
REMARK    9  A    between atoms: C_17  and  C_18
REMARK   10  A    between atoms: C_20  and  C_21
REMARK                            x       y       z     vdW  Elec       q    Type
REMARK                         _______ _______ _______ _____ _____    ______ ____
ROOT
ATOM      1  N   UNL     1       3.494   3.122  17.824  0.00  0.00    +0.000 N 
ATOM      2  C   UNL     1       2.482   3.627  16.911  0.00  0.00    +0.000 C 
ATOM      3  C   UNL     1       3.186   2.561  19.064  0.00  0.00    +0.000 C 
ATOM      4  O   UNL     1       4.021   1.930  19.716  0.00  0.00    +0.000 OA
ENDROOT
BRANCH   1   5
ATOM      5  C   UNL     1       4.887   3.115  17.350  0.00  0.00    +0.000 C 
BRANCH   5  11
ATOM      6  C   UNL     1       5.980   5.246  16.426  0.00  0.00    +0.000 A 
ATOM      7  C   UNL     1       6.911   6.283  16.593  0.00  0.00    +0.000 A 
ATOM      8  C   UNL     1       7.447   6.566  17.848  0.00  0.00    +0.000 A 
ATOM      9  C   UNL     1       7.055   5.815  18.947  0.00  0.00    +0.000 A 
ATOM     10  C   UNL     1       6.174   4.746  18.784  0.00  0.00    +0.000 A 
ATOM     11  C   UNL     1       5.644   4.421  17.520  0.00  0.00    +0.000 A 
BRANCH   6  13
ATOM     12  C   UNL     1       6.251   4.434  14.215  0.00  0.00    +0.000 C 
ATOM     13  O   UNL     1       5.388   4.971  15.218  0.00  0.00    +0.000 OA
ENDBRANCH   6  13
ENDBRANCH   5  11
ENDBRANCH   1   5
BRANCH   3  14
ATOM     14  C   UNL     1       1.755   2.716  19.565  0.00  0.00    +0.000 C 
BRANCH  14  15
ATOM     15  S   UNL     1       1.650   3.994  20.864  0.00  0.00    +0.000 S 
ATOM     16  O   UNL     1       2.149   3.335  22.202  0.00  0.00    +0.000 OA
BRANCH  15  17
ATOM     17  C   UNL     1       3.023   5.020  20.224  0.00  0.00    +0.000 C 
BRANCH  17  18
ATOM     18  C   UNL     1       2.541   6.365  19.804  0.00  0.00    +0.000 A 
ATOM     19  C   UNL     1       2.736   7.025  18.568  0.00  0.00    +0.000 A 
ATOM     20  C   UNL     1       2.054   8.206  18.696  0.00  0.00    +0.000 A 
ATOM     21  C   UNL     1       1.835   9.361  17.808  0.00  0.00    +0.000 C 
ATOM     22  O   UNL     1       1.472   8.257  19.922  0.00  0.00    +0.000 OA
ATOM     23  N   UNL     1       1.769   7.096  20.624  0.00  0.00    +0.000 NA
ENDBRANCH  17  18
ENDBRANCH  15  17
ENDBRANCH  14  15
ENDBRANCH   3  14
TORSDOF 7
ENDMDL
MODEL 2
REMARK VINA RESULT:      -6.6      2.480      5.966
REMARK  Name = 
REMARK  10 active torsions:
REMARK  status: ('A' for Active; 'I' for Inactive)
REMARK    1  A    between atoms: C_1  and  O_2
REMARK    2  A    between atoms: O_2  and  C_3
REMARK    3  A    between atoms: C_8  and  C_9
REMARK    4  A    between atoms: C_9  and  N_10
REMARK    5  A    between atoms: N_10  and  C_11
REMARK    6  A    between atoms: C_12  and  C_14
REMARK    7  A    between atoms: C_14  and  S_15
REMARK    8  A    between atoms: S_15  and  C_17
REMARK    9  A    between atoms: C_17  and  C_18
REMARK   10  A    between atoms: C_20  and  C_21
REMARK                            x       y       z     vdW  Elec       q    Type
REMARK                         _______ _______ _______ _____ _____    ______ ____
ROOT
ATOM      1  N   UNL     1       2.566   4.953  19.528  0.00  0.00    +0.000 N 
ATOM      2  C   UNL     1       1.581   4.237  18.734  0.00  0.00    +0.000 C 
ATOM      3  C   UNL     1       3.940   4.733  19.413  0.00  0.00    +0.000 C 
ATOM      4  O   UNL     1       4.764   5.501  19.913  0.00  0.00    +0.000 OA
ENDROOT
BRANCH   1   5
ATOM      5  C   UNL     1       2.074   6.025  20.407  0.00  0.00    +0.000 C 
BRANCH   5  11
ATOM      6  C   UNL     1       1.273   8.463  20.378  0.00  0.00    +0.000 A 
ATOM      7  C   UNL     1       0.967   9.615  19.634  0.00  0.00    +0.000 A 
ATOM      8  C   UNL     1       1.419   9.759  18.324  0.00  0.00    +0.000 A 
ATOM      9  C   UNL     1       2.183   8.755  17.747  0.00  0.00    +0.000 A 
ATOM     10  C   UNL     1       2.446   7.582  18.455  0.00  0.00    +0.000 A 
ATOM     11  C   UNL     1       1.972   7.401  19.769  0.00  0.00    +0.000 A 
BRANCH   6  13
ATOM     12  C   UNL     1       1.150   9.421  22.543  0.00  0.00    +0.000 C 
ATOM     13  O   UNL     1       0.893   8.307  21.687  0.00  0.00    +0.000 OA
ENDBRANCH   6  13
ENDBRANCH   5  11
ENDBRANCH   1   5
BRANCH   3  14
ATOM     14  C   UNL     1       4.388   3.526  18.598  0.00  0.00    +0.000 C 
BRANCH  14  15
ATOM     15  S   UNL     1       5.067   4.042  16.983  0.00  0.00    +0.000 S 
ATOM     16  O   UNL     1       4.507   5.481  16.685  0.00  0.00    +0.000 OA
BRANCH  15  17
ATOM     17  C   UNL     1       6.790   4.245  17.565  0.00  0.00    +0.000 C 
BRANCH  17  18
ATOM     18  C   UNL     1       7.242   5.657  17.431  0.00  0.00    +0.000 A 
ATOM     19  C   UNL     1       7.552   6.584  18.454  0.00  0.00    +0.000 A 
ATOM     20  C   UNL     1       7.952   7.713  17.789  0.00  0.00    +0.000 A 
ATOM     21  C   UNL     1       8.408   9.046  18.219  0.00  0.00    +0.000 C 
ATOM     22  O   UNL     1       7.902   7.485  16.450  0.00  0.00    +0.000 OA
ATOM     23  N   UNL     1       7.462   6.188  16.218  0.00  0.00    +0.000 NA
ENDBRANCH  17  18
ENDBRANCH  15  17
ENDBRANCH  14  15
ENDBRANCH   3  14
TORSDOF 7
ENDMDL
MODEL 3
REMARK VINA RESULT:      -6.4      2.534      6.254
REMARK  Name = 
REMARK  10 active torsions:
REMARK  status: ('A' for Active; 'I' for Inactive)
REMARK    1  A    between atoms: C_1  and  O_2
REMARK    2  A    between atoms: O_2  and  C_3
REMARK    3  A    between atoms: C_8  and  C_9
REMARK    4  A    between atoms: C_9  and  N_10
REMARK    5  A    between atoms: N_10  and  C_11
REMARK    6  A    between atoms: C_12  and  C_14
REMARK    7  A    between atoms: C_14  and  S_15
REMARK    8  A    between atoms: S_15  and  C_17
REMARK    9  A    between atoms: C_17  and  C_18
REMARK   10  A    between atoms: C_20  and  C_21
REMARK                            x       y       z     vdW  Elec       q    Type
REMARK                         _______ _______ _______ _____ _____    ______ ____
ROOT
ATOM      1  N   UNL     1       3.131   5.140  17.316  0.00  0.00    +0.000 N 
ATOM      2  C   UNL     1       3.597   3.912  16.691  0.00  0.00    +0.000 C 
ATOM      3  C   UNL     1       3.854   6.333  17.280  0.00  0.00    +0.000 C 
ATOM      4  O   UNL     1       3.348   7.409  17.603  0.00  0.00    +0.000 OA
ENDROOT
BRANCH   1   5
ATOM      5  C   UNL     1       1.786   5.124  17.912  0.00  0.00    +0.000 C 
BRANCH   5  11
ATOM      6  C   UNL     1       2.033   5.175  20.466  0.00  0.00    +0.000 A 
ATOM      7  C   UNL     1       2.194   4.467  21.668  0.00  0.00    +0.000 A 
ATOM      8  C   UNL     1       1.932   3.100  21.732  0.00  0.00    +0.000 A 
ATOM      9  C   UNL     1       1.504   2.430  20.595  0.00  0.00    +0.000 A 
ATOM     10  C   UNL     1       1.395   3.109  19.382  0.00  0.00    +0.000 A 
ATOM     11  C   UNL     1       1.686   4.484  19.287  0.00  0.00    +0.000 A 
BRANCH   6  13
ATOM     12  C   UNL     1       1.382   7.334  21.197  0.00  0.00    +0.000 C 
ATOM     13  O   UNL     1       2.228   6.531  20.375  0.00  0.00    +0.000 OA
ENDBRANCH   6  13
ENDBRANCH   5  11
ENDBRANCH   1   5
BRANCH   3  14
ATOM     14  C   UNL     1       5.291   6.264  16.776  0.00  0.00    +0.000 C 
BRANCH  14  15
ATOM     15  S   UNL     1       6.460   6.033  18.159  0.00  0.00    +0.000 S 
ATOM     16  O   UNL     1       5.643   5.430  19.359  0.00  0.00    +0.000 OA
BRANCH  15  17
ATOM     17  C   UNL     1       7.384   4.654  17.390  0.00  0.00    +0.000 C 
BRANCH  17  18
ATOM     18  C   UNL     1       7.137   4.590  15.923  0.00  0.00    +0.000 A 
ATOM     19  C   UNL     1       6.349   3.663  15.201  0.00  0.00    +0.000 A 
ATOM     20  C   UNL     1       6.428   4.081  13.899  0.00  0.00    +0.000 A 
ATOM     21  C   UNL     1       5.862   3.589  12.631  0.00  0.00    +0.000 C 
ATOM     22  O   UNL     1       7.201   5.196  13.833  0.00  0.00    +0.000 OA
ATOM     23  N   UNL     1       7.646   5.527  15.106  0.00  0.00    +0.000 NA
ENDBRANCH  17  18
ENDBRANCH  15  17
ENDBRANCH  14  15
ENDBRANCH   3  14
TORSDOF 7
ENDMDL
MODEL 4
REMARK VINA RESULT:      -6.4      2.842      6.764
REMARK  Name = 
REMARK  10 active torsions:
REMARK  status: ('A' for Active; 'I' for Inactive)
REMARK    1  A    between atoms: C_1  and  O_2
REMARK    2  A    between atoms: O_2  and  C_3
REMARK    3  A    between atoms: C_8  and  C_9
REMARK    4  A    between atoms: C_9  and  N_10
REMARK    5  A    between atoms: N_10  and  C_11
REMARK    6  A    between atoms: C_12  and  C_14
REMARK    7  A    between atoms: C_14  and  S_15
REMARK    8  A    between atoms: S_15  and  C_17
REMARK    9  A    between atoms: C_17  and  C_18
REMARK   10  A    between atoms: C_20  and  C_21
REMARK                            x       y       z     vdW  Elec       q    Type
REMARK                         _______ _______ _______ _____ _____    ______ ____
ROOT
ATOM      1  N   UNL     1       5.065   5.343  18.984  0.00  0.00    +0.000 N 
ATOM      2  C   UNL     1       4.096   6.020  18.138  0.00  0.00    +0.000 C 
ATOM      3  C   UNL     1       6.417   5.691  19.019  0.00  0.00    +0.000 C 
ATOM      4  O   UNL     1       7.171   5.274  19.900  0.00  0.00    +0.000 OA
ENDROOT
BRANCH   1   5
ATOM      5  C   UNL     1       4.554   4.322  19.911  0.00  0.00    +0.000 C 
BRANCH   5  11
ATOM      6  C   UNL     1       2.017   4.296  20.297  0.00  0.00    +0.000 A 
ATOM      7  C   UNL     1       0.798   3.606  20.198  0.00  0.00    +0.000 A 
ATOM      8  C   UNL     1       0.672   2.494  19.368  0.00  0.00    +0.000 A 
ATOM      9  C   UNL     1       1.763   2.064  18.627  0.00  0.00    +0.000 A 
ATOM     10  C   UNL     1       2.995   2.705  18.759  0.00  0.00    +0.000 A 
ATOM     11  C   UNL     1       3.154   3.811  19.618  0.00  0.00    +0.000 A 
BRANCH   6  13
ATOM     12  C   UNL     1       1.342   6.533  20.696  0.00  0.00    +0.000 C 
ATOM     13  O   UNL     1       2.167   5.426  21.061  0.00  0.00    +0.000 OA
ENDBRANCH   6  13
ENDBRANCH   5  11
ENDBRANCH   1   5
BRANCH   3  14
ATOM     14  C   UNL     1       6.919   6.652  17.949  0.00  0.00    +0.000 C 
BRANCH  14  15
ATOM     15  S   UNL     1       7.637   5.745  16.537  0.00  0.00    +0.000 S 
ATOM     16  O   UNL     1       7.949   4.286  17.036  0.00  0.00    +0.000 OA
BRANCH  15  17
ATOM     17  C   UNL     1       6.089   5.662  15.565  0.00  0.00    +0.000 C 
BRANCH  17  18
ATOM     18  C   UNL     1       6.270   4.850  14.330  0.00  0.00    +0.000 A 
ATOM     19  C   UNL     1       5.414   3.859  13.793  0.00  0.00    +0.000 A 
ATOM     20  C   UNL     1       6.028   3.463  12.635  0.00  0.00    +0.000 A 
ATOM     21  C   UNL     1       5.700   2.478  11.589  0.00  0.00    +0.000 C 
ATOM     22  O   UNL     1       7.174   4.173  12.470  0.00  0.00    +0.000 OA
ATOM     23  N   UNL     1       7.330   5.055  13.531  0.00  0.00    +0.000 NA
ENDBRANCH  17  18
ENDBRANCH  15  17
ENDBRANCH  14  15
ENDBRANCH   3  14
TORSDOF 7
ENDMDL
MODEL 5
REMARK VINA RESULT:      -6.3      2.343      6.391
REMARK  Name = 
REMARK  10 active torsions:
REMARK  status: ('A' for Active; 'I' for Inactive)
REMARK    1  A    between atoms: C_1  and  O_2
REMARK    2  A    between atoms: O_2  and  C_3
REMARK    3  A    between atoms: C_8  and  C_9
REMARK    4  A    between atoms: C_9  and  N_10
REMARK    5  A    between atoms: N_10  and  C_11
REMARK    6  A    between atoms: C_12  and  C_14
REMARK    7  A    between atoms: C_14  and  S_15
REMARK    8  A    between atoms: S_15  and  C_17
REMARK    9  A    between atoms: C_17  and  C_18
REMARK   10  A    between atoms: C_20  and  C_21
REMARK                            x       y       z     vdW  Elec       q    Type
REMARK                         _______ _______ _______ _____ _____    ______ ____
ROOT
ATOM      1  N   UNL     1       2.574   5.013  19.853  0.00  0.00    +0.000 N 
ATOM      2  C   UNL     1       1.470   4.243  19.304  0.00  0.00    +0.000 C 
ATOM      3  C   UNL     1       3.912   4.729  19.573  0.00  0.00    +0.000 C 
ATOM      4  O   UNL     1       4.815   5.522  19.849  0.00  0.00    +0.000 OA
ENDROOT
BRANCH   1   5
ATOM      5  C   UNL     1       2.236   6.202  20.650  0.00  0.00    +0.000 C 
BRANCH   5  11
ATOM      6  C   UNL     1       1.158   8.507  20.309  0.00  0.00    +0.000 A 
ATOM      7  C   UNL     1       0.769   9.528  19.427  0.00  0.00    +0.000 A 
ATOM      8  C   UNL     1       1.285   9.590  18.135  0.00  0.00    +0.000 A 
ATOM      9  C   UNL     1       2.198   8.634  17.713  0.00  0.00    +0.000 A 
ATOM     10  C   UNL     1       2.550   7.582  18.560  0.00  0.00    +0.000 A 
ATOM     11  C   UNL     1       2.015   7.481  19.859  0.00  0.00    +0.000 A 
BRANCH   6  13
ATOM     12  C   UNL     1       1.280   9.398  22.502  0.00  0.00    +0.000 C 
ATOM     13  O   UNL     1       0.714   8.441  21.606  0.00  0.00    +0.000 OA
ENDBRANCH   6  13
ENDBRANCH   5  11
ENDBRANCH   1   5
BRANCH   3  14
ATOM     14  C   UNL     1       4.213   3.416  18.861  0.00  0.00    +0.000 C 
BRANCH  14  15
ATOM     15  S   UNL     1       4.401   3.673  17.063  0.00  0.00    +0.000 S 
ATOM     16  O   UNL     1       3.586   4.966  16.693  0.00  0.00    +0.000 OA
BRANCH  15  17
ATOM     17  C   UNL     1       6.166   4.150  17.130  0.00  0.00    +0.000 C 
BRANCH  17  18
ATOM     18  C   UNL     1       6.687   4.481  15.774  0.00  0.00    +0.000 A 
ATOM     19  C   UNL     1       6.334   3.908  14.530  0.00  0.00    +0.000 A 
ATOM     20  C   UNL     1       7.072   4.602  13.608  0.00  0.00    +0.000 A 
ATOM     21  C   UNL     1       7.202   4.534  12.142  0.00  0.00    +0.000 C 
ATOM     22  O   UNL     1       7.815   5.543  14.246  0.00  0.00    +0.000 OA
ATOM     23  N   UNL     1       7.572   5.478  15.612  0.00  0.00    +0.000 NA
ENDBRANCH  17  18
ENDBRANCH  15  17
ENDBRANCH  14  15
ENDBRANCH   3  14
TORSDOF 7
ENDMDL
MODEL 6
REMARK VINA RESULT:      -6.3      1.306      1.501
REMARK  Name = 
REMARK  10 active torsions:
REMARK  status: ('A' for Active; 'I' for Inactive)
REMARK    1  A    between atoms: C_1  and  O_2
REMARK    2  A    between atoms: O_2  and  C_3
REMARK    3  A    between atoms: C_8  and  C_9
REMARK    4  A    between atoms: C_9  and  N_10
REMARK    5  A    between atoms: N_10  and  C_11
REMARK    6  A    between atoms: C_12  and  C_14
REMARK    7  A    between atoms: C_14  and  S_15
REMARK    8  A    between atoms: S_15  and  C_17
REMARK    9  A    between atoms: C_17  and  C_18
REMARK   10  A    between atoms: C_20  and  C_21
REMARK                            x       y       z     vdW  Elec       q    Type
REMARK                         _______ _______ _______ _____ _____    ______ ____
ROOT
ATOM      1  N   UNL     1       3.399   3.252  17.607  0.00  0.00    +0.000 N 
ATOM      2  C   UNL     1       4.442   2.690  18.448  0.00  0.00    +0.000 C 
ATOM      3  C   UNL     1       2.066   3.348  18.011  0.00  0.00    +0.000 C 
ATOM      4  O   UNL     1       1.248   4.032  17.392  0.00  0.00    +0.000 OA
ENDROOT
BRANCH   1   5
ATOM      5  C   UNL     1       3.811   3.836  16.321  0.00  0.00    +0.000 C 
BRANCH   5  11
ATOM      6  C   UNL     1       6.222   4.525  15.772  0.00  0.00    +0.000 A 
ATOM      7  C   UNL     1       7.347   5.303  16.090  0.00  0.00    +0.000 A 
ATOM      8  C   UNL     1       7.238   6.401  16.941  0.00  0.00    +0.000 A 
ATOM      9  C   UNL     1       6.003   6.733  17.479  0.00  0.00    +0.000 A 
ATOM     10  C   UNL     1       4.889   5.936  17.216  0.00  0.00    +0.000 A 
ATOM     11  C   UNL     1       4.982   4.802  16.384  0.00  0.00    +0.000 A 
BRANCH   6  13
ATOM     12  C   UNL     1       6.218   3.812  13.511  0.00  0.00    +0.000 C 
ATOM     13  O   UNL     1       6.277   3.470  14.896  0.00  0.00    +0.000 OA
ENDBRANCH   6  13
ENDBRANCH   5  11
ENDBRANCH   1   5
BRANCH   3  14
ATOM     14  C   UNL     1       1.667   2.611  19.283  0.00  0.00    +0.000 C 
BRANCH  14  15
ATOM     15  S   UNL     1       1.157   3.783  20.587  0.00  0.00    +0.000 S 
ATOM     16  O   UNL     1       1.261   3.022  21.959  0.00  0.00    +0.000 OA
BRANCH  15  17
ATOM     17  C   UNL     1       2.630   4.858  20.454  0.00  0.00    +0.000 C 
BRANCH  17  18
ATOM     18  C   UNL     1       2.251   6.251  20.088  0.00  0.00    +0.000 A 
ATOM     19  C   UNL     1       2.471   6.933  18.867  0.00  0.00    +0.000 A 
ATOM     20  C   UNL     1       1.891   8.161  19.048  0.00  0.00    +0.000 A 
ATOM     21  C   UNL     1       1.748   9.357  18.202  0.00  0.00    +0.000 C 
ATOM     22  O   UNL     1       1.343   8.218  20.290  0.00  0.00    +0.000 OA
ATOM     23  N   UNL     1       1.560   7.016  20.948  0.00  0.00    +0.000 NA
ENDBRANCH  17  18
ENDBRANCH  15  17
ENDBRANCH  14  15
ENDBRANCH   3  14
TORSDOF 7
ENDMDL
MODEL 7
REMARK VINA RESULT:      -6.3      2.854      6.674
REMARK  Name = 
REMARK  10 active torsions:
REMARK  status: ('A' for Active; 'I' for Inactive)
REMARK    1  A    between atoms: C_1  and  O_2
REMARK    2  A    between atoms: O_2  and  C_3
REMARK    3  A    between atoms: C_8  and  C_9
REMARK    4  A    between atoms: C_9  and  N_10
REMARK    5  A    between atoms: N_10  and  C_11
REMARK    6  A    between atoms: C_12  and  C_14
REMARK    7  A    between atoms: C_14  and  S_15
REMARK    8  A    between atoms: S_15  and  C_17
REMARK    9  A    between atoms: C_17  and  C_18
REMARK   10  A    between atoms: C_20  and  C_21
REMARK                            x       y       z     vdW  Elec       q    Type
REMARK                         _______ _______ _______ _____ _____    ______ ____
ROOT
ATOM      1  N   UNL     1       4.736   5.702  18.546  0.00  0.00    +0.000 N 
ATOM      2  C   UNL     1       3.998   6.378  17.493  0.00  0.00    +0.000 C 
ATOM      3  C   UNL     1       6.115   5.490  18.492  0.00  0.00    +0.000 C 
ATOM      4  O   UNL     1       6.756   5.132  19.483  0.00  0.00    +0.000 OA
ENDROOT
BRANCH   1   5
ATOM      5  C   UNL     1       3.992   5.329  19.759  0.00  0.00    +0.000 C 
BRANCH   5  11
ATOM      6  C   UNL     1       3.433   2.848  19.410  0.00  0.00    +0.000 A 
ATOM      7  C   UNL     1       2.512   1.876  18.989  0.00  0.00    +0.000 A 
ATOM      8  C   UNL     1       1.163   2.189  18.836  0.00  0.00    +0.000 A 
ATOM      9  C   UNL     1       0.723   3.477  19.106  0.00  0.00    +0.000 A 
ATOM     10  C   UNL     1       1.637   4.466  19.470  0.00  0.00    +0.000 A 
ATOM     11  C   UNL     1       3.010   4.180  19.599  0.00  0.00    +0.000 A 
BRANCH   6  13
ATOM     12  C   UNL     1       5.033   1.640  20.676  0.00  0.00    +0.000 C 
ATOM     13  O   UNL     1       4.760   2.566  19.624  0.00  0.00    +0.000 OA
ENDBRANCH   6  13
ENDBRANCH   5  11
ENDBRANCH   1   5
BRANCH   3  14
ATOM     14  C   UNL     1       6.813   5.767  17.166  0.00  0.00    +0.000 C 
BRANCH  14  15
ATOM     15  S   UNL     1       6.967   4.242  16.176  0.00  0.00    +0.000 S 
ATOM     16  O   UNL     1       5.568   3.526  16.208  0.00  0.00    +0.000 OA
BRANCH  15  17
ATOM     17  C   UNL     1       7.103   5.086  14.558  0.00  0.00    +0.000 C 
BRANCH  17  18
ATOM     18  C   UNL     1       6.447   4.296  13.480  0.00  0.00    +0.000 A 
ATOM     19  C   UNL     1       5.076   4.243  13.136  0.00  0.00    +0.000 A 
ATOM     20  C   UNL     1       5.023   3.403  12.054  0.00  0.00    +0.000 A 
ATOM     21  C   UNL     1       3.932   2.904  11.200  0.00  0.00    +0.000 C 
ATOM     22  O   UNL     1       6.280   2.983  11.752  0.00  0.00    +0.000 OA
ATOM     23  N   UNL     1       7.183   3.548  12.642  0.00  0.00    +0.000 NA
ENDBRANCH  17  18
ENDBRANCH  15  17
ENDBRANCH  14  15
ENDBRANCH   3  14
TORSDOF 7
ENDMDL
MODEL 8
REMARK VINA RESULT:      -6.3      3.205      5.608
REMARK  Name = 
REMARK  10 active torsions:
REMARK  status: ('A' for Active; 'I' for Inactive)
REMARK    1  A    between atoms: C_1  and  O_2
REMARK    2  A    between atoms: O_2  and  C_3
REMARK    3  A    between atoms: C_8  and  C_9
REMARK    4  A    between atoms: C_9  and  N_10
REMARK    5  A    between atoms: N_10  and  C_11
REMARK    6  A    between atoms: C_12  and  C_14
REMARK    7  A    between atoms: C_14  and  S_15
REMARK    8  A    between atoms: S_15  and  C_17
REMARK    9  A    between atoms: C_17  and  C_18
REMARK   10  A    between atoms: C_20  and  C_21
REMARK                            x       y       z     vdW  Elec       q    Type
REMARK                         _______ _______ _______ _____ _____    ______ ____
ROOT
ATOM      1  N   UNL     1       2.711   6.943  19.360  0.00  0.00    +0.000 N 
ATOM      2  C   UNL     1       3.015   7.182  17.958  0.00  0.00    +0.000 C 
ATOM      3  C   UNL     1       1.842   7.748  20.097  0.00  0.00    +0.000 C 
ATOM      4  O   UNL     1       1.416   7.401  21.201  0.00  0.00    +0.000 OA
ENDROOT
BRANCH   1   5
ATOM      5  C   UNL     1       3.275   5.731  19.974  0.00  0.00    +0.000 C 
BRANCH   5  11
ATOM      6  C   UNL     1       3.091   3.579  18.586  0.00  0.00    +0.000 A 
ATOM      7  C   UNL     1       2.287   2.543  18.084  0.00  0.00    +0.000 A 
ATOM      8  C   UNL     1       1.032   2.285  18.631  0.00  0.00    +0.000 A 
ATOM      9  C   UNL     1       0.571   3.059  19.686  0.00  0.00    +0.000 A 
ATOM     10  C   UNL     1       1.335   4.126  20.157  0.00  0.00    +0.000 A 
ATOM     11  C   UNL     1       2.593   4.426  19.598  0.00  0.00    +0.000 A 
BRANCH   6  13
ATOM     12  C   UNL     1       4.462   4.000  16.698  0.00  0.00    +0.000 C 
ATOM     13  O   UNL     1       4.355   3.831  18.112  0.00  0.00    +0.000 OA
ENDBRANCH   6  13
ENDBRANCH   5  11
ENDBRANCH   1   5
BRANCH   3  14
ATOM     14  C   UNL     1       1.395   9.059  19.461  0.00  0.00    +0.000 C 
BRANCH  14  15
ATOM     15  S   UNL     1       0.186   9.922  20.522  0.00  0.00    +0.000 S 
ATOM     16  O   UNL     1       0.960  10.414  21.800  0.00  0.00    +0.000 OA
BRANCH  15  17
ATOM     17  C   UNL     1      -0.018  11.372  19.426  0.00  0.00    +0.000 C 
BRANCH  17  18
ATOM     18  C   UNL     1      -1.123  11.159  18.450  0.00  0.00    +0.000 A 
ATOM     19  C   UNL     1      -1.236  10.166  17.449  0.00  0.00    +0.000 A 
ATOM     20  C   UNL     1      -2.456  10.396  16.869  0.00  0.00    +0.000 A 
ATOM     21  C   UNL     1      -3.206   9.753  15.777  0.00  0.00    +0.000 C 
ATOM     22  O   UNL     1      -3.052  11.451  17.485  0.00  0.00    +0.000 OA
ATOM     23  N   UNL     1      -2.221  11.933  18.487  0.00  0.00    +0.000 NA
ENDBRANCH  17  18
ENDBRANCH  15  17
ENDBRANCH  14  15
ENDBRANCH   3  14
TORSDOF 7
ENDMDL
MODEL 9
REMARK VINA RESULT:      -6.1      0.984      1.066
REMARK  Name = 
REMARK  10 active torsions:
REMARK  status: ('A' for Active; 'I' for Inactive)
REMARK    1  A    between atoms: C_1  and  O_2
REMARK    2  A    between atoms: O_2  and  C_3
REMARK    3  A    between atoms: C_8  and  C_9
REMARK    4  A    between atoms: C_9  and  N_10
REMARK    5  A    between atoms: N_10  and  C_11
REMARK    6  A    between atoms: C_12  and  C_14
REMARK    7  A    between atoms: C_14  and  S_15
REMARK    8  A    between atoms: S_15  and  C_17
REMARK    9  A    between atoms: C_17  and  C_18
REMARK   10  A    between atoms: C_20  and  C_21
REMARK                            x       y       z     vdW  Elec       q    Type
REMARK                         _______ _______ _______ _____ _____    ______ ____
ROOT
ATOM      1  N   UNL     1       3.176   3.148  17.822  0.00  0.00    +0.000 N 
ATOM      2  C   UNL     1       2.317   3.943  16.960  0.00  0.00    +0.000 C 
ATOM      3  C   UNL     1       2.703   2.458  18.939  0.00  0.00    +0.000 C 
ATOM      4  O   UNL     1       3.386   1.610  19.516  0.00  0.00    +0.000 OA
ENDROOT
BRANCH   1   5
ATOM      5  C   UNL     1       4.581   2.993  17.415  0.00  0.00    +0.000 C 
BRANCH   5  11
ATOM      6  C   UNL     1       6.093   4.859  16.509  0.00  0.00    +0.000 A 
ATOM      7  C   UNL     1       7.103   5.805  16.750  0.00  0.00    +0.000 A 
ATOM      8  C   UNL     1       7.427   6.189  18.050  0.00  0.00    +0.000 A 
ATOM      9  C   UNL     1       6.742   5.632  19.120  0.00  0.00    +0.000 A 
ATOM     10  C   UNL     1       5.776   4.650  18.898  0.00  0.00    +0.000 A 
ATOM     11  C   UNL     1       5.455   4.223  17.595  0.00  0.00    +0.000 A 
BRANCH   6  13
ATOM     12  C   UNL     1       6.659   4.750  14.210  0.00  0.00    +0.000 C 
ATOM     13  O   UNL     1       5.708   4.496  15.243  0.00  0.00    +0.000 OA
ENDBRANCH   6  13
ENDBRANCH   5  11
ENDBRANCH   1   5
BRANCH   3  14
ATOM     14  C   UNL     1       1.280   2.759  19.394  0.00  0.00    +0.000 C 
BRANCH  14  15
ATOM     15  S   UNL     1       1.278   3.726  20.943  0.00  0.00    +0.000 S 
ATOM     16  O   UNL     1       1.733   2.756  22.094  0.00  0.00    +0.000 OA
BRANCH  15  17
ATOM     17  C   UNL     1       2.721   4.765  20.513  0.00  0.00    +0.000 C 
BRANCH  17  18
ATOM     18  C   UNL     1       2.303   6.151  20.163  0.00  0.00    +0.000 A 
ATOM     19  C   UNL     1       1.498   7.044  20.909  0.00  0.00    +0.000 A 
ATOM     20  C   UNL     1       1.462   8.188  20.156  0.00  0.00    +0.000 A 
ATOM     21  C   UNL     1       0.818   9.502  20.323  0.00  0.00    +0.000 C 
ATOM     22  O   UNL     1       2.206   8.009  19.033  0.00  0.00    +0.000 OA
ATOM     23  N   UNL     1       2.745   6.729  19.034  0.00  0.00    +0.000 NA
ENDBRANCH  17  18
ENDBRANCH  15  17
ENDBRANCH  14  15
ENDBRANCH   3  14
TORSDOF 7
ENDMDL
