MODEL 1
REMARK VINA RESULT:      -7.1      0.000      0.000
REMARK  Name = 
REMARK  8 active torsions:
REMARK  status: ('A' for Active; 'I' for Inactive)
REMARK    1  A    between atoms: C_1  and  C_2
REMARK    2  A    between atoms: C_2  and  C_5
REMARK    3  A    between atoms: N_3  and  O_4
REMARK    4  A    between atoms: C_5  and  C_7
REMARK    5  A    between atoms: C_7  and  C_8
REMARK    6  A    between atoms: C_7  and  C_15
REMARK    7  A    between atoms: C_8  and  N_9
REMARK    8  A    between atoms: C_15  and  N_16
REMARK                            x       y       z     vdW  Elec       q    Type
REMARK                         _______ _______ _______ _____ _____    ______ ____
ROOT
ATOM      1  C   UNL     1       4.352   5.451  17.979  0.00  0.00    +0.000 C 
ENDROOT
BRANCH   1   2
ATOM      2  C   UNL     1       5.802   5.332  17.544  0.00  0.00    +0.000 C 
ATOM      3  O   UNL     1       6.175   5.020  16.415  0.00  0.00    +0.000 OA
BRANCH   2   5
ATOM      4  C   UNL     1       7.773   6.854  18.163  0.00  0.00    +0.000 C 
ATOM      5  C   UNL     1       6.864   5.720  18.558  0.00  0.00    +0.000 C 
ATOM      6  N   UNL     1       6.888   5.065  19.684  0.00  0.00    +0.000 NA
BRANCH   6   7
ATOM      7  O   UNL     1       7.898   5.537  20.531  0.00  0.00    +0.000 OA
ATOM      8  H   UNL     1       7.905   6.495  20.349  0.00  0.00    +0.000 HD
ENDBRANCH   6   7
ENDBRANCH   2   5
ENDBRANCH   1   2
BRANCH   1   9
ATOM      9  C   UNL     1       3.791   6.780  17.424  0.00  0.00    +0.000 C 
BRANCH   9  10
ATOM     10  N   UNL     1       2.668   7.329  18.209  0.00  0.00    +0.000 NA
ATOM     11  C   UNL     1       2.820   7.122  19.656  0.00  0.00    +0.000 C 
ATOM     12  C   UNL     1       1.518   7.494  20.362  0.00  0.00    +0.000 C 
ATOM     13  C   UNL     1       1.135   8.943  20.090  0.00  0.00    +0.000 C 
ATOM     14  C   UNL     1       1.165   9.250  18.596  0.00  0.00    +0.000 C 
ATOM     15  C   UNL     1       2.453   8.757  17.926  0.00  0.00    +0.000 C 
ENDBRANCH   9  10
ENDBRANCH   1   9
BRANCH   1  16
ATOM     16  C   UNL     1       3.533   4.239  17.479  0.00  0.00    +0.000 C 
BRANCH  16  17
ATOM     17  N   UNL     1       2.871   3.441  18.539  0.00  0.00    +0.000 NA
ATOM     18  C   UNL     1       3.508   3.619  19.855  0.00  0.00    +0.000 C 
ATOM     19  C   UNL     1       2.826   2.756  20.919  0.00  0.00    +0.000 C 
ATOM     20  C   UNL     1       1.332   3.039  21.006  0.00  0.00    +0.000 C 
ATOM     21  C   UNL     1       0.695   2.962  19.625  0.00  0.00    +0.000 C 
ATOM     22  C   UNL     1       1.447   3.833  18.622  0.00  0.00    +0.000 C 
ENDBRANCH  16  17
ENDBRANCH   1  16
TORSDOF 7
ENDMDL
MODEL 2
REMARK VINA RESULT:      -6.7      0.535      1.192
REMARK  Name = 
REMARK  8 active torsions:
REMARK  status: ('A' for Active; 'I' for Inactive)
REMARK    1  A    between atoms: C_1  and  C_2
REMARK    2  A    between atoms: C_2  and  C_5
REMARK    3  A    between atoms: N_3  and  O_4
REMARK    4  A    between atoms: C_5  and  C_7
REMARK    5  A    between atoms: C_7  and  C_8
REMARK    6  A    between atoms: C_7  and  C_15
REMARK    7  A    between atoms: C_8  and  N_9
REMARK    8  A    between atoms: C_15  and  N_16
REMARK                            x       y       z     vdW  Elec       q    Type
REMARK                         _______ _______ _______ _____ _____    ______ ____
ROOT
ATOM      1  C   UNL     1       4.572   4.998  18.014  0.00  0.00    +0.000 C 
ENDROOT
BRANCH   1   2
ATOM      2  C   UNL     1       6.051   5.004  17.670  0.00  0.00    +0.000 C 
ATOM      3  O   UNL     1       6.526   4.630  16.600  0.00  0.00    +0.000 OA
BRANCH   2   5
ATOM      4  C   UNL     1       7.733   6.847  18.268  0.00  0.00    +0.000 C 
ATOM      5  C   UNL     1       6.999   5.602  18.694  0.00  0.00    +0.000 C 
ATOM      6  N   UNL     1       7.082   5.014  19.854  0.00  0.00    +0.000 NA
BRANCH   6   7
ATOM      7  O   UNL     1       7.972   5.679  20.706  0.00  0.00    +0.000 OA
ATOM      8  H   UNL     1       8.727   5.875  20.121  0.00  0.00    +0.000 HD
ENDBRANCH   6   7
ENDBRANCH   2   5
ENDBRANCH   1   2
BRANCH   1   9
ATOM      9  C   UNL     1       3.902   6.176  17.269  0.00  0.00    +0.000 C 
BRANCH   9  10
ATOM     10  N   UNL     1       3.304   7.186  18.164  0.00  0.00    +0.000 NA
ATOM     11  C   UNL     1       2.529   8.208  17.447  0.00  0.00    +0.000 C 
ATOM     12  C   UNL     1       2.160   9.335  18.409  0.00  0.00    +0.000 C 
ATOM     13  C   UNL     1       1.349   8.813  19.588  0.00  0.00    +0.000 C 
ATOM     14  C   UNL     1       2.031   7.612  20.237  0.00  0.00    +0.000 C 
ATOM     15  C   UNL     1       2.473   6.565  19.207  0.00  0.00    +0.000 C 
ENDBRANCH   9  10
ENDBRANCH   1   9
BRANCH   1  16
ATOM     16  C   UNL     1       3.928   3.647  17.630  0.00  0.00    +0.000 C 
BRANCH  16  17
ATOM     17  N   UNL     1       3.119   3.005  18.695  0.00  0.00    +0.000 NA
ATOM     18  C   UNL     1       3.533   3.426  20.043  0.00  0.00    +0.000 C 
ATOM     19  C   UNL     1       2.706   2.720  21.120  0.00  0.00    +0.000 C 
ATOM     20  C   UNL     1       1.212   2.946  20.925  0.00  0.00    +0.000 C 
ATOM     21  C   UNL     1       0.806   2.614  19.495  0.00  0.00    +0.000 C 
ATOM     22  C   UNL     1       1.693   3.341  18.487  0.00  0.00    +0.000 C 
ENDBRANCH  16  17
ENDBRANCH   1  16
TORSDOF 7
ENDMDL
MODEL 3
REMARK VINA RESULT:      -6.7      0.667      1.579
REMARK  Name = 
REMARK  8 active torsions:
REMARK  status: ('A' for Active; 'I' for Inactive)
REMARK    1  A    between atoms: C_1  and  C_2
REMARK    2  A    between atoms: C_2  and  C_5
REMARK    3  A    between atoms: N_3  and  O_4
REMARK    4  A    between atoms: C_5  and  C_7
REMARK    5  A    between atoms: C_7  and  C_8
REMARK    6  A    between atoms: C_7  and  C_15
REMARK    7  A    between atoms: C_8  and  N_9
REMARK    8  A    between atoms: C_15  and  N_16
REMARK                            x       y       z     vdW  Elec       q    Type
REMARK                         _______ _______ _______ _____ _____    ______ ____
ROOT
ATOM      1  C   UNL     1       4.345   5.937  18.126  0.00  0.00    +0.000 C 
ENDROOT
BRANCH   1   2
ATOM      2  C   UNL     1       5.770   5.892  17.603  0.00  0.00    +0.000 C 
ATOM      3  O   UNL     1       6.082   5.834  16.416  0.00  0.00    +0.000 OA
BRANCH   2   5
ATOM      4  C   UNL     1       7.935   7.062  18.328  0.00  0.00    +0.000 C 
ATOM      5  C   UNL     1       6.888   6.020  18.623  0.00  0.00    +0.000 C 
ATOM      6  N   UNL     1       6.840   5.247  19.671  0.00  0.00    +0.000 NA
BRANCH   6   7
ATOM      7  O   UNL     1       7.914   5.484  20.535  0.00  0.00    +0.000 OA
ATOM      8  H   UNL     1       7.989   4.644  21.024  0.00  0.00    +0.000 HD
ENDBRANCH   6   7
ENDBRANCH   2   5
ENDBRANCH   1   2
BRANCH   1   9
ATOM      9  C   UNL     1       3.605   7.087  17.405  0.00  0.00    +0.000 C 
BRANCH   9  10
ATOM     10  N   UNL     1       2.919   8.022  18.318  0.00  0.00    +0.000 NA
ATOM     11  C   UNL     1       1.965   8.904  17.633  0.00  0.00    +0.000 C 
ATOM     12  C   UNL     1       1.490   9.988  18.598  0.00  0.00    +0.000 C 
ATOM     13  C   UNL     1       0.833   9.383  19.831  0.00  0.00    +0.000 C 
ATOM     14  C   UNL     1       1.717   8.308  20.456  0.00  0.00    +0.000 C 
ATOM     15  C   UNL     1       2.246   7.312  19.418  0.00  0.00    +0.000 C 
ENDBRANCH   9  10
ENDBRANCH   1   9
BRANCH   1  16
ATOM     16  C   UNL     1       3.639   4.581  17.902  0.00  0.00    +0.000 C 
BRANCH  16  17
ATOM     17  N   UNL     1       2.584   4.245  18.889  0.00  0.00    +0.000 NA
ATOM     18  C   UNL     1       1.884   2.993  18.557  0.00  0.00    +0.000 C 
ATOM     19  C   UNL     1       0.779   2.692  19.572  0.00  0.00    +0.000 C 
ATOM     20  C   UNL     1       1.317   2.642  20.996  0.00  0.00    +0.000 C 
ATOM     21  C   UNL     1       2.134   3.891  21.301  0.00  0.00    +0.000 C 
ATOM     22  C   UNL     1       3.197   4.129  20.230  0.00  0.00    +0.000 C 
ENDBRANCH  16  17
ENDBRANCH   1  16
TORSDOF 7
ENDMDL
MODEL 4
REMARK VINA RESULT:      -6.6      2.829      4.958
REMARK  Name = 
REMARK  8 active torsions:
REMARK  status: ('A' for Active; 'I' for Inactive)
REMARK    1  A    between atoms: C_1  and  C_2
REMARK    2  A    between atoms: C_2  and  C_5
REMARK    3  A    between atoms: N_3  and  O_4
REMARK    4  A    between atoms: C_5  and  C_7
REMARK    5  A    between atoms: C_7  and  C_8
REMARK    6  A    between atoms: C_7  and  C_15
REMARK    7  A    between atoms: C_8  and  N_9
REMARK    8  A    between atoms: C_15  and  N_16
REMARK                            x       y       z     vdW  Elec       q    Type
REMARK                         _______ _______ _______ _____ _____    ______ ____
ROOT
ATOM      1  C   UNL     1       5.081   4.682  16.884  0.00  0.00    +0.000 C 
ENDROOT
BRANCH   1   2
ATOM      2  C   UNL     1       5.330   5.966  17.655  0.00  0.00    +0.000 C 
ATOM      3  O   UNL     1       4.551   6.914  17.712  0.00  0.00    +0.000 OA
BRANCH   2   5
ATOM      4  C   UNL     1       7.682   6.943  17.968  0.00  0.00    +0.000 C 
ATOM      5  C   UNL     1       6.596   6.039  18.490  0.00  0.00    +0.000 C 
ATOM      6  N   UNL     1       6.633   5.343  19.591  0.00  0.00    +0.000 NA
BRANCH   6   7
ATOM      7  O   UNL     1       7.843   5.519  20.271  0.00  0.00    +0.000 OA
ATOM      8  H   UNL     1       7.561   5.586  21.202  0.00  0.00    +0.000 HD
ENDBRANCH   6   7
ENDBRANCH   2   5
ENDBRANCH   1   2
BRANCH   1   9
ATOM      9  C   UNL     1       6.405   4.266  16.201  0.00  0.00    +0.000 C 
BRANCH   9  10
ATOM     10  N   UNL     1       6.414   4.472  14.740  0.00  0.00    +0.000 NA
ATOM     11  C   UNL     1       7.721   4.903  14.225  0.00  0.00    +0.000 C 
ATOM     12  C   UNL     1       7.579   5.324  12.764  0.00  0.00    +0.000 C 
ATOM     13  C   UNL     1       7.042   4.184  11.909  0.00  0.00    +0.000 C 
ATOM     14  C   UNL     1       5.788   3.574  12.527  0.00  0.00    +0.000 C 
ATOM     15  C   UNL     1       5.961   3.271  14.019  0.00  0.00    +0.000 C 
ENDBRANCH   9  10
ENDBRANCH   1   9
BRANCH   1  16
ATOM     16  C   UNL     1       4.558   3.573  17.825  0.00  0.00    +0.000 C 
BRANCH  16  17
ATOM     17  N   UNL     1       3.175   3.766  18.324  0.00  0.00    +0.000 NA
ATOM     18  C   UNL     1       2.340   2.569  18.139  0.00  0.00    +0.000 C 
ATOM     19  C   UNL     1       0.910   2.810  18.630  0.00  0.00    +0.000 C 
ATOM     20  C   UNL     1       0.880   3.263  20.083  0.00  0.00    +0.000 C 
ATOM     21  C   UNL     1       1.829   4.435  20.296  0.00  0.00    +0.000 C 
ATOM     22  C   UNL     1       3.224   4.118  19.760  0.00  0.00    +0.000 C 
ENDBRANCH  16  17
ENDBRANCH   1  16
TORSDOF 7
ENDMDL
MODEL 5
REMARK VINA RESULT:      -6.6      1.461      2.038
REMARK  Name = 
REMARK  8 active torsions:
REMARK  status: ('A' for Active; 'I' for Inactive)
REMARK    1  A    between atoms: C_1  and  C_2
REMARK    2  A    between atoms: C_2  and  C_5
REMARK    3  A    between atoms: N_3  and  O_4
REMARK    4  A    between atoms: C_5  and  C_7
REMARK    5  A    between atoms: C_7  and  C_8
REMARK    6  A    between atoms: C_7  and  C_15
REMARK    7  A    between atoms: C_8  and  N_9
REMARK    8  A    between atoms: C_15  and  N_16
REMARK                            x       y       z     vdW  Elec       q    Type
REMARK                         _______ _______ _______ _____ _____    ______ ____
ROOT
ATOM      1  C   UNL     1       4.380   6.514  18.437  0.00  0.00    +0.000 C 
ENDROOT
BRANCH   1   2
ATOM      2  C   UNL     1       5.266   6.342  17.216  0.00  0.00    +0.000 C 
ATOM      3  O   UNL     1       4.980   6.717  16.081  0.00  0.00    +0.000 OA
BRANCH   2   5
ATOM      4  C   UNL     1       7.624   6.605  18.192  0.00  0.00    +0.000 C 
ATOM      5  C   UNL     1       6.645   5.745  17.437  0.00  0.00    +0.000 C 
ATOM      6  N   UNL     1       6.860   4.542  16.985  0.00  0.00    +0.000 NA
BRANCH   6   7
ATOM      7  O   UNL     1       8.158   4.108  17.276  0.00  0.00    +0.000 OA
ATOM      8  H   UNL     1       8.187   4.145  18.250  0.00  0.00    +0.000 HD
ENDBRANCH   6   7
ENDBRANCH   2   5
ENDBRANCH   1   2
BRANCH   1   9
ATOM      9  C   UNL     1       2.980   6.962  17.956  0.00  0.00    +0.000 C 
BRANCH   9  10
ATOM     10  N   UNL     1       2.426   8.102  18.711  0.00  0.00    +0.000 NA
ATOM     11  C   UNL     1       1.544   8.957  17.904  0.00  0.00    +0.000 C 
ATOM     12  C   UNL     1       1.217  10.230  18.681  0.00  0.00    +0.000 C 
ATOM     13  C   UNL     1       0.543   9.909  20.009  0.00  0.00    +0.000 C 
ATOM     14  C   UNL     1       1.333   8.864  20.791  0.00  0.00    +0.000 C 
ATOM     15  C   UNL     1       1.722   7.660  19.925  0.00  0.00    +0.000 C 
ENDBRANCH   9  10
ENDBRANCH   1   9
BRANCH   1  16
ATOM     16  C   UNL     1       4.305   5.198  19.245  0.00  0.00    +0.000 C 
BRANCH  16  17
ATOM     17  N   UNL     1       3.096   4.374  19.003  0.00  0.00    +0.000 NA
ATOM     18  C   UNL     1       3.401   3.131  18.277  0.00  0.00    +0.000 C 
ATOM     19  C   UNL     1       2.131   2.320  18.012  0.00  0.00    +0.000 C 
ATOM     20  C   UNL     1       1.375   2.015  19.297  0.00  0.00    +0.000 C 
ATOM     21  C   UNL     1       1.156   3.290  20.101  0.00  0.00    +0.000 C 
ATOM     22  C   UNL     1       2.466   4.047  20.301  0.00  0.00    +0.000 C 
ENDBRANCH  16  17
ENDBRANCH   1  16
TORSDOF 7
ENDMDL
MODEL 6
REMARK VINA RESULT:      -6.5      2.472      5.815
REMARK  Name = 
REMARK  8 active torsions:
REMARK  status: ('A' for Active; 'I' for Inactive)
REMARK    1  A    between atoms: C_1  and  C_2
REMARK    2  A    between atoms: C_2  and  C_5
REMARK    3  A    between atoms: N_3  and  O_4
REMARK    4  A    between atoms: C_5  and  C_7
REMARK    5  A    between atoms: C_7  and  C_8
REMARK    6  A    between atoms: C_7  and  C_15
REMARK    7  A    between atoms: C_8  and  N_9
REMARK    8  A    between atoms: C_15  and  N_16
REMARK                            x       y       z     vdW  Elec       q    Type
REMARK                         _______ _______ _______ _____ _____    ______ ____
ROOT
ATOM      1  C   UNL     1       2.965   5.343  19.004  0.00  0.00    +0.000 C 
ENDROOT
BRANCH   1   2
ATOM      2  C   UNL     1       1.839   4.443  18.527  0.00  0.00    +0.000 C 
ATOM      3  O   UNL     1       1.398   4.416  17.380  0.00  0.00    +0.000 OA
BRANCH   2   5
ATOM      4  C   UNL     1       0.681   2.190  18.935  0.00  0.00    +0.000 C 
ATOM      5  C   UNL     1       1.285   3.439  19.522  0.00  0.00    +0.000 C 
ATOM      6  N   UNL     1       1.397   3.721  20.789  0.00  0.00    +0.000 NA
BRANCH   6   7
ATOM      7  O   UNL     1       0.867   2.705  21.592  0.00  0.00    +0.000 OA
ATOM      8  H   UNL     1       1.250   1.898  21.203  0.00  0.00    +0.000 HD
ENDBRANCH   6   7
ENDBRANCH   2   5
ENDBRANCH   1   2
BRANCH   1   9
ATOM      9  C   UNL     1       4.298   4.578  18.831  0.00  0.00    +0.000 C 
BRANCH   9  10
ATOM     10  N   UNL     1       5.031   4.925  17.598  0.00  0.00    +0.000 NA
ATOM     11  C   UNL     1       6.455   5.202  17.830  0.00  0.00    +0.000 C 
ATOM     12  C   UNL     1       7.074   5.785  16.562  0.00  0.00    +0.000 C 
ATOM     13  C   UNL     1       6.924   4.832  15.384  0.00  0.00    +0.000 C 
ATOM     14  C   UNL     1       5.480   4.360  15.236  0.00  0.00    +0.000 C 
ATOM     15  C   UNL     1       4.883   3.886  16.566  0.00  0.00    +0.000 C 
ENDBRANCH   9  10
ENDBRANCH   1   9
BRANCH   1  16
ATOM     16  C   UNL     1       2.971   6.673  18.217  0.00  0.00    +0.000 C 
BRANCH  16  17
ATOM     17  N   UNL     1       1.934   7.653  18.622  0.00  0.00    +0.000 NA
ATOM     18  C   UNL     1       1.926   7.892  20.074  0.00  0.00    +0.000 C 
ATOM     19  C   UNL     1       0.824   8.879  20.465  0.00  0.00    +0.000 C 
ATOM     20  C   UNL     1       0.948  10.195  19.708  0.00  0.00    +0.000 C 
ATOM     21  C   UNL     1       1.066   9.938  18.211  0.00  0.00    +0.000 C 
ATOM     22  C   UNL     1       2.171   8.929  17.911  0.00  0.00    +0.000 C 
ENDBRANCH  16  17
ENDBRANCH   1  16
TORSDOF 7
ENDMDL
MODEL 7
REMARK VINA RESULT:      -6.5      2.268      4.461
REMARK  Name = 
REMARK  8 active torsions:
REMARK  status: ('A' for Active; 'I' for Inactive)
REMARK    1  A    between atoms: C_1  and  C_2
REMARK    2  A    between atoms: C_2  and  C_5
REMARK    3  A    between atoms: N_3  and  O_4
REMARK    4  A    between atoms: C_5  and  C_7
REMARK    5  A    between atoms: C_7  and  C_8
REMARK    6  A    between atoms: C_7  and  C_15
REMARK    7  A    between atoms: C_8  and  N_9
REMARK    8  A    between atoms: C_15  and  N_16
REMARK                            x       y       z     vdW  Elec       q    Type
REMARK                         _______ _______ _______ _____ _____    ______ ____
ROOT
ATOM      1  C   UNL     1       2.573   5.156  18.136  0.00  0.00    +0.000 C 
ENDROOT
BRANCH   1   2
ATOM      2  C   UNL     1       1.890   3.893  18.628  0.00  0.00    +0.000 C 
ATOM      3  O   UNL     1       1.094   3.222  17.975  0.00  0.00    +0.000 OA
BRANCH   2   5
ATOM      4  C   UNL     1       3.600   2.623  20.060  0.00  0.00    +0.000 C 
ATOM      5  C   UNL     1       2.296   3.373  19.997  0.00  0.00    +0.000 C 
ATOM      6  N   UNL     1       1.506   3.637  20.999  0.00  0.00    +0.000 NA
BRANCH   6   7
ATOM      7  O   UNL     1       2.008   3.122  22.199  0.00  0.00    +0.000 OA
ATOM      8  H   UNL     1       2.223   2.199  21.967  0.00  0.00    +0.000 HD
ENDBRANCH   6   7
ENDBRANCH   2   5
ENDBRANCH   1   2
BRANCH   1   9
ATOM      9  C   UNL     1       2.701   6.130  19.330  0.00  0.00    +0.000 C 
BRANCH   9  10
ATOM     10  N   UNL     1       1.910   7.367  19.180  0.00  0.00    +0.000 NA
ATOM     11  C   UNL     1       1.739   8.101  20.441  0.00  0.00    +0.000 C 
ATOM     12  C   UNL     1       0.717   9.218  20.246  0.00  0.00    +0.000 C 
ATOM     13  C   UNL     1       1.151  10.181  19.149  0.00  0.00    +0.000 C 
ATOM     14  C   UNL     1       1.534   9.431  17.877  0.00  0.00    +0.000 C 
ATOM     15  C   UNL     1       2.479   8.256  18.154  0.00  0.00    +0.000 C 
ENDBRANCH   9  10
ENDBRANCH   1   9
BRANCH   1  16
ATOM     16  C   UNL     1       3.953   4.827  17.524  0.00  0.00    +0.000 C 
BRANCH  16  17
ATOM     17  N   UNL     1       5.080   5.653  18.022  0.00  0.00    +0.000 NA
ATOM     18  C   UNL     1       6.154   4.839  18.613  0.00  0.00    +0.000 C 
ATOM     19  C   UNL     1       7.284   5.720  19.149  0.00  0.00    +0.000 C 
ATOM     20  C   UNL     1       7.843   6.641  18.073  0.00  0.00    +0.000 C 
ATOM     21  C   UNL     1       6.717   7.403  17.387  0.00  0.00    +0.000 C 
ATOM     22  C   UNL     1       5.624   6.454  16.903  0.00  0.00    +0.000 C 
ENDBRANCH  16  17
ENDBRANCH   1  16
TORSDOF 7
ENDMDL
MODEL 8
REMARK VINA RESULT:      -6.5      1.588      4.652
REMARK  Name = 
REMARK  8 active torsions:
REMARK  status: ('A' for Active; 'I' for Inactive)
REMARK    1  A    between atoms: C_1  and  C_2
REMARK    2  A    between atoms: C_2  and  C_5
REMARK    3  A    between atoms: N_3  and  O_4
REMARK    4  A    between atoms: C_5  and  C_7
REMARK    5  A    between atoms: C_7  and  C_8
REMARK    6  A    between atoms: C_7  and  C_15
REMARK    7  A    between atoms: C_8  and  N_9
REMARK    8  A    between atoms: C_15  and  N_16
REMARK                            x       y       z     vdW  Elec       q    Type
REMARK                         _______ _______ _______ _____ _____    ______ ____
ROOT
ATOM      1  C   UNL     1       4.815   4.861  17.854  0.00  0.00    +0.000 C 
ENDROOT
BRANCH   1   2
ATOM      2  C   UNL     1       6.266   4.600  17.489  0.00  0.00    +0.000 C 
ATOM      3  O   UNL     1       7.138   4.249  18.279  0.00  0.00    +0.000 OA
BRANCH   2   5
ATOM      4  C   UNL     1       5.915   3.752  15.092  0.00  0.00    +0.000 C 
ATOM      5  C   UNL     1       6.638   4.693  16.019  0.00  0.00    +0.000 C 
ATOM      6  N   UNL     1       7.524   5.586  15.678  0.00  0.00    +0.000 NA
BRANCH   6   7
ATOM      7  O   UNL     1       7.757   5.579  14.298  0.00  0.00    +0.000 OA
ATOM      8  H   UNL     1       8.271   4.760  14.168  0.00  0.00    +0.000 HD
ENDBRANCH   6   7
ENDBRANCH   2   5
ENDBRANCH   1   2
BRANCH   1   9
ATOM      9  C   UNL     1       4.123   3.496  18.076  0.00  0.00    +0.000 C 
BRANCH   9  10
ATOM     10  N   UNL     1       3.180   3.481  19.211  0.00  0.00    +0.000 NA
ATOM     11  C   UNL     1       1.793   3.217  18.807  0.00  0.00    +0.000 C 
ATOM     12  C   UNL     1       0.862   3.462  19.993  0.00  0.00    +0.000 C 
ATOM     13  C   UNL     1       1.228   2.576  21.176  0.00  0.00    +0.000 C 
ATOM     14  C   UNL     1       2.716   2.672  21.497  0.00  0.00    +0.000 C 
ATOM     15  C   UNL     1       3.593   2.523  20.249  0.00  0.00    +0.000 C 
ENDBRANCH   9  10
ENDBRANCH   1   9
BRANCH   1  16
ATOM     16  C   UNL     1       4.722   5.753  19.113  0.00  0.00    +0.000 C 
BRANCH  16  17
ATOM     17  N   UNL     1       3.886   6.969  18.966  0.00  0.00    +0.000 NA
ATOM     18  C   UNL     1       3.591   7.281  17.559  0.00  0.00    +0.000 C 
ATOM     19  C   UNL     1       2.758   8.559  17.438  0.00  0.00    +0.000 C 
ATOM     20  C   UNL     1       1.471   8.475  18.248  0.00  0.00    +0.000 C 
ATOM     21  C   UNL     1       1.769   8.045  19.679  0.00  0.00    +0.000 C 
ATOM     22  C   UNL     1       2.620   6.777  19.707  0.00  0.00    +0.000 C 
ENDBRANCH  16  17
ENDBRANCH   1  16
TORSDOF 7
ENDMDL
MODEL 9
REMARK VINA RESULT:      -6.5      1.063      1.368
REMARK  Name = 
REMARK  8 active torsions:
REMARK  status: ('A' for Active; 'I' for Inactive)
REMARK    1  A    between atoms: C_1  and  C_2
REMARK    2  A    between atoms: C_2  and  C_5
REMARK    3  A    between atoms: N_3  and  O_4
REMARK    4  A    between atoms: C_5  and  C_7
REMARK    5  A    between atoms: C_7  and  C_8
REMARK    6  A    between atoms: C_7  and  C_15
REMARK    7  A    between atoms: C_8  and  N_9
REMARK    8  A    between atoms: C_15  and  N_16
REMARK                            x       y       z     vdW  Elec       q    Type
REMARK                         _______ _______ _______ _____ _____    ______ ____
ROOT
ATOM      1  C   UNL     1       3.592   6.128  18.275  0.00  0.00    +0.000 C 
ENDROOT
BRANCH   1   2
ATOM      2  C   UNL     1       4.863   5.679  17.576  0.00  0.00    +0.000 C 
ATOM      3  O   UNL     1       4.926   5.292  16.411  0.00  0.00    +0.000 OA
BRANCH   2   5
ATOM      4  C   UNL     1       7.239   6.640  17.701  0.00  0.00    +0.000 C 
ATOM      5  C   UNL     1       6.164   5.808  18.350  0.00  0.00    +0.000 C 
ATOM      6  N   UNL     1       6.236   5.218  19.509  0.00  0.00    +0.000 NA
BRANCH   6   7
ATOM      7  O   UNL     1       7.475   5.435  20.121  0.00  0.00    +0.000 OA
ATOM      8  H   UNL     1       7.231   5.869  20.959  0.00  0.00    +0.000 HD
ENDBRANCH   6   7
ENDBRANCH   2   5
ENDBRANCH   1   2
BRANCH   1   9
ATOM      9  C   UNL     1       3.322   7.599  17.883  0.00  0.00    +0.000 C 
BRANCH   9  10
ATOM     10  N   UNL     1       2.085   8.155  18.465  0.00  0.00    +0.000 NA
ATOM     11  C   UNL     1       2.112   8.212  19.933  0.00  0.00    +0.000 C 
ATOM     12  C   UNL     1       0.720   8.562  20.454  0.00  0.00    +0.000 C 
ATOM     13  C   UNL     1       0.240   9.897  19.899  0.00  0.00    +0.000 C 
ATOM     14  C   UNL     1       0.390   9.949  18.382  0.00  0.00    +0.000 C 
ATOM     15  C   UNL     1       1.775   9.485  17.916  0.00  0.00    +0.000 C 
ENDBRANCH   9  10
ENDBRANCH   1   9
BRANCH   1  16
ATOM     16  C   UNL     1       2.407   5.214  17.892  0.00  0.00    +0.000 C 
BRANCH  16  17
ATOM     17  N   UNL     1       1.851   4.399  18.999  0.00  0.00    +0.000 NA
ATOM     18  C   UNL     1       1.926   2.955  18.726  0.00  0.00    +0.000 C 
ATOM     19  C   UNL     1       1.313   2.144  19.869  0.00  0.00    +0.000 C 
ATOM     20  C   UNL     1       1.964   2.469  21.207  0.00  0.00    +0.000 C 
ATOM     21  C   UNL     1       1.983   3.974  21.438  0.00  0.00    +0.000 C 
ATOM     22  C   UNL     1       2.589   4.707  20.244  0.00  0.00    +0.000 C 
ENDBRANCH  16  17
ENDBRANCH   1  16
TORSDOF 7
ENDMDL
