MODEL 1
REMARK VINA RESULT:      -8.0      0.000      0.000
REMARK  Name = 
REMARK  10 active torsions:
REMARK  status: ('A' for Active; 'I' for Inactive)
REMARK    1  A    between atoms: C_1  and  O_2
REMARK    2  A    between atoms: O_2  and  C_3
REMARK    3  A    between atoms: C_6  and  N_7
REMARK    4  A    between atoms: N_7  and  C_8
REMARK    5  A    between atoms: C_11  and  C_12
REMARK    6  A    between atoms: C_12  and  C_13
REMARK    7  A    between atoms: C_12  and  C_14
REMARK    8  A    between atoms: C_14  and  O_15
REMARK    9  A    between atoms: C_17  and  C_18
REMARK   10  A    between atoms: C_20  and  C_21
REMARK                            x       y       z     vdW  Elec       q    Type
REMARK                         _______ _______ _______ _____ _____    ______ ____
ROOT
ATOM      1  C   UNL     1       5.177   4.872  15.972  0.00  0.00    +0.000 A 
ATOM      2  N   UNL     1       4.589   4.191  14.956  0.00  0.00    +0.000 NA
ATOM      3  C   UNL     1       5.309   3.913  13.851  0.00  0.00    +0.000 A 
ATOM      4  C   UNL     1       6.624   4.301  13.669  0.00  0.00    +0.000 A 
ATOM      5  C   UNL     1       7.222   4.998  14.725  0.00  0.00    +0.000 A 
ATOM      6  C   UNL     1       6.515   5.299  15.909  0.00  0.00    +0.000 A 
ENDROOT
BRANCH   6   7
ATOM      7  C   UNL     1       7.187   5.986  17.023  0.00  0.00    +0.000 A 
ATOM      8  N   UNL     1       7.449   7.291  16.875  0.00  0.00    +0.000 NA
ATOM      9  C   UNL     1       7.993   7.878  17.941  0.00  0.00    +0.000 A 
ATOM     10  C   UNL     1       8.267   9.350  17.872  0.00  0.00    +0.000 C 
ATOM     11  N   UNL     1       8.310   7.249  19.071  0.00  0.00    +0.000 NA
ATOM     12  C   UNL     1       8.042   5.952  19.094  0.00  0.00    +0.000 A 
ATOM     13  N   UNL     1       8.379   5.256  20.234  0.00  0.00    +0.000 N 
ATOM     14  N   UNL     1       7.449   5.278  18.122  0.00  0.00    +0.000 NA
ATOM     15  H   UNL     1       8.452   5.872  21.030  0.00  0.00    +0.000 HD
ATOM     16  H   UNL     1       7.820   4.421  20.332  0.00  0.00    +0.000 HD
ENDBRANCH   6   7
BRANCH   1  17
ATOM     17  N   UNL     1       4.342   5.241  17.069  0.00  0.00    +0.000 N 
ATOM     18  H   UNL     1       4.876   5.886  17.661  0.00  0.00    +0.000 HD
BRANCH  17  22
ATOM     19  C   UNL     1       2.423   2.734  19.785  0.00  0.00    +0.000 A 
ATOM     20  N   UNL     1       3.725   3.022  19.999  0.00  0.00    +0.000 NA
ATOM     21  C   UNL     1       4.333   3.792  19.067  0.00  0.00    +0.000 A 
ATOM     22  C   UNL     1       3.712   4.303  17.923  0.00  0.00    +0.000 A 
ATOM     23  C   UNL     1       2.362   3.994  17.744  0.00  0.00    +0.000 A 
ATOM     24  C   UNL     1       1.717   3.186  18.675  0.00  0.00    +0.000 A 
ATOM     25  F   UNL     1       0.422   2.885  18.503  0.00  0.00    +0.000 F 
BRANCH  19  27
ATOM     26  C   UNL     1       1.346   2.766  21.853  0.00  0.00    +0.000 C 
ATOM     27  O   UNL     1       1.742   1.988  20.726  0.00  0.00    +0.000 OA
ENDBRANCH  19  27
ENDBRANCH  17  22
ENDBRANCH   1  17
BRANCH   4  28
ATOM     28  C   UNL     1       7.378   4.023  12.383  0.00  0.00    +0.000 C 
ATOM     29  C   UNL     1       6.725   2.889  11.585  0.00  0.00    +0.000 C 
BRANCH  28  30
ATOM     30  C   UNL     1       7.505   5.286  11.511  0.00  0.00    +0.000 C 
BRANCH  30  31
ATOM     31  O   UNL     1       8.287   6.282  12.161  0.00  0.00    +0.000 OA
ATOM     32  H   UNL     1       8.840   5.834  12.827  0.00  0.00    +0.000 HD
ENDBRANCH  30  31
ENDBRANCH  28  30
ENDBRANCH   4  28
TORSDOF 7
ENDMDL
MODEL 2
REMARK VINA RESULT:      -7.6      2.647      2.854
REMARK  Name = 
REMARK  10 active torsions:
REMARK  status: ('A' for Active; 'I' for Inactive)
REMARK    1  A    between atoms: C_1  and  O_2
REMARK    2  A    between atoms: O_2  and  C_3
REMARK    3  A    between atoms: C_6  and  N_7
REMARK    4  A    between atoms: N_7  and  C_8
REMARK    5  A    between atoms: C_11  and  C_12
REMARK    6  A    between atoms: C_12  and  C_13
REMARK    7  A    between atoms: C_12  and  C_14
REMARK    8  A    between atoms: C_14  and  O_15
REMARK    9  A    between atoms: C_17  and  C_18
REMARK   10  A    between atoms: C_20  and  C_21
REMARK                            x       y       z     vdW  Elec       q    Type
REMARK                         _______ _______ _______ _____ _____    ______ ____
ROOT
ATOM      1  C   UNL     1       5.050   4.275  16.744  0.00  0.00    +0.000 A 
ATOM      2  N   UNL     1       4.337   3.550  15.846  0.00  0.00    +0.000 NA
ATOM      3  C   UNL     1       4.744   3.512  14.562  0.00  0.00    +0.000 A 
ATOM      4  C   UNL     1       5.849   4.193  14.083  0.00  0.00    +0.000 A 
ATOM      5  C   UNL     1       6.580   4.933  15.018  0.00  0.00    +0.000 A 
ATOM      6  C   UNL     1       6.203   4.991  16.378  0.00  0.00    +0.000 A 
ENDROOT
BRANCH   6   7
ATOM      7  C   UNL     1       7.024   5.734  17.346  0.00  0.00    +0.000 A 
ATOM      8  N   UNL     1       7.277   7.022  17.081  0.00  0.00    +0.000 NA
ATOM      9  C   UNL     1       7.963   7.665  18.026  0.00  0.00    +0.000 A 
ATOM     10  C   UNL     1       8.241   9.124  17.825  0.00  0.00    +0.000 C 
ATOM     11  N   UNL     1       8.420   7.102  19.143  0.00  0.00    +0.000 NA
ATOM     12  C   UNL     1       8.144   5.815  19.286  0.00  0.00    +0.000 A 
ATOM     13  N   UNL     1       8.620   5.187  20.415  0.00  0.00    +0.000 N 
ATOM     14  N   UNL     1       7.421   5.092  18.445  0.00  0.00    +0.000 NA
ATOM     15  H   UNL     1       8.804   5.850  21.153  0.00  0.00    +0.000 HD
ATOM     16  H   UNL     1       8.071   4.370  20.639  0.00  0.00    +0.000 HD
ENDBRANCH   6   7
BRANCH   1  17
ATOM     17  N   UNL     1       4.515   4.376  18.062  0.00  0.00    +0.000 N 
ATOM     18  H   UNL     1       4.077   3.476  18.288  0.00  0.00    +0.000 HD
BRANCH  17  22
ATOM     19  C   UNL     1       2.135   7.510  19.425  0.00  0.00    +0.000 A 
ATOM     20  N   UNL     1       2.278   6.429  20.223  0.00  0.00    +0.000 NA
ATOM     21  C   UNL     1       3.010   5.406  19.725  0.00  0.00    +0.000 A 
ATOM     22  C   UNL     1       3.620   5.397  18.467  0.00  0.00    +0.000 A 
ATOM     23  C   UNL     1       3.461   6.537  17.678  0.00  0.00    +0.000 A 
ATOM     24  C   UNL     1       2.695   7.596  18.155  0.00  0.00    +0.000 A 
ATOM     25  F   UNL     1       2.537   8.691  17.397  0.00  0.00    +0.000 F 
BRANCH  19  27
ATOM     26  C   UNL     1       1.084   8.465  21.275  0.00  0.00    +0.000 C 
ATOM     27  O   UNL     1       1.434   8.601  19.899  0.00  0.00    +0.000 OA
ENDBRANCH  19  27
ENDBRANCH  17  22
ENDBRANCH   1  17
BRANCH   4  28
ATOM     28  C   UNL     1       6.236   4.175  12.616  0.00  0.00    +0.000 C 
ATOM     29  C   UNL     1       7.681   4.645  12.413  0.00  0.00    +0.000 C 
BRANCH  28  30
ATOM     30  C   UNL     1       6.034   2.783  11.989  0.00  0.00    +0.000 C 
BRANCH  30  31
ATOM     31  O   UNL     1       7.264   2.254  11.505  0.00  0.00    +0.000 OA
ATOM     32  H   UNL     1       7.074   1.389  11.102  0.00  0.00    +0.000 HD
ENDBRANCH  30  31
ENDBRANCH  28  30
ENDBRANCH   4  28
TORSDOF 7
ENDMDL
MODEL 3
REMARK VINA RESULT:      -7.5      3.442      7.418
REMARK  Name = 
REMARK  10 active torsions:
REMARK  status: ('A' for Active; 'I' for Inactive)
REMARK    1  A    between atoms: C_1  and  O_2
REMARK    2  A    between atoms: O_2  and  C_3
REMARK    3  A    between atoms: C_6  and  N_7
REMARK    4  A    between atoms: N_7  and  C_8
REMARK    5  A    between atoms: C_11  and  C_12
REMARK    6  A    between atoms: C_12  and  C_13
REMARK    7  A    between atoms: C_12  and  C_14
REMARK    8  A    between atoms: C_14  and  O_15
REMARK    9  A    between atoms: C_17  and  C_18
REMARK   10  A    between atoms: C_20  and  C_21
REMARK                            x       y       z     vdW  Elec       q    Type
REMARK                         _______ _______ _______ _____ _____    ______ ____
ROOT
ATOM      1  C   UNL     1       4.220   6.005  18.038  0.00  0.00    +0.000 A 
ATOM      2  N   UNL     1       4.221   7.198  17.392  0.00  0.00    +0.000 NA
ATOM      3  C   UNL     1       3.287   8.117  17.709  0.00  0.00    +0.000 A 
ATOM      4  C   UNL     1       2.295   7.914  18.650  0.00  0.00    +0.000 A 
ATOM      5  C   UNL     1       2.304   6.682  19.314  0.00  0.00    +0.000 A 
ATOM      6  C   UNL     1       3.272   5.694  19.029  0.00  0.00    +0.000 A 
ENDROOT
BRANCH   6   7
ATOM      7  C   UNL     1       3.288   4.431  19.781  0.00  0.00    +0.000 A 
ATOM      8  N   UNL     1       2.277   4.204  20.630  0.00  0.00    +0.000 NA
ATOM      9  C   UNL     1       2.304   3.015  21.231  0.00  0.00    +0.000 A 
ATOM     10  C   UNL     1       1.177   2.666  22.156  0.00  0.00    +0.000 C 
ATOM     11  N   UNL     1       3.264   2.107  21.066  0.00  0.00    +0.000 NA
ATOM     12  C   UNL     1       4.235   2.450  20.233  0.00  0.00    +0.000 A 
ATOM     13  N   UNL     1       5.262   1.551  20.054  0.00  0.00    +0.000 N 
ATOM     14  N   UNL     1       4.280   3.574  19.537  0.00  0.00    +0.000 NA
ATOM     15  H   UNL     1       4.974   0.613  20.292  0.00  0.00    +0.000 HD
ATOM     16  H   UNL     1       5.724   1.693  19.167  0.00  0.00    +0.000 HD
ENDBRANCH   6   7
BRANCH   1  17
ATOM     17  N   UNL     1       5.154   5.027  17.587  0.00  0.00    +0.000 N 
ATOM     18  H   UNL     1       5.934   5.013  18.253  0.00  0.00    +0.000 HD
BRANCH  17  22
ATOM     19  C   UNL     1       6.940   4.717  13.837  0.00  0.00    +0.000 A 
ATOM     20  N   UNL     1       7.653   5.285  14.834  0.00  0.00    +0.000 NA
ATOM     21  C   UNL     1       7.022   5.422  16.023  0.00  0.00    +0.000 A 
ATOM     22  C   UNL     1       5.709   5.017  16.283  0.00  0.00    +0.000 A 
ATOM     23  C   UNL     1       5.011   4.422  15.232  0.00  0.00    +0.000 A 
ATOM     24  C   UNL     1       5.626   4.287  13.992  0.00  0.00    +0.000 A 
ATOM     25  F   UNL     1       4.955   3.720  12.980  0.00  0.00    +0.000 F 
BRANCH  19  27
ATOM     26  C   UNL     1       7.970   5.732  12.007  0.00  0.00    +0.000 C 
ATOM     27  O   UNL     1       7.548   4.512  12.614  0.00  0.00    +0.000 OA
ENDBRANCH  19  27
ENDBRANCH  17  22
ENDBRANCH   1  17
BRANCH   4  28
ATOM     28  C   UNL     1       1.223   8.951  18.931  0.00  0.00    +0.000 C 
ATOM     29  C   UNL     1       0.995   9.126  20.436  0.00  0.00    +0.000 C 
BRANCH  28  30
ATOM     30  C   UNL     1       1.555  10.306  18.280  0.00  0.00    +0.000 C 
BRANCH  30  31
ATOM     31  O   UNL     1       0.455  11.205  18.377  0.00  0.00    +0.000 OA
ATOM     32  H   UNL     1       0.767  12.083  18.093  0.00  0.00    +0.000 HD
ENDBRANCH  30  31
ENDBRANCH  28  30
ENDBRANCH   4  28
TORSDOF 7
ENDMDL
MODEL 4
REMARK VINA RESULT:      -7.5      3.389      7.670
REMARK  Name = 
REMARK  10 active torsions:
REMARK  status: ('A' for Active; 'I' for Inactive)
REMARK    1  A    between atoms: C_1  and  O_2
REMARK    2  A    between atoms: O_2  and  C_3
REMARK    3  A    between atoms: C_6  and  N_7
REMARK    4  A    between atoms: N_7  and  C_8
REMARK    5  A    between atoms: C_11  and  C_12
REMARK    6  A    between atoms: C_12  and  C_13
REMARK    7  A    between atoms: C_12  and  C_14
REMARK    8  A    between atoms: C_14  and  O_15
REMARK    9  A    between atoms: C_17  and  C_18
REMARK   10  A    between atoms: C_20  and  C_21
REMARK                            x       y       z     vdW  Elec       q    Type
REMARK                         _______ _______ _______ _____ _____    ______ ____
ROOT
ATOM      1  C   UNL     1       3.494   6.018  17.912  0.00  0.00    +0.000 A 
ATOM      2  N   UNL     1       3.419   7.218  17.282  0.00  0.00    +0.000 NA
ATOM      3  C   UNL     1       2.774   8.236  17.884  0.00  0.00    +0.000 A 
ATOM      4  C   UNL     1       2.151   8.133  19.115  0.00  0.00    +0.000 A 
ATOM      5  C   UNL     1       2.238   6.894  19.758  0.00  0.00    +0.000 A 
ATOM      6  C   UNL     1       2.917   5.802  19.175  0.00  0.00    +0.000 A 
ENDROOT
BRANCH   6   7
ATOM      7  C   UNL     1       3.037   4.528  19.901  0.00  0.00    +0.000 A 
ATOM      8  N   UNL     1       2.070   4.222  20.775  0.00  0.00    +0.000 NA
ATOM      9  C   UNL     1       2.191   3.026  21.350  0.00  0.00    +0.000 A 
ATOM     10  C   UNL     1       1.119   2.589  22.303  0.00  0.00    +0.000 C 
ATOM     11  N   UNL     1       3.200   2.184  21.137  0.00  0.00    +0.000 NA
ATOM     12  C   UNL     1       4.120   2.603  20.282  0.00  0.00    +0.000 A 
ATOM     13  N   UNL     1       5.196   1.775  20.052  0.00  0.00    +0.000 N 
ATOM     14  N   UNL     1       4.073   3.741  19.608  0.00  0.00    +0.000 NA
ATOM     15  H   UNL     1       4.975   0.816  20.279  0.00  0.00    +0.000 HD
ATOM     16  H   UNL     1       5.618   1.963  19.154  0.00  0.00    +0.000 HD
ENDBRANCH   6   7
BRANCH   1  17
ATOM     17  N   UNL     1       4.086   4.944  17.184  0.00  0.00    +0.000 N 
ATOM     18  H   UNL     1       4.392   4.241  17.866  0.00  0.00    +0.000 HD
BRANCH  17  22
ATOM     19  C   UNL     1       7.349   5.227  14.612  0.00  0.00    +0.000 A 
ATOM     20  N   UNL     1       7.364   5.972  15.739  0.00  0.00    +0.000 NA
ATOM     21  C   UNL     1       6.263   5.899  16.523  0.00  0.00    +0.000 A 
ATOM     22  C   UNL     1       5.137   5.116  16.250  0.00  0.00    +0.000 A 
ATOM     23  C   UNL     1       5.166   4.351  15.084  0.00  0.00    +0.000 A 
ATOM     24  C   UNL     1       6.275   4.422  14.247  0.00  0.00    +0.000 A 
ATOM     25  F   UNL     1       6.303   3.691  13.124  0.00  0.00    +0.000 F 
BRANCH  19  27
ATOM     26  C   UNL     1       8.239   5.927  12.573  0.00  0.00    +0.000 C 
ATOM     27  O   UNL     1       8.463   5.230  13.796  0.00  0.00    +0.000 OA
ENDBRANCH  19  27
ENDBRANCH  17  22
ENDBRANCH   1  17
BRANCH   4  28
ATOM     28  C   UNL     1       1.380   9.287  19.729  0.00  0.00    +0.000 C 
ATOM     29  C   UNL     1       0.305   9.814  18.773  0.00  0.00    +0.000 C 
BRANCH  28  30
ATOM     30  C   UNL     1       0.750   8.897  21.079  0.00  0.00    +0.000 C 
BRANCH  30  31
ATOM     31  O   UNL     1       1.482   9.452  22.167  0.00  0.00    +0.000 OA
ATOM     32  H   UNL     1       1.752   8.716  22.745  0.00  0.00    +0.000 HD
ENDBRANCH  30  31
ENDBRANCH  28  30
ENDBRANCH   4  28
TORSDOF 7
ENDMDL
MODEL 5
REMARK VINA RESULT:      -7.4      3.588      7.855
REMARK  Name = 
REMARK  10 active torsions:
REMARK  status: ('A' for Active; 'I' for Inactive)
REMARK    1  A    between atoms: C_1  and  O_2
REMARK    2  A    between atoms: O_2  and  C_3
REMARK    3  A    between atoms: C_6  and  N_7
REMARK    4  A    between atoms: N_7  and  C_8
REMARK    5  A    between atoms: C_11  and  C_12
REMARK    6  A    between atoms: C_12  and  C_13
REMARK    7  A    between atoms: C_12  and  C_14
REMARK    8  A    between atoms: C_14  and  O_15
REMARK    9  A    between atoms: C_17  and  C_18
REMARK   10  A    between atoms: C_20  and  C_21
REMARK                            x       y       z     vdW  Elec       q    Type
REMARK                         _______ _______ _______ _____ _____    ______ ____
ROOT
ATOM      1  C   UNL     1       2.924   6.118  18.179  0.00  0.00    +0.000 A 
ATOM      2  N   UNL     1       2.764   7.341  17.614  0.00  0.00    +0.000 NA
ATOM      3  C   UNL     1       2.246   8.342  18.353  0.00  0.00    +0.000 A 
ATOM      4  C   UNL     1       1.839   8.200  19.667  0.00  0.00    +0.000 A 
ATOM      5  C   UNL     1       2.013   6.937  20.241  0.00  0.00    +0.000 A 
ATOM      6  C   UNL     1       2.565   5.860  19.514  0.00  0.00    +0.000 A 
ENDROOT
BRANCH   6   7
ATOM      7  C   UNL     1       2.785   4.559  20.163  0.00  0.00    +0.000 A 
ATOM      8  N   UNL     1       1.854   4.135  21.027  0.00  0.00    +0.000 NA
ATOM      9  C   UNL     1       2.067   2.919  21.530  0.00  0.00    +0.000 A 
ATOM     10  C   UNL     1       1.042   2.353  22.465  0.00  0.00    +0.000 C 
ATOM     11  N   UNL     1       3.130   2.165  21.258  0.00  0.00    +0.000 NA
ATOM     12  C   UNL     1       4.007   2.698  20.420  0.00  0.00    +0.000 A 
ATOM     13  N   UNL     1       5.135   1.962  20.132  0.00  0.00    +0.000 N 
ATOM     14  N   UNL     1       3.869   3.866  19.814  0.00  0.00    +0.000 NA
ATOM     15  H   UNL     1       4.985   0.979  20.305  0.00  0.00    +0.000 HD
ATOM     16  H   UNL     1       5.531   2.231  19.243  0.00  0.00    +0.000 HD
ENDBRANCH   6   7
BRANCH   1  17
ATOM     17  N   UNL     1       3.367   5.066  17.324  0.00  0.00    +0.000 N 
ATOM     18  H   UNL     1       3.321   4.192  17.859  0.00  0.00    +0.000 HD
BRANCH  17  22
ATOM     19  C   UNL     1       6.897   5.357  15.134  0.00  0.00    +0.000 A 
ATOM     20  N   UNL     1       5.897   4.604  14.627  0.00  0.00    +0.000 NA
ATOM     21  C   UNL     1       4.787   4.485  15.391  0.00  0.00    +0.000 A 
ATOM     22  C   UNL     1       4.609   5.081  16.643  0.00  0.00    +0.000 A 
ATOM     23  C   UNL     1       5.660   5.863  17.126  0.00  0.00    +0.000 A 
ATOM     24  C   UNL     1       6.822   5.986  16.373  0.00  0.00    +0.000 A 
ATOM     25  F   UNL     1       7.835   6.732  16.837  0.00  0.00    +0.000 F 
BRANCH  19  27
ATOM     26  C   UNL     1       7.848   5.193  13.011  0.00  0.00    +0.000 C 
ATOM     27  O   UNL     1       8.037   5.548  14.379  0.00  0.00    +0.000 OA
ENDBRANCH  19  27
ENDBRANCH  17  22
ENDBRANCH   1  17
BRANCH   4  28
ATOM     28  C   UNL     1       1.202   9.337  20.443  0.00  0.00    +0.000 C 
ATOM     29  C   UNL     1      -0.017   9.903  19.708  0.00  0.00    +0.000 C 
BRANCH  28  30
ATOM     30  C   UNL     1       0.813   8.907  21.870  0.00  0.00    +0.000 C 
BRANCH  30  31
ATOM     31  O   UNL     1       1.716   9.443  22.832  0.00  0.00    +0.000 OA
ATOM     32  H   UNL     1       1.535   9.003  23.682  0.00  0.00    +0.000 HD
ENDBRANCH  30  31
ENDBRANCH  28  30
ENDBRANCH   4  28
TORSDOF 7
ENDMDL
MODEL 6
REMARK VINA RESULT:      -7.4      3.312      4.932
REMARK  Name = 
REMARK  10 active torsions:
REMARK  status: ('A' for Active; 'I' for Inactive)
REMARK    1  A    between atoms: C_1  and  O_2
REMARK    2  A    between atoms: O_2  and  C_3
REMARK    3  A    between atoms: C_6  and  N_7
REMARK    4  A    between atoms: N_7  and  C_8
REMARK    5  A    between atoms: C_11  and  C_12
REMARK    6  A    between atoms: C_12  and  C_13
REMARK    7  A    between atoms: C_12  and  C_14
REMARK    8  A    between atoms: C_14  and  O_15
REMARK    9  A    between atoms: C_17  and  C_18
REMARK   10  A    between atoms: C_20  and  C_21
REMARK                            x       y       z     vdW  Elec       q    Type
REMARK                         _______ _______ _______ _____ _____    ______ ____
ROOT
ATOM      1  C   UNL     1       4.915   5.726  17.005  0.00  0.00    +0.000 A 
ATOM      2  N   UNL     1       5.444   6.425  15.969  0.00  0.00    +0.000 NA
ATOM      3  C   UNL     1       5.778   5.771  14.839  0.00  0.00    +0.000 A 
ATOM      4  C   UNL     1       5.636   4.405  14.668  0.00  0.00    +0.000 A 
ATOM      5  C   UNL     1       5.087   3.695  15.740  0.00  0.00    +0.000 A 
ATOM      6  C   UNL     1       4.706   4.337  16.938  0.00  0.00    +0.000 A 
ENDROOT
BRANCH   6   7
ATOM      7  C   UNL     1       4.081   3.570  18.027  0.00  0.00    +0.000 A 
ATOM      8  N   UNL     1       2.746   3.456  18.013  0.00  0.00    +0.000 NA
ATOM      9  C   UNL     1       2.239   2.691  18.980  0.00  0.00    +0.000 A 
ATOM     10  C   UNL     1       0.756   2.472  19.001  0.00  0.00    +0.000 C 
ATOM     11  N   UNL     1       2.958   2.102  19.933  0.00  0.00    +0.000 NA
ATOM     12  C   UNL     1       4.264   2.313  19.873  0.00  0.00    +0.000 A 
ATOM     13  N   UNL     1       5.043   1.744  20.856  0.00  0.00    +0.000 N 
ATOM     14  N   UNL     1       4.883   3.001  18.927  0.00  0.00    +0.000 NA
ATOM     15  H   UNL     1       4.578   0.956  21.281  0.00  0.00    +0.000 HD
ATOM     16  H   UNL     1       5.995   1.618  20.542  0.00  0.00    +0.000 HD
ENDBRANCH   6   7
BRANCH   1  17
ATOM     17  N   UNL     1       4.686   6.443  18.216  0.00  0.00    +0.000 N 
ATOM     18  H   UNL     1       4.867   5.800  18.995  0.00  0.00    +0.000 HD
BRANCH  17  22
ATOM     19  C   UNL     1       1.316   8.651  19.269  0.00  0.00    +0.000 A 
ATOM     20  N   UNL     1       1.668   7.616  20.062  0.00  0.00    +0.000 NA
ATOM     21  C   UNL     1       2.734   6.885  19.660  0.00  0.00    +0.000 A 
ATOM     22  C   UNL     1       3.481   7.129  18.503  0.00  0.00    +0.000 A 
ATOM     23  C   UNL     1       3.093   8.216  17.718  0.00  0.00    +0.000 A 
ATOM     24  C   UNL     1       1.989   8.973  18.095  0.00  0.00    +0.000 A 
ATOM     25  F   UNL     1       1.612  10.014  17.340  0.00  0.00    +0.000 F 
BRANCH  19  27
ATOM     26  C   UNL     1       0.046   9.432  21.063  0.00  0.00    +0.000 C 
ATOM     27  O   UNL     1       0.263   9.457  19.654  0.00  0.00    +0.000 OA
ENDBRANCH  19  27
ENDBRANCH  17  22
ENDBRANCH   1  17
BRANCH   4  28
ATOM     28  C   UNL     1       6.085   3.699  13.402  0.00  0.00    +0.000 C 
ATOM     29  C   UNL     1       4.947   3.604  12.381  0.00  0.00    +0.000 C 
BRANCH  28  30
ATOM     30  C   UNL     1       7.312   4.382  12.772  0.00  0.00    +0.000 C 
BRANCH  30  31
ATOM     31  O   UNL     1       7.261   4.320  11.350  0.00  0.00    +0.000 OA
ATOM     32  H   UNL     1       8.150   4.079  11.033  0.00  0.00    +0.000 HD
ENDBRANCH  30  31
ENDBRANCH  28  30
ENDBRANCH   4  28
TORSDOF 7
ENDMDL
MODEL 7
REMARK VINA RESULT:      -7.4      3.678      5.551
REMARK  Name = 
REMARK  10 active torsions:
REMARK  status: ('A' for Active; 'I' for Inactive)
REMARK    1  A    between atoms: C_1  and  O_2
REMARK    2  A    between atoms: O_2  and  C_3
REMARK    3  A    between atoms: C_6  and  N_7
REMARK    4  A    between atoms: N_7  and  C_8
REMARK    5  A    between atoms: C_11  and  C_12
REMARK    6  A    between atoms: C_12  and  C_13
REMARK    7  A    between atoms: C_12  and  C_14
REMARK    8  A    between atoms: C_14  and  O_15
REMARK    9  A    between atoms: C_17  and  C_18
REMARK   10  A    between atoms: C_20  and  C_21
REMARK                            x       y       z     vdW  Elec       q    Type
REMARK                         _______ _______ _______ _____ _____    ______ ____
ROOT
ATOM      1  C   UNL     1       3.989   5.859  18.045  0.00  0.00    +0.000 A 
ATOM      2  N   UNL     1       4.276   6.619  16.958  0.00  0.00    +0.000 NA
ATOM      3  C   UNL     1       4.967   6.072  15.939  0.00  0.00    +0.000 A 
ATOM      4  C   UNL     1       5.433   4.769  15.935  0.00  0.00    +0.000 A 
ATOM      5  C   UNL     1       5.128   3.993  17.058  0.00  0.00    +0.000 A 
ATOM      6  C   UNL     1       4.393   4.516  18.144  0.00  0.00    +0.000 A 
ENDROOT
BRANCH   6   7
ATOM      7  C   UNL     1       4.043   3.659  19.287  0.00  0.00    +0.000 A 
ATOM      8  N   UNL     1       2.804   3.770  19.785  0.00  0.00    +0.000 NA
ATOM      9  C   UNL     1       2.517   2.920  20.770  0.00  0.00    +0.000 A 
ATOM     10  C   UNL     1       1.133   2.949  21.346  0.00  0.00    +0.000 C 
ATOM     11  N   UNL     1       3.375   2.040  21.283  0.00  0.00    +0.000 NA
ATOM     12  C   UNL     1       4.583   2.041  20.740  0.00  0.00    +0.000 A 
ATOM     13  N   UNL     1       5.510   1.164  21.258  0.00  0.00    +0.000 N 
ATOM     14  N   UNL     1       4.961   2.795  19.720  0.00  0.00    +0.000 NA
ATOM     15  H   UNL     1       5.062   0.394  21.732  0.00  0.00    +0.000 HD
ATOM     16  H   UNL     1       6.229   0.950  20.582  0.00  0.00    +0.000 HD
ENDBRANCH   6   7
BRANCH   1  17
ATOM     17  N   UNL     1       3.358   6.516  19.142  0.00  0.00    +0.000 N 
ATOM     18  H   UNL     1       2.807   5.813  19.648  0.00  0.00    +0.000 HD
BRANCH  17  22
ATOM     19  C   UNL     1       0.737   9.710  18.622  0.00  0.00    +0.000 A 
ATOM     20  N   UNL     1       1.445   9.291  17.551  0.00  0.00    +0.000 NA
ATOM     21  C   UNL     1       2.329   8.289  17.768  0.00  0.00    +0.000 A 
ATOM     22  C   UNL     1       2.548   7.670  19.003  0.00  0.00    +0.000 A 
ATOM     23  C   UNL     1       1.786   8.122  20.081  0.00  0.00    +0.000 A 
ATOM     24  C   UNL     1       0.886   9.165  19.893  0.00  0.00    +0.000 A 
ATOM     25  F   UNL     1       0.156   9.604  20.928  0.00  0.00    +0.000 F 
BRANCH  19  27
ATOM     26  C   UNL     1      -1.332  10.252  17.690  0.00  0.00    +0.000 C 
ATOM     27  O   UNL     1      -0.211  10.700  18.448  0.00  0.00    +0.000 OA
ENDBRANCH  19  27
ENDBRANCH  17  22
ENDBRANCH   1  17
BRANCH   4  28
ATOM     28  C   UNL     1       6.263   4.211  14.794  0.00  0.00    +0.000 C 
ATOM     29  C   UNL     1       5.435   4.078  13.512  0.00  0.00    +0.000 C 
BRANCH  28  30
ATOM     30  C   UNL     1       7.519   5.063  14.533  0.00  0.00    +0.000 C 
BRANCH  30  31
ATOM     31  O   UNL     1       7.638   5.393  13.153  0.00  0.00    +0.000 OA
ATOM     32  H   UNL     1       6.892   4.976  12.686  0.00  0.00    +0.000 HD
ENDBRANCH  30  31
ENDBRANCH  28  30
ENDBRANCH   4  28
TORSDOF 7
ENDMDL
MODEL 8
REMARK VINA RESULT:      -7.4      3.976      5.795
REMARK  Name = 
REMARK  10 active torsions:
REMARK  status: ('A' for Active; 'I' for Inactive)
REMARK    1  A    between atoms: C_1  and  O_2
REMARK    2  A    between atoms: O_2  and  C_3
REMARK    3  A    between atoms: C_6  and  N_7
REMARK    4  A    between atoms: N_7  and  C_8
REMARK    5  A    between atoms: C_11  and  C_12
REMARK    6  A    between atoms: C_12  and  C_13
REMARK    7  A    between atoms: C_12  and  C_14
REMARK    8  A    between atoms: C_14  and  O_15
REMARK    9  A    between atoms: C_17  and  C_18
REMARK   10  A    between atoms: C_20  and  C_21
REMARK                            x       y       z     vdW  Elec       q    Type
REMARK                         _______ _______ _______ _____ _____    ______ ____
ROOT
ATOM      1  C   UNL     1       3.704   6.322  18.350  0.00  0.00    +0.000 A 
ATOM      2  N   UNL     1       3.945   7.242  17.383  0.00  0.00    +0.000 NA
ATOM      3  C   UNL     1       4.660   6.882  16.299  0.00  0.00    +0.000 A 
ATOM      4  C   UNL     1       5.193   5.620  16.111  0.00  0.00    +0.000 A 
ATOM      5  C   UNL     1       4.935   4.677  17.112  0.00  0.00    +0.000 A 
ATOM      6  C   UNL     1       4.179   5.001  18.259  0.00  0.00    +0.000 A 
ENDROOT
BRANCH   6   7
ATOM      7  C   UNL     1       3.879   3.973  19.267  0.00  0.00    +0.000 A 
ATOM      8  N   UNL     1       2.676   4.016  19.854  0.00  0.00    +0.000 NA
ATOM      9  C   UNL     1       2.430   3.020  20.704  0.00  0.00    +0.000 A 
ATOM     10  C   UNL     1       1.084   2.970  21.362  0.00  0.00    +0.000 C 
ATOM     11  N   UNL     1       3.298   2.058  21.012  0.00  0.00    +0.000 NA
ATOM     12  C   UNL     1       4.471   2.134  20.402  0.00  0.00    +0.000 A 
ATOM     13  N   UNL     1       5.409   1.173  20.711  0.00  0.00    +0.000 N 
ATOM     14  N   UNL     1       4.803   3.039  19.496  0.00  0.00    +0.000 NA
ATOM     15  H   UNL     1       4.973   0.342  21.081  0.00  0.00    +0.000 HD
ATOM     16  H   UNL     1       6.081   1.064  19.966  0.00  0.00    +0.000 HD
ENDBRANCH   6   7
BRANCH   1  17
ATOM     17  N   UNL     1       3.044   6.781  19.528  0.00  0.00    +0.000 N 
ATOM     18  H   UNL     1       2.536   5.986  19.929  0.00  0.00    +0.000 HD
BRANCH  17  22
ATOM     19  C   UNL     1       0.241   9.861  19.481  0.00  0.00    +0.000 A 
ATOM     20  N   UNL     1       0.896   9.583  18.333  0.00  0.00    +0.000 NA
ATOM     21  C   UNL     1       1.840   8.616  18.398  0.00  0.00    +0.000 A 
ATOM     22  C   UNL     1       2.171   7.897  19.551  0.00  0.00    +0.000 A 
ATOM     23  C   UNL     1       1.462   8.204  20.713  0.00  0.00    +0.000 A 
ATOM     24  C   UNL     1       0.501   9.209  20.682  0.00  0.00    +0.000 A 
ATOM     25  F   UNL     1      -0.179   9.508  21.798  0.00  0.00    +0.000 F 
BRANCH  19  27
ATOM     26  C   UNL     1      -1.708  10.580  18.420  0.00  0.00    +0.000 C 
ATOM     27  O   UNL     1      -0.764  10.809  19.463  0.00  0.00    +0.000 OA
ENDBRANCH  19  27
ENDBRANCH  17  22
ENDBRANCH   1  17
BRANCH   4  28
ATOM     28  C   UNL     1       6.047   5.275  14.905  0.00  0.00    +0.000 C 
ATOM     29  C   UNL     1       7.458   4.848  15.322  0.00  0.00    +0.000 C 
BRANCH  28  30
ATOM     30  C   UNL     1       5.393   4.184  14.037  0.00  0.00    +0.000 C 
BRANCH  30  31
ATOM     31  O   UNL     1       6.370   3.292  13.511  0.00  0.00    +0.000 OA
ATOM     32  H   UNL     1       7.076   3.831  13.111  0.00  0.00    +0.000 HD
ENDBRANCH  30  31
ENDBRANCH  28  30
ENDBRANCH   4  28
TORSDOF 7
ENDMDL
MODEL 9
REMARK VINA RESULT:      -7.4      3.439      7.384
REMARK  Name = 
REMARK  10 active torsions:
REMARK  status: ('A' for Active; 'I' for Inactive)
REMARK    1  A    between atoms: C_1  and  O_2
REMARK    2  A    between atoms: O_2  and  C_3
REMARK    3  A    between atoms: C_6  and  N_7
REMARK    4  A    between atoms: N_7  and  C_8
REMARK    5  A    between atoms: C_11  and  C_12
REMARK    6  A    between atoms: C_12  and  C_13
REMARK    7  A    between atoms: C_12  and  C_14
REMARK    8  A    between atoms: C_14  and  O_15
REMARK    9  A    between atoms: C_17  and  C_18
REMARK   10  A    between atoms: C_20  and  C_21
REMARK                            x       y       z     vdW  Elec       q    Type
REMARK                         _______ _______ _______ _____ _____    ______ ____
ROOT
ATOM      1  C   UNL     1       4.377   5.936  17.604  0.00  0.00    +0.000 A 
ATOM      2  N   UNL     1       4.534   7.205  17.151  0.00  0.00    +0.000 NA
ATOM      3  C   UNL     1       3.615   8.135  17.476  0.00  0.00    +0.000 A 
ATOM      4  C   UNL     1       2.490   7.875  18.237  0.00  0.00    +0.000 A 
ATOM      5  C   UNL     1       2.340   6.564  18.703  0.00  0.00    +0.000 A 
ATOM      6  C   UNL     1       3.284   5.558  18.403  0.00  0.00    +0.000 A 
ENDROOT
BRANCH   6   7
ATOM      7  C   UNL     1       3.127   4.203  18.953  0.00  0.00    +0.000 A 
ATOM      8  N   UNL     1       2.457   4.079  20.106  0.00  0.00    +0.000 NA
ATOM      9  C   UNL     1       2.282   2.825  20.521  0.00  0.00    +0.000 A 
ATOM     10  C   UNL     1       1.497   2.601  21.778  0.00  0.00    +0.000 C 
ATOM     11  N   UNL     1       2.754   1.748  19.895  0.00  0.00    +0.000 NA
ATOM     12  C   UNL     1       3.433   1.989  18.783  0.00  0.00    +0.000 A 
ATOM     13  N   UNL     1       3.962   0.906  18.117  0.00  0.00    +0.000 N 
ATOM     14  N   UNL     1       3.617   3.184  18.246  0.00  0.00    +0.000 NA
ATOM     15  H   UNL     1       3.472   0.056  18.353  0.00  0.00    +0.000 HD
ATOM     16  H   UNL     1       4.108   1.112  17.140  0.00  0.00    +0.000 HD
ENDBRANCH   6   7
BRANCH   1  17
ATOM     17  N   UNL     1       5.313   4.965  17.138  0.00  0.00    +0.000 N 
ATOM     18  H   UNL     1       6.140   5.017  17.742  0.00  0.00    +0.000 HD
BRANCH  17  22
ATOM     19  C   UNL     1       6.788   4.474  13.275  0.00  0.00    +0.000 A 
ATOM     20  N   UNL     1       7.616   4.991  14.208  0.00  0.00    +0.000 NA
ATOM     21  C   UNL     1       7.088   5.190  15.438  0.00  0.00    +0.000 A 
ATOM     22  C   UNL     1       5.769   4.898  15.798  0.00  0.00    +0.000 A 
ATOM     23  C   UNL     1       4.949   4.352  14.809  0.00  0.00    +0.000 A 
ATOM     24  C   UNL     1       5.458   4.156  13.530  0.00  0.00    +0.000 A 
ATOM     25  F   UNL     1       4.671   3.637  12.577  0.00  0.00    +0.000 F 
BRANCH  19  27
ATOM     26  C   UNL     1       7.215   2.824  11.682  0.00  0.00    +0.000 C 
ATOM     27  O   UNL     1       7.287   4.209  12.014  0.00  0.00    +0.000 OA
ENDBRANCH  19  27
ENDBRANCH  17  22
ENDBRANCH   1  17
BRANCH   4  28
ATOM     28  C   UNL     1       1.446   8.937  18.528  0.00  0.00    +0.000 C 
ATOM     29  C   UNL     1       1.118   9.007  20.022  0.00  0.00    +0.000 C 
BRANCH  28  30
ATOM     30  C   UNL     1       1.882  10.321  18.011  0.00  0.00    +0.000 C 
BRANCH  30  31
ATOM     31  O   UNL     1       0.867  11.295  18.234  0.00  0.00    +0.000 OA
ATOM     32  H   UNL     1       1.262  12.017  18.756  0.00  0.00    +0.000 HD
ENDBRANCH  30  31
ENDBRANCH  28  30
ENDBRANCH   4  28
TORSDOF 7
ENDMDL
