MODEL 1
REMARK VINA RESULT:      -8.6      0.000      0.000
REMARK  Name = 
REMARK  6 active torsions:
REMARK  status: ('A' for Active; 'I' for Inactive)
REMARK    1  A    between atoms: C_1  and  O_2
REMARK    2  A    between atoms: O_2  and  C_3
REMARK    3  A    between atoms: C_7  and  C_8
REMARK    4  A    between atoms: N_10  and  C_11
REMARK    5  A    between atoms: C_15  and  O_16
REMARK    6  A    between atoms: O_16  and  C_17
REMARK                            x       y       z     vdW  Elec       q    Type
REMARK                         _______ _______ _______ _____ _____    ______ ____
ROOT
ATOM      1  C   UNL     1       2.679   6.524  19.032  0.00  0.00    +0.000 A 
ATOM      2  C   UNL     1       2.217   5.471  18.233  0.00  0.00    +0.000 A 
ATOM      3  C   UNL     1       3.061   4.434  17.812  0.00  0.00    +0.000 A 
ATOM      4 CL   UNL     1       2.320   3.106  16.980  0.00  0.00    +0.000 Cl
ATOM      5  C   UNL     1       4.433   4.493  18.063  0.00  0.00    +0.000 A 
ATOM      6  C   UNL     1       4.885   5.473  18.958  0.00  0.00    +0.000 A 
ATOM      7 CL   UNL     1       6.514   5.463  19.538  0.00  0.00    +0.000 Cl
ATOM      8  C   UNL     1       4.021   6.484  19.433  0.00  0.00    +0.000 A 
ENDROOT
BRANCH   1  11
ATOM      9  C   UNL     1       1.637   8.774  18.716  0.00  0.00    +0.000 C 
ATOM     10  O   UNL     1       2.079   8.972  17.581  0.00  0.00    +0.000 OA
ATOM     11  N   UNL     1       1.853   7.618  19.456  0.00  0.00    +0.000 N 
ATOM     12  H   UNL     1       1.361   7.498  20.327  0.00  0.00    +0.000 HD
BRANCH   9  17
ATOM     13  C   UNL     1      -0.077  11.307  21.038  0.00  0.00    +0.000 A 
ATOM     14  C   UNL     1      -0.806  12.041  20.094  0.00  0.00    +0.000 A 
ATOM     15  C   UNL     1      -0.719  11.725  18.746  0.00  0.00    +0.000 A 
ATOM     16  C   UNL     1       0.079  10.657  18.348  0.00  0.00    +0.000 A 
ATOM     17  C   UNL     1       0.804   9.889  19.279  0.00  0.00    +0.000 A 
ATOM     18  C   UNL     1       0.728  10.227  20.641  0.00  0.00    +0.000 A 
BRANCH  13  20
ATOM     19  C   UNL     1      -1.088  10.839  23.122  0.00  0.00    +0.000 C 
ATOM     20  O   UNL     1      -0.280  11.704  22.333  0.00  0.00    +0.000 OA
ENDBRANCH  13  20
ENDBRANCH   9  17
ENDBRANCH   1  11
BRANCH   5  21
ATOM     21  O   UNL     1       5.350   3.625  17.497  0.00  0.00    +0.000 OA
BRANCH  21  22
ATOM     22  C   UNL     1       6.011   4.009  16.337  0.00  0.00    +0.000 A 
ATOM     23  C   UNL     1       7.131   4.826  16.278  0.00  0.00    +0.000 A 
ATOM     24  N   UNL     1       7.651   5.342  15.143  0.00  0.00    +0.000 NA
ATOM     25  C   UNL     1       7.185   4.887  13.979  0.00  0.00    +0.000 A 
ATOM     26  C   UNL     1       7.730   5.385  12.811  0.00  0.00    +0.000 A 
ATOM     27  C   UNL     1       7.496   4.765  11.589  0.00  0.00    +0.000 A 
ATOM     28  C   UNL     1       6.663   3.652  11.536  0.00  0.00    +0.000 A 
ATOM     29  C   UNL     1       5.968   3.248  12.680  0.00  0.00    +0.000 A 
ATOM     30  C   UNL     1       6.200   3.879  13.915  0.00  0.00    +0.000 A 
ATOM     31  C   UNL     1       5.541   3.523  15.116  0.00  0.00    +0.000 A 
ENDBRANCH  21  22
ENDBRANCH   5  21
TORSDOF 5
ENDMDL
MODEL 2
REMARK VINA RESULT:      -8.4      0.928      1.599
REMARK  Name = 
REMARK  6 active torsions:
REMARK  status: ('A' for Active; 'I' for Inactive)
REMARK    1  A    between atoms: C_1  and  O_2
REMARK    2  A    between atoms: O_2  and  C_3
REMARK    3  A    between atoms: C_7  and  C_8
REMARK    4  A    between atoms: N_10  and  C_11
REMARK    5  A    between atoms: C_15  and  O_16
REMARK    6  A    between atoms: O_16  and  C_17
REMARK                            x       y       z     vdW  Elec       q    Type
REMARK                         _______ _______ _______ _____ _____    ______ ____
ROOT
ATOM      1  C   UNL     1       2.595   6.479  18.978  0.00  0.00    +0.000 A 
ATOM      2  C   UNL     1       2.177   5.396  18.196  0.00  0.00    +0.000 A 
ATOM      3  C   UNL     1       3.059   4.378  17.807  0.00  0.00    +0.000 A 
ATOM      4 CL   UNL     1       2.372   3.010  16.994  0.00  0.00    +0.000 Cl
ATOM      5  C   UNL     1       4.425   4.486  18.074  0.00  0.00    +0.000 A 
ATOM      6  C   UNL     1       4.833   5.499  18.953  0.00  0.00    +0.000 A 
ATOM      7 CL   UNL     1       6.454   5.552  19.554  0.00  0.00    +0.000 Cl
ATOM      8  C   UNL     1       3.932   6.490  19.397  0.00  0.00    +0.000 A 
ENDROOT
BRANCH   1  11
ATOM      9  C   UNL     1       1.570   8.736  18.655  0.00  0.00    +0.000 C 
ATOM     10  O   UNL     1       2.106   8.976  17.570  0.00  0.00    +0.000 OA
ATOM     11  N   UNL     1       1.729   7.554  19.368  0.00  0.00    +0.000 N 
ATOM     12  H   UNL     1       1.165   7.401  20.189  0.00  0.00    +0.000 HD
BRANCH   9  17
ATOM     13  C   UNL     1      -1.104  11.461  19.069  0.00  0.00    +0.000 A 
ATOM     14  C   UNL     1      -0.867  11.828  20.399  0.00  0.00    +0.000 A 
ATOM     15  C   UNL     1       0.121  11.189  21.134  0.00  0.00    +0.000 A 
ATOM     16  C   UNL     1       0.888  10.199  20.526  0.00  0.00    +0.000 A 
ATOM     17  C   UNL     1       0.685   9.827  19.184  0.00  0.00    +0.000 A 
ATOM     18  C   UNL     1      -0.332  10.464  18.451  0.00  0.00    +0.000 A 
BRANCH  13  20
ATOM     19  C   UNL     1      -2.930  11.469  17.569  0.00  0.00    +0.000 C 
ATOM     20  O   UNL     1      -2.084  12.194  18.453  0.00  0.00    +0.000 OA
ENDBRANCH  13  20
ENDBRANCH   9  17
ENDBRANCH   1  11
BRANCH   5  21
ATOM     21  O   UNL     1       5.376   3.636  17.538  0.00  0.00    +0.000 OA
BRANCH  21  22
ATOM     22  C   UNL     1       6.032   4.013  16.372  0.00  0.00    +0.000 A 
ATOM     23  C   UNL     1       7.170   4.804  16.304  0.00  0.00    +0.000 A 
ATOM     24  N   UNL     1       7.688   5.315  15.167  0.00  0.00    +0.000 NA
ATOM     25  C   UNL     1       7.198   4.879  14.006  0.00  0.00    +0.000 A 
ATOM     26  C   UNL     1       7.741   5.372  12.834  0.00  0.00    +0.000 A 
ATOM     27  C   UNL     1       7.477   4.766  11.612  0.00  0.00    +0.000 A 
ATOM     28  C   UNL     1       6.618   3.672  11.561  0.00  0.00    +0.000 A 
ATOM     29  C   UNL     1       5.928   3.277  12.711  0.00  0.00    +0.000 A 
ATOM     30  C   UNL     1       6.190   3.895  13.947  0.00  0.00    +0.000 A 
ATOM     31  C   UNL     1       5.537   3.546  15.154  0.00  0.00    +0.000 A 
ENDBRANCH  21  22
ENDBRANCH   5  21
TORSDOF 5
ENDMDL
MODEL 3
REMARK VINA RESULT:      -8.4      5.333      7.637
REMARK  Name = 
REMARK  6 active torsions:
REMARK  status: ('A' for Active; 'I' for Inactive)
REMARK    1  A    between atoms: C_1  and  O_2
REMARK    2  A    between atoms: O_2  and  C_3
REMARK    3  A    between atoms: C_7  and  C_8
REMARK    4  A    between atoms: N_10  and  C_11
REMARK    5  A    between atoms: C_15  and  O_16
REMARK    6  A    between atoms: O_16  and  C_17
REMARK                            x       y       z     vdW  Elec       q    Type
REMARK                         _______ _______ _______ _____ _____    ______ ____
ROOT
ATOM      1  C   UNL     1       7.985   8.202  17.769  0.00  0.00    +0.000 A 
ATOM      2  C   UNL     1       8.352   7.434  18.881  0.00  0.00    +0.000 A 
ATOM      3  C   UNL     1       7.936   6.104  19.032  0.00  0.00    +0.000 A 
ATOM      4 CL   UNL     1       8.608   5.218  20.362  0.00  0.00    +0.000 Cl
ATOM      5  C   UNL     1       7.022   5.543  18.140  0.00  0.00    +0.000 A 
ATOM      6  C   UNL     1       6.743   6.256  16.966  0.00  0.00    +0.000 A 
ATOM      7 CL   UNL     1       5.837   5.533  15.683  0.00  0.00    +0.000 Cl
ATOM      8  C   UNL     1       7.212   7.575  16.783  0.00  0.00    +0.000 A 
ENDROOT
BRANCH   1  11
ATOM      9  C   UNL     1       9.039  10.331  18.545  0.00  0.00    +0.000 C 
ATOM     10  O   UNL     1       9.447   9.897  19.625  0.00  0.00    +0.000 OA
ATOM     11  N   UNL     1       8.364   9.574  17.595  0.00  0.00    +0.000 N 
ATOM     12  H   UNL     1       8.168   9.984  16.695  0.00  0.00    +0.000 HD
BRANCH   9  17
ATOM     13  C   UNL     1       8.769  14.101  17.861  0.00  0.00    +0.000 A 
ATOM     14  C   UNL     1      10.128  14.440  17.856  0.00  0.00    +0.000 A 
ATOM     15  C   UNL     1      11.091  13.470  18.088  0.00  0.00    +0.000 A 
ATOM     16  C   UNL     1      10.692  12.153  18.300  0.00  0.00    +0.000 A 
ATOM     17  C   UNL     1       9.334  11.781  18.288  0.00  0.00    +0.000 A 
ATOM     18  C   UNL     1       8.362  12.774  18.072  0.00  0.00    +0.000 A 
BRANCH  13  20
ATOM     19  C   UNL     1       6.577  14.974  17.988  0.00  0.00    +0.000 C 
ATOM     20  O   UNL     1       7.930  15.148  17.586  0.00  0.00    +0.000 OA
ENDBRANCH  13  20
ENDBRANCH   9  17
ENDBRANCH   1  11
BRANCH   5  21
ATOM     21  O   UNL     1       6.407   4.320  18.347  0.00  0.00    +0.000 OA
BRANCH  21  22
ATOM     22  C   UNL     1       5.087   4.298  18.780  0.00  0.00    +0.000 A 
ATOM     23  C   UNL     1       4.451   5.307  19.490  0.00  0.00    +0.000 A 
ATOM     24  N   UNL     1       3.234   5.199  20.064  0.00  0.00    +0.000 NA
ATOM     25  C   UNL     1       2.500   4.124  19.774  0.00  0.00    +0.000 A 
ATOM     26  C   UNL     1       1.239   4.016  20.331  0.00  0.00    +0.000 A 
ATOM     27  C   UNL     1       0.325   3.081  19.861  0.00  0.00    +0.000 A 
ATOM     28  C   UNL     1       0.700   2.210  18.842  0.00  0.00    +0.000 A 
ATOM     29  C   UNL     1       2.024   2.193  18.394  0.00  0.00    +0.000 A 
ATOM     30  C   UNL     1       2.951   3.135  18.875  0.00  0.00    +0.000 A 
ATOM     31  C   UNL     1       4.306   3.185  18.465  0.00  0.00    +0.000 A 
ENDBRANCH  21  22
ENDBRANCH   5  21
TORSDOF 5
ENDMDL
MODEL 4
REMARK VINA RESULT:      -8.2      1.242      1.766
REMARK  Name = 
REMARK  6 active torsions:
REMARK  status: ('A' for Active; 'I' for Inactive)
REMARK    1  A    between atoms: C_1  and  O_2
REMARK    2  A    between atoms: O_2  and  C_3
REMARK    3  A    between atoms: C_7  and  C_8
REMARK    4  A    between atoms: N_10  and  C_11
REMARK    5  A    between atoms: C_15  and  O_16
REMARK    6  A    between atoms: O_16  and  C_17
REMARK                            x       y       z     vdW  Elec       q    Type
REMARK                         _______ _______ _______ _____ _____    ______ ____
ROOT
ATOM      1  C   UNL     1       2.741   6.711  19.045  0.00  0.00    +0.000 A 
ATOM      2  C   UNL     1       2.207   5.693  18.245  0.00  0.00    +0.000 A 
ATOM      3  C   UNL     1       2.982   4.608  17.810  0.00  0.00    +0.000 A 
ATOM      4 CL   UNL     1       2.153   3.334  16.978  0.00  0.00    +0.000 Cl
ATOM      5  C   UNL     1       4.357   4.582  18.047  0.00  0.00    +0.000 A 
ATOM      6  C   UNL     1       4.877   5.527  18.942  0.00  0.00    +0.000 A 
ATOM      7 CL   UNL     1       6.508   5.412  19.505  0.00  0.00    +0.000 Cl
ATOM      8  C   UNL     1       4.082   6.585  19.432  0.00  0.00    +0.000 A 
ENDROOT
BRANCH   1  11
ATOM      9  C   UNL     1       1.268   7.909  20.669  0.00  0.00    +0.000 C 
ATOM     10  O   UNL     1       1.240   7.012  21.516  0.00  0.00    +0.000 OA
ATOM     11  N   UNL     1       1.989   7.850  19.483  0.00  0.00    +0.000 N 
ATOM     12  H   UNL     1       2.043   8.674  18.904  0.00  0.00    +0.000 HD
BRANCH   9  17
ATOM     13  C   UNL     1      -0.797  11.144  20.509  0.00  0.00    +0.000 A 
ATOM     14  C   UNL     1      -1.055  11.329  21.872  0.00  0.00    +0.000 A 
ATOM     15  C   UNL     1      -0.585  10.415  22.803  0.00  0.00    +0.000 A 
ATOM     16  C   UNL     1       0.167   9.327  22.368  0.00  0.00    +0.000 A 
ATOM     17  C   UNL     1       0.460   9.129  21.006  0.00  0.00    +0.000 A 
ATOM     18  C   UNL     1      -0.037  10.048  20.066  0.00  0.00    +0.000 A 
BRANCH  13  20
ATOM     19  C   UNL     1      -2.611  12.572  20.006  0.00  0.00    +0.000 C 
ATOM     20  O   UNL     1      -1.291  12.136  19.705  0.00  0.00    +0.000 OA
ENDBRANCH  13  20
ENDBRANCH   9  17
ENDBRANCH   1  11
BRANCH   5  21
ATOM     21  O   UNL     1       5.213   3.662  17.467  0.00  0.00    +0.000 OA
BRANCH  21  22
ATOM     22  C   UNL     1       5.913   4.025  16.323  0.00  0.00    +0.000 A 
ATOM     23  C   UNL     1       7.073   4.787  16.291  0.00  0.00    +0.000 A 
ATOM     24  N   UNL     1       7.637   5.288  15.171  0.00  0.00    +0.000 NA
ATOM     25  C   UNL     1       7.170   4.868  13.995  0.00  0.00    +0.000 A 
ATOM     26  C   UNL     1       7.760   5.350  12.841  0.00  0.00    +0.000 A 
ATOM     27  C   UNL     1       7.517   4.754  11.609  0.00  0.00    +0.000 A 
ATOM     28  C   UNL     1       6.632   3.683  11.529  0.00  0.00    +0.000 A 
ATOM     29  C   UNL     1       5.898   3.303  12.657  0.00  0.00    +0.000 A 
ATOM     30  C   UNL     1       6.139   3.910  13.903  0.00  0.00    +0.000 A 
ATOM     31  C   UNL     1       5.442   3.575  15.089  0.00  0.00    +0.000 A 
ENDBRANCH  21  22
ENDBRANCH   5  21
TORSDOF 5
ENDMDL
MODEL 5
REMARK VINA RESULT:      -8.2      3.656     11.399
REMARK  Name = 
REMARK  6 active torsions:
REMARK  status: ('A' for Active; 'I' for Inactive)
REMARK    1  A    between atoms: C_1  and  O_2
REMARK    2  A    between atoms: O_2  and  C_3
REMARK    3  A    between atoms: C_7  and  C_8
REMARK    4  A    between atoms: N_10  and  C_11
REMARK    5  A    between atoms: C_15  and  O_16
REMARK    6  A    between atoms: O_16  and  C_17
REMARK                            x       y       z     vdW  Elec       q    Type
REMARK                         _______ _______ _______ _____ _____    ______ ____
ROOT
ATOM      1  C   UNL     1       1.552   9.189  19.010  0.00  0.00    +0.000 A 
ATOM      2  C   UNL     1       1.041   8.910  20.283  0.00  0.00    +0.000 A 
ATOM      3  C   UNL     1       0.356   9.875  21.035  0.00  0.00    +0.000 A 
ATOM      4 CL   UNL     1      -0.377   9.344  22.513  0.00  0.00    +0.000 Cl
ATOM      5  C   UNL     1       0.284  11.196  20.591  0.00  0.00    +0.000 A 
ATOM      6  C   UNL     1       0.684  11.458  19.273  0.00  0.00    +0.000 A 
ATOM      7 CL   UNL     1       0.387  12.998  18.545  0.00  0.00    +0.000 Cl
ATOM      8  C   UNL     1       1.319  10.469  18.491  0.00  0.00    +0.000 A 
ENDROOT
BRANCH   1  11
ATOM      9  C   UNL     1       2.636   6.964  18.657  0.00  0.00    +0.000 C 
ATOM     10  O   UNL     1       2.307   6.477  19.742  0.00  0.00    +0.000 OA
ATOM     11  N   UNL     1       2.285   8.237  18.225  0.00  0.00    +0.000 N 
ATOM     12  H   UNL     1       2.504   8.509  17.279  0.00  0.00    +0.000 HD
BRANCH   9  17
ATOM     13  C   UNL     1       5.205   5.555  16.174  0.00  0.00    +0.000 A 
ATOM     14  C   UNL     1       4.886   4.194  16.248  0.00  0.00    +0.000 A 
ATOM     15  C   UNL     1       3.880   3.757  17.097  0.00  0.00    +0.000 A 
ATOM     16  C   UNL     1       3.175   4.690  17.852  0.00  0.00    +0.000 A 
ATOM     17  C   UNL     1       3.460   6.067  17.779  0.00  0.00    +0.000 A 
ATOM     18  C   UNL     1       4.495   6.500  16.933  0.00  0.00    +0.000 A 
BRANCH  13  20
ATOM     19  C   UNL     1       7.000   4.752  14.863  0.00  0.00    +0.000 C 
ATOM     20  O   UNL     1       6.194   5.850  15.274  0.00  0.00    +0.000 OA
ENDBRANCH  13  20
ENDBRANCH   9  17
ENDBRANCH   1  11
BRANCH   5  21
ATOM     21  O   UNL     1      -0.183  12.238  21.373  0.00  0.00    +0.000 OA
BRANCH  21  22
ATOM     22  C   UNL     1      -1.554  12.389  21.540  0.00  0.00    +0.000 A 
ATOM     23  C   UNL     1      -2.494  12.432  20.520  0.00  0.00    +0.000 A 
ATOM     24  N   UNL     1      -3.793  12.763  20.680  0.00  0.00    +0.000 NA
ATOM     25  C   UNL     1      -4.262  12.870  21.924  0.00  0.00    +0.000 A 
ATOM     26  C   UNL     1      -5.597  13.179  22.102  0.00  0.00    +0.000 A 
ATOM     27  C   UNL     1      -6.208  13.033  23.341  0.00  0.00    +0.000 A 
ATOM     28  C   UNL     1      -5.453  12.611  24.431  0.00  0.00    +0.000 A 
ATOM     29  C   UNL     1      -4.069  12.466  24.302  0.00  0.00    +0.000 A 
ATOM     30  C   UNL     1      -3.449  12.620  23.049  0.00  0.00    +0.000 A 
ATOM     31  C   UNL     1      -2.055  12.483  22.839  0.00  0.00    +0.000 A 
ENDBRANCH  21  22
ENDBRANCH   5  21
TORSDOF 5
ENDMDL
MODEL 6
REMARK VINA RESULT:      -8.2      3.807     11.040
REMARK  Name = 
REMARK  6 active torsions:
REMARK  status: ('A' for Active; 'I' for Inactive)
REMARK    1  A    between atoms: C_1  and  O_2
REMARK    2  A    between atoms: O_2  and  C_3
REMARK    3  A    between atoms: C_7  and  C_8
REMARK    4  A    between atoms: N_10  and  C_11
REMARK    5  A    between atoms: C_15  and  O_16
REMARK    6  A    between atoms: O_16  and  C_17
REMARK                            x       y       z     vdW  Elec       q    Type
REMARK                         _______ _______ _______ _____ _____    ______ ____
ROOT
ATOM      1  C   UNL     1       1.188   9.410  18.099  0.00  0.00    +0.000 A 
ATOM      2  C   UNL     1      -0.192   9.549  17.911  0.00  0.00    +0.000 A 
ATOM      3  C   UNL     1      -0.859  10.754  18.177  0.00  0.00    +0.000 A 
ATOM      4 CL   UNL     1      -2.532  10.840  17.732  0.00  0.00    +0.000 Cl
ATOM      5  C   UNL     1      -0.184  11.818  18.776  0.00  0.00    +0.000 A 
ATOM      6  C   UNL     1       1.213  11.734  18.858  0.00  0.00    +0.000 A 
ATOM      7 CL   UNL     1       2.158  13.101  19.334  0.00  0.00    +0.000 Cl
ATOM      8  C   UNL     1       1.894  10.542  18.530  0.00  0.00    +0.000 A 
ENDROOT
BRANCH   1  11
ATOM      9  C   UNL     1       2.324   7.321  18.868  0.00  0.00    +0.000 C 
ATOM     10  O   UNL     1       2.086   7.469  20.069  0.00  0.00    +0.000 OA
ATOM     11  N   UNL     1       1.900   8.187  17.867  0.00  0.00    +0.000 N 
ATOM     12  H   UNL     1       2.044   7.927  16.904  0.00  0.00    +0.000 HD
BRANCH   9  17
ATOM     13  C   UNL     1       5.087   4.677  18.509  0.00  0.00    +0.000 A 
ATOM     14  C   UNL     1       4.391   3.702  17.785  0.00  0.00    +0.000 A 
ATOM     15  C   UNL     1       3.060   3.900  17.447  0.00  0.00    +0.000 A 
ATOM     16  C   UNL     1       2.435   5.088  17.813  0.00  0.00    +0.000 A 
ATOM     17  C   UNL     1       3.118   6.094  18.522  0.00  0.00    +0.000 A 
ATOM     18  C   UNL     1       4.461   5.879  18.880  0.00  0.00    +0.000 A 
BRANCH  13  20
ATOM     19  C   UNL     1       7.312   4.724  17.716  0.00  0.00    +0.000 C 
ATOM     20  O   UNL     1       6.399   4.367  18.747  0.00  0.00    +0.000 OA
ENDBRANCH  13  20
ENDBRANCH   9  17
ENDBRANCH   1  11
BRANCH   5  21
ATOM     21  O   UNL     1      -0.820  12.947  19.262  0.00  0.00    +0.000 OA
BRANCH  21  22
ATOM     22  C   UNL     1      -1.466  12.878  20.490  0.00  0.00    +0.000 A 
ATOM     23  C   UNL     1      -0.844  12.788  21.727  0.00  0.00    +0.000 A 
ATOM     24  N   UNL     1      -1.477  12.534  22.893  0.00  0.00    +0.000 NA
ATOM     25  C   UNL     1      -2.810  12.564  22.899  0.00  0.00    +0.000 A 
ATOM     26  C   UNL     1      -3.469  12.336  24.093  0.00  0.00    +0.000 A 
ATOM     27  C   UNL     1      -4.822  12.623  24.231  0.00  0.00    +0.000 A 
ATOM     28  C   UNL     1      -5.534  13.107  23.137  0.00  0.00    +0.000 A 
ATOM     29  C   UNL     1      -4.920  13.173  21.882  0.00  0.00    +0.000 A 
ATOM     30  C   UNL     1      -3.552  12.876  21.741  0.00  0.00    +0.000 A 
ATOM     31  C   UNL     1      -2.860  12.926  20.507  0.00  0.00    +0.000 A 
ENDBRANCH  21  22
ENDBRANCH   5  21
TORSDOF 5
ENDMDL
MODEL 7
REMARK VINA RESULT:      -8.1      4.046     10.890
REMARK  Name = 
REMARK  6 active torsions:
REMARK  status: ('A' for Active; 'I' for Inactive)
REMARK    1  A    between atoms: C_1  and  O_2
REMARK    2  A    between atoms: O_2  and  C_3
REMARK    3  A    between atoms: C_7  and  C_8
REMARK    4  A    between atoms: N_10  and  C_11
REMARK    5  A    between atoms: C_15  and  O_16
REMARK    6  A    between atoms: O_16  and  C_17
REMARK                            x       y       z     vdW  Elec       q    Type
REMARK                         _______ _______ _______ _____ _____    ______ ____
ROOT
ATOM      1  C   UNL     1       1.048   9.488  19.979  0.00  0.00    +0.000 A 
ATOM      2  C   UNL     1       1.001  10.649  19.197  0.00  0.00    +0.000 A 
ATOM      3  C   UNL     1       0.315  11.798  19.616  0.00  0.00    +0.000 A 
ATOM      4 CL   UNL     1       0.488  13.217  18.636  0.00  0.00    +0.000 Cl
ATOM      5  C   UNL     1      -0.466  11.773  20.773  0.00  0.00    +0.000 A 
ATOM      6  C   UNL     1      -0.331  10.664  21.620  0.00  0.00    +0.000 A 
ATOM      7 CL   UNL     1      -1.046  10.658  23.194  0.00  0.00    +0.000 Cl
ATOM      8  C   UNL     1       0.411   9.529  21.227  0.00  0.00    +0.000 A 
ENDROOT
BRANCH   1  11
ATOM      9  C   UNL     1       2.208   8.054  18.293  0.00  0.00    +0.000 C 
ATOM     10  O   UNL     1       2.191   8.879  17.376  0.00  0.00    +0.000 OA
ATOM     11  N   UNL     1       1.713   8.285  19.570  0.00  0.00    +0.000 N 
ATOM     12  H   UNL     1       1.870   7.593  20.286  0.00  0.00    +0.000 HD
BRANCH   9  17
ATOM     13  C   UNL     1       2.874   4.323  17.669  0.00  0.00    +0.000 A 
ATOM     14  C   UNL     1       4.199   4.389  17.223  0.00  0.00    +0.000 A 
ATOM     15  C   UNL     1       4.840   5.615  17.114  0.00  0.00    +0.000 A 
ATOM     16  C   UNL     1       4.158   6.772  17.477  0.00  0.00    +0.000 A 
ATOM     17  C   UNL     1       2.832   6.732  17.950  0.00  0.00    +0.000 A 
ATOM     18  C   UNL     1       2.182   5.489  18.038  0.00  0.00    +0.000 A 
BRANCH  13  20
ATOM     19  C   UNL     1       3.209   2.111  18.427  0.00  0.00    +0.000 C 
ATOM     20  O   UNL     1       2.377   3.051  17.760  0.00  0.00    +0.000 OA
ENDBRANCH  13  20
ENDBRANCH   9  17
ENDBRANCH   1  11
BRANCH   5  21
ATOM     21  O   UNL     1      -1.334  12.790  21.129  0.00  0.00    +0.000 OA
BRANCH  21  22
ATOM     22  C   UNL     1      -2.695  12.618  20.907  0.00  0.00    +0.000 A 
ATOM     23  C   UNL     1      -3.696  12.790  21.853  0.00  0.00    +0.000 A 
ATOM     24  N   UNL     1      -4.990  12.443  21.680  0.00  0.00    +0.000 NA
ATOM     25  C   UNL     1      -5.383  12.090  20.455  0.00  0.00    +0.000 A 
ATOM     26  C   UNL     1      -6.712  11.762  20.258  0.00  0.00    +0.000 A 
ATOM     27  C   UNL     1      -7.242  11.659  18.978  0.00  0.00    +0.000 A 
ATOM     28  C   UNL     1      -6.414  11.847  17.876  0.00  0.00    +0.000 A 
ATOM     29  C   UNL     1      -5.036  12.004  18.061  0.00  0.00    +0.000 A 
ATOM     30  C   UNL     1      -4.498  12.102  19.357  0.00  0.00    +0.000 A 
ATOM     31  C   UNL     1      -3.117  12.267  19.624  0.00  0.00    +0.000 A 
ENDBRANCH  21  22
ENDBRANCH   5  21
TORSDOF 5
ENDMDL
MODEL 8
REMARK VINA RESULT:      -8.1      4.103     11.514
REMARK  Name = 
REMARK  6 active torsions:
REMARK  status: ('A' for Active; 'I' for Inactive)
REMARK    1  A    between atoms: C_1  and  O_2
REMARK    2  A    between atoms: O_2  and  C_3
REMARK    3  A    between atoms: C_7  and  C_8
REMARK    4  A    between atoms: N_10  and  C_11
REMARK    5  A    between atoms: C_15  and  O_16
REMARK    6  A    between atoms: O_16  and  C_17
REMARK                            x       y       z     vdW  Elec       q    Type
REMARK                         _______ _______ _______ _____ _____    ______ ____
ROOT
ATOM      1  C   UNL     1       0.681   9.915  19.286  0.00  0.00    +0.000 A 
ATOM      2  C   UNL     1      -0.440  10.085  18.465  0.00  0.00    +0.000 A 
ATOM      3  C   UNL     1      -1.216  11.252  18.501  0.00  0.00    +0.000 A 
ATOM      4 CL   UNL     1      -2.465  11.402  17.308  0.00  0.00    +0.000 Cl
ATOM      5  C   UNL     1      -0.974  12.232  19.465  0.00  0.00    +0.000 A 
ATOM      6  C   UNL     1       0.210  12.129  20.208  0.00  0.00    +0.000 A 
ATOM      7 CL   UNL     1       0.731  13.423  21.230  0.00  0.00    +0.000 Cl
ATOM      8  C   UNL     1       1.027  10.981  20.127  0.00  0.00    +0.000 A 
ENDROOT
BRANCH   1  11
ATOM      9  C   UNL     1       2.279   8.300  18.245  0.00  0.00    +0.000 C 
ATOM     10  O   UNL     1       2.446   8.928  17.197  0.00  0.00    +0.000 OA
ATOM     11  N   UNL     1       1.479   8.724  19.300  0.00  0.00    +0.000 N 
ATOM     12  H   UNL     1       1.491   8.200  20.161  0.00  0.00    +0.000 HD
BRANCH   9  17
ATOM     13  C   UNL     1       3.482   4.777  19.190  0.00  0.00    +0.000 A 
ATOM     14  C   UNL     1       4.561   4.649  18.307  0.00  0.00    +0.000 A 
ATOM     15  C   UNL     1       4.866   5.674  17.423  0.00  0.00    +0.000 A 
ATOM     16  C   UNL     1       4.104   6.838  17.444  0.00  0.00    +0.000 A 
ATOM     17  C   UNL     1       3.028   7.002  18.337  0.00  0.00    +0.000 A 
ATOM     18  C   UNL     1       2.711   5.951  19.215  0.00  0.00    +0.000 A 
BRANCH  13  20
ATOM     19  C   UNL     1       4.188   2.607  19.803  0.00  0.00    +0.000 C 
ATOM     20  O   UNL     1       3.314   3.706  20.026  0.00  0.00    +0.000 OA
ENDBRANCH  13  20
ENDBRANCH   9  17
ENDBRANCH   1  11
BRANCH   5  21
ATOM     21  O   UNL     1      -1.825  13.298  19.697  0.00  0.00    +0.000 OA
BRANCH  21  22
ATOM     22  C   UNL     1      -2.951  13.099  20.487  0.00  0.00    +0.000 A 
ATOM     23  C   UNL     1      -4.240  12.888  20.018  0.00  0.00    +0.000 A 
ATOM     24  N   UNL     1      -5.350  12.881  20.787  0.00  0.00    +0.000 NA
ATOM     25  C   UNL     1      -5.192  12.882  22.112  0.00  0.00    +0.000 A 
ATOM     26  C   UNL     1      -6.319  12.844  22.911  0.00  0.00    +0.000 A 
ATOM     27  C   UNL     1      -6.227  12.564  24.268  0.00  0.00    +0.000 A 
ATOM     28  C   UNL     1      -4.975  12.361  24.842  0.00  0.00    +0.000 A 
ATOM     29  C   UNL     1      -3.821  12.571  24.082  0.00  0.00    +0.000 A 
ATOM     30  C   UNL     1      -3.914  12.861  22.708  0.00  0.00    +0.000 A 
ATOM     31  C   UNL     1      -2.792  13.080  21.873  0.00  0.00    +0.000 A 
ENDBRANCH  21  22
ENDBRANCH   5  21
TORSDOF 5
ENDMDL
MODEL 9
REMARK VINA RESULT:      -8.1      3.838     11.410
REMARK  Name = 
REMARK  6 active torsions:
REMARK  status: ('A' for Active; 'I' for Inactive)
REMARK    1  A    between atoms: C_1  and  O_2
REMARK    2  A    between atoms: O_2  and  C_3
REMARK    3  A    between atoms: C_7  and  C_8
REMARK    4  A    between atoms: N_10  and  C_11
REMARK    5  A    between atoms: C_15  and  O_16
REMARK    6  A    between atoms: O_16  and  C_17
REMARK                            x       y       z     vdW  Elec       q    Type
REMARK                         _______ _______ _______ _____ _____    ______ ____
ROOT
ATOM      1  C   UNL     1       1.499   8.935  19.677  0.00  0.00    +0.000 A 
ATOM      2  C   UNL     1       1.054   8.862  21.002  0.00  0.00    +0.000 A 
ATOM      3  C   UNL     1       0.350   9.913  21.607  0.00  0.00    +0.000 A 
ATOM      4 CL   UNL     1      -0.295   9.619  23.189  0.00  0.00    +0.000 Cl
ATOM      5  C   UNL     1       0.192  11.131  20.945  0.00  0.00    +0.000 A 
ATOM      6  C   UNL     1       0.525  11.175  19.584  0.00  0.00    +0.000 A 
ATOM      7 CL   UNL     1       0.119  12.548  18.615  0.00  0.00    +0.000 Cl
ATOM      8  C   UNL     1       1.178  10.093  18.955  0.00  0.00    +0.000 A 
ENDROOT
BRANCH   1  11
ATOM      9  C   UNL     1       2.383   6.602  19.528  0.00  0.00    +0.000 C 
ATOM     10  O   UNL     1       1.824   6.179  20.543  0.00  0.00    +0.000 OA
ATOM     11  N   UNL     1       2.248   7.894  19.035  0.00  0.00    +0.000 N 
ATOM     12  H   UNL     1       2.652   8.118  18.139  0.00  0.00    +0.000 HD
BRANCH   9  17
ATOM     13  C   UNL     1       5.326   4.501  18.234  0.00  0.00    +0.000 A 
ATOM     14  C   UNL     1       4.640   3.630  17.380  0.00  0.00    +0.000 A 
ATOM     15  C   UNL     1       3.262   3.719  17.251  0.00  0.00    +0.000 A 
ATOM     16  C   UNL     1       2.575   4.700  17.961  0.00  0.00    +0.000 A 
ATOM     17  C   UNL     1       3.243   5.603  18.809  0.00  0.00    +0.000 A 
ATOM     18  C   UNL     1       4.638   5.493  18.951  0.00  0.00    +0.000 A 
BRANCH  13  20
ATOM     19  C   UNL     1       7.447   5.436  18.692  0.00  0.00    +0.000 C 
ATOM     20  O   UNL     1       6.684   4.324  18.241  0.00  0.00    +0.000 OA
ENDBRANCH  13  20
ENDBRANCH   9  17
ENDBRANCH   1  11
BRANCH   5  21
ATOM     21  O   UNL     1      -0.297  12.273  21.555  0.00  0.00    +0.000 OA
BRANCH  21  22
ATOM     22  C   UNL     1      -1.669  12.406  21.729  0.00  0.00    +0.000 A 
ATOM     23  C   UNL     1      -2.611  12.471  20.711  0.00  0.00    +0.000 A 
ATOM     24  N   UNL     1      -3.913  12.785  20.882  0.00  0.00    +0.000 NA
ATOM     25  C   UNL     1      -4.381  12.849  22.129  0.00  0.00    +0.000 A 
ATOM     26  C   UNL     1      -5.719  13.140  22.317  0.00  0.00    +0.000 A 
ATOM     27  C   UNL     1      -6.328  12.951  23.552  0.00  0.00    +0.000 A 
ATOM     28  C   UNL     1      -5.568  12.502  24.628  0.00  0.00    +0.000 A 
ATOM     29  C   UNL     1      -4.182  12.374  24.494  0.00  0.00    +0.000 A 
ATOM     30  C   UNL     1      -3.565  12.573  23.245  0.00  0.00    +0.000 A 
ATOM     31  C   UNL     1      -2.170  12.455  23.030  0.00  0.00    +0.000 A 
ENDBRANCH  21  22
ENDBRANCH   5  21
TORSDOF 5
ENDMDL
