MODEL 1
REMARK VINA RESULT:      -8.6      0.000      0.000
REMARK  Name = 
REMARK  8 active torsions:
REMARK  status: ('A' for Active; 'I' for Inactive)
REMARK    1  A    between atoms: C_1  and  O_2
REMARK    2  A    between atoms: O_2  and  C_3
REMARK    3  A    between atoms: C_5  and  C_6
REMARK    4  A    between atoms: C_7  and  C_8
REMARK    5  A    between atoms: C_7  and  C_10
REMARK    6  A    between atoms: C_21  and  O_22
REMARK    7  A    between atoms: O_22  and  C_23
REMARK    8  A    between atoms: C_23  and  C_24
REMARK                            x       y       z     vdW  Elec       q    Type
REMARK                         _______ _______ _______ _____ _____    ______ ____
ROOT
ATOM      1  C   UNL     1       2.131   6.042  20.295  0.00  0.00    +0.000 A 
ATOM      2  C   UNL     1       2.967   5.706  19.197  0.00  0.00    +0.000 A 
ATOM      3  C   UNL     1       3.260   6.619  18.174  0.00  0.00    +0.000 A 
ATOM      4  C   UNL     1       2.761   7.909  18.307  0.00  0.00    +0.000 A 
ATOM      5  C   UNL     1       1.956   8.257  19.384  0.00  0.00    +0.000 A 
ATOM      6  C   UNL     1       1.591   7.336  20.383  0.00  0.00    +0.000 A 
ENDROOT
BRANCH   1   8
ATOM      7  C   UNL     1       2.237   3.677  20.741  0.00  0.00    +0.000 C 
ATOM      8  O   UNL     1       2.016   5.007  21.184  0.00  0.00    +0.000 OA
ENDBRANCH   1   8
BRANCH   3   9
ATOM      9  C   UNL     1       4.233   6.325  17.101  0.00  0.00    +0.000 C 
ATOM     10  C   UNL     1       5.440   5.722  17.225  0.00  0.00    +0.000 C 
BRANCH  10  11
ATOM     11  C   UNL     1       6.039   5.200  16.029  0.00  0.00    +0.000 A 
ATOM     12  N   UNL     1       7.096   5.616  15.357  0.00  0.00    +0.000 NA
ATOM     13  C   UNL     1       7.063   4.972  14.144  0.00  0.00    +0.000 A 
ATOM     14  C   UNL     1       7.893   5.126  13.025  0.00  0.00    +0.000 A 
ATOM     15  C   UNL     1       7.603   4.392  11.868  0.00  0.00    +0.000 A 
ATOM     16  C   UNL     1       6.519   3.512  11.832  0.00  0.00    +0.000 A 
ATOM     17  C   UNL     1       5.692   3.330  12.949  0.00  0.00    +0.000 A 
ATOM     18  C   UNL     1       5.997   4.085  14.084  0.00  0.00    +0.000 A 
ATOM     19  N   UNL     1       5.403   4.192  15.318  0.00  0.00    +0.000 N 
ATOM     20  H   UNL     1       4.573   3.691  15.601  0.00  0.00    +0.000 HD
ENDBRANCH  10  11
BRANCH  10  21
ATOM     21  C   UNL     1       6.048   5.469  18.498  0.00  0.00    +0.000 C 
ATOM     22  N   UNL     1       6.593   5.349  19.514  0.00  0.00    +0.000 NA
ENDBRANCH  10  21
ENDBRANCH   3   9
BRANCH   6  23
ATOM     23  O   UNL     1       0.753   7.702  21.424  0.00  0.00    +0.000 OA
BRANCH  23  24
ATOM     24  C   UNL     1       1.198   8.887  22.109  0.00  0.00    +0.000 C 
BRANCH  24  25
ATOM     25  C   UNL     1       0.250  10.055  22.197  0.00  0.00    +0.000 A 
ATOM     26  C   UNL     1      -0.770  10.162  23.140  0.00  0.00    +0.000 A 
ATOM     27  C   UNL     1      -1.602  11.286  23.137  0.00  0.00    +0.000 A 
ATOM     28  C   UNL     1      -1.413  12.309  22.204  0.00  0.00    +0.000 A 
ATOM     29  C   UNL     1      -0.382  12.224  21.275  0.00  0.00    +0.000 A 
ATOM     30  C   UNL     1       0.448  11.107  21.279  0.00  0.00    +0.000 A 
ENDBRANCH  24  25
ENDBRANCH  23  24
ENDBRANCH   6  23
TORSDOF 7
ENDMDL
MODEL 2
REMARK VINA RESULT:      -8.1      2.954     10.081
REMARK  Name = 
REMARK  8 active torsions:
REMARK  status: ('A' for Active; 'I' for Inactive)
REMARK    1  A    between atoms: C_1  and  O_2
REMARK    2  A    between atoms: O_2  and  C_3
REMARK    3  A    between atoms: C_5  and  C_6
REMARK    4  A    between atoms: C_7  and  C_8
REMARK    5  A    between atoms: C_7  and  C_10
REMARK    6  A    between atoms: C_21  and  O_22
REMARK    7  A    between atoms: O_22  and  C_23
REMARK    8  A    between atoms: C_23  and  C_24
REMARK                            x       y       z     vdW  Elec       q    Type
REMARK                         _______ _______ _______ _____ _____    ______ ____
ROOT
ATOM      1  C   UNL     1       5.997   6.152  16.687  0.00  0.00    +0.000 A 
ATOM      2  C   UNL     1       5.044   6.961  17.361  0.00  0.00    +0.000 A 
ATOM      3  C   UNL     1       3.747   6.512  17.641  0.00  0.00    +0.000 A 
ATOM      4  C   UNL     1       3.438   5.200  17.302  0.00  0.00    +0.000 A 
ATOM      5  C   UNL     1       4.365   4.390  16.659  0.00  0.00    +0.000 A 
ATOM      6  C   UNL     1       5.648   4.846  16.303  0.00  0.00    +0.000 A 
ENDROOT
BRANCH   1   8
ATOM      7  C   UNL     1       7.638   7.680  17.567  0.00  0.00    +0.000 C 
ATOM      8  O   UNL     1       7.203   6.787  16.554  0.00  0.00    +0.000 OA
ENDBRANCH   1   8
BRANCH   3   9
ATOM      9  C   UNL     1       2.794   7.293  18.458  0.00  0.00    +0.000 C 
ATOM     10  C   UNL     1       2.263   6.952  19.657  0.00  0.00    +0.000 C 
BRANCH  10  11
ATOM     11  C   UNL     1       1.674   8.004  20.437  0.00  0.00    +0.000 A 
ATOM     12  N   UNL     1       1.371   8.041  21.721  0.00  0.00    +0.000 NA
ATOM     13  C   UNL     1       0.564   9.138  21.898  0.00  0.00    +0.000 A 
ATOM     14  C   UNL     1      -0.113   9.578  23.044  0.00  0.00    +0.000 A 
ATOM     15  C   UNL     1      -0.942  10.702  22.945  0.00  0.00    +0.000 A 
ATOM     16  C   UNL     1      -1.083  11.382  21.733  0.00  0.00    +0.000 A 
ATOM     17  C   UNL     1      -0.398  10.969  20.582  0.00  0.00    +0.000 A 
ATOM     18  C   UNL     1       0.412   9.837  20.708  0.00  0.00    +0.000 A 
ATOM     19  N   UNL     1       1.184   9.140  19.810  0.00  0.00    +0.000 N 
ATOM     20  H   UNL     1       1.277   9.373  18.831  0.00  0.00    +0.000 HD
ENDBRANCH  10  11
BRANCH  10  21
ATOM     21  C   UNL     1       2.401   5.639  20.215  0.00  0.00    +0.000 C 
ATOM     22  N   UNL     1       2.572   4.618  20.738  0.00  0.00    +0.000 NA
ENDBRANCH  10  21
ENDBRANCH   3   9
BRANCH   6  23
ATOM     23  O   UNL     1       6.537   4.028  15.625  0.00  0.00    +0.000 OA
BRANCH  23  24
ATOM     24  C   UNL     1       6.818   4.494  14.292  0.00  0.00    +0.000 C 
BRANCH  24  25
ATOM     25  C   UNL     1       6.230   3.731  13.133  0.00  0.00    +0.000 A 
ATOM     26  C   UNL     1       6.944   2.824  12.353  0.00  0.00    +0.000 A 
ATOM     27  C   UNL     1       6.308   2.169  11.295  0.00  0.00    +0.000 A 
ATOM     28  C   UNL     1       4.959   2.405  11.019  0.00  0.00    +0.000 A 
ATOM     29  C   UNL     1       4.230   3.288  11.807  0.00  0.00    +0.000 A 
ATOM     30  C   UNL     1       4.861   3.939  12.862  0.00  0.00    +0.000 A 
ENDBRANCH  24  25
ENDBRANCH  23  24
ENDBRANCH   6  23
TORSDOF 7
ENDMDL
MODEL 3
REMARK VINA RESULT:      -7.9      2.844      9.988
REMARK  Name = 
REMARK  8 active torsions:
REMARK  status: ('A' for Active; 'I' for Inactive)
REMARK    1  A    between atoms: C_1  and  O_2
REMARK    2  A    between atoms: O_2  and  C_3
REMARK    3  A    between atoms: C_5  and  C_6
REMARK    4  A    between atoms: C_7  and  C_8
REMARK    5  A    between atoms: C_7  and  C_10
REMARK    6  A    between atoms: C_21  and  O_22
REMARK    7  A    between atoms: O_22  and  C_23
REMARK    8  A    between atoms: C_23  and  C_24
REMARK                            x       y       z     vdW  Elec       q    Type
REMARK                         _______ _______ _______ _____ _____    ______ ____
ROOT
ATOM      1  C   UNL     1       4.400   4.176  17.073  0.00  0.00    +0.000 A 
ATOM      2  C   UNL     1       3.545   4.999  17.852  0.00  0.00    +0.000 A 
ATOM      3  C   UNL     1       3.705   6.390  17.920  0.00  0.00    +0.000 A 
ATOM      4  C   UNL     1       4.696   6.958  17.129  0.00  0.00    +0.000 A 
ATOM      5  C   UNL     1       5.529   6.168  16.348  0.00  0.00    +0.000 A 
ATOM      6  C   UNL     1       5.432   4.764  16.322  0.00  0.00    +0.000 A 
ENDROOT
BRANCH   1   8
ATOM      7  C   UNL     1       3.599   2.308  18.366  0.00  0.00    +0.000 C 
ATOM      8  O   UNL     1       4.033   2.858  17.132  0.00  0.00    +0.000 OA
ENDBRANCH   1   8
BRANCH   3   9
ATOM      9  C   UNL     1       2.743   7.268  18.618  0.00  0.00    +0.000 C 
ATOM     10  C   UNL     1       2.120   7.035  19.799  0.00  0.00    +0.000 C 
BRANCH  10  11
ATOM     11  C   UNL     1       1.536   8.164  20.468  0.00  0.00    +0.000 A 
ATOM     12  N   UNL     1       1.242   8.336  21.742  0.00  0.00    +0.000 NA
ATOM     13  C   UNL     1       0.436   9.447  21.807  0.00  0.00    +0.000 A 
ATOM     14  C   UNL     1      -0.234  10.006  22.905  0.00  0.00    +0.000 A 
ATOM     15  C   UNL     1      -1.063  11.114  22.693  0.00  0.00    +0.000 A 
ATOM     16  C   UNL     1      -1.211  11.663  21.417  0.00  0.00    +0.000 A 
ATOM     17  C   UNL     1      -0.532  11.130  20.312  0.00  0.00    +0.000 A 
ATOM     18  C   UNL     1       0.277  10.017  20.552  0.00  0.00    +0.000 A 
ATOM     19  N   UNL     1       1.044   9.228  19.727  0.00  0.00    +0.000 N 
ATOM     20  H   UNL     1       1.131   9.357  18.729  0.00  0.00    +0.000 HD
ENDBRANCH  10  11
BRANCH  10  21
ATOM     21  C   UNL     1       2.157   5.759  20.450  0.00  0.00    +0.000 C 
ATOM     22  N   UNL     1       2.117   4.762  21.041  0.00  0.00    +0.000 NA
ENDBRANCH  10  21
ENDBRANCH   3   9
BRANCH   6  23
ATOM     23  O   UNL     1       6.304   3.999  15.565  0.00  0.00    +0.000 OA
BRANCH  23  24
ATOM     24  C   UNL     1       6.509   4.529  14.242  0.00  0.00    +0.000 C 
BRANCH  24  25
ATOM     25  C   UNL     1       5.993   3.735  13.070  0.00  0.00    +0.000 A 
ATOM     26  C   UNL     1       4.685   3.805  12.596  0.00  0.00    +0.000 A 
ATOM     27  C   UNL     1       4.302   3.023  11.502  0.00  0.00    +0.000 A 
ATOM     28  C   UNL     1       5.221   2.181  10.872  0.00  0.00    +0.000 A 
ATOM     29  C   UNL     1       6.536   2.123  11.321  0.00  0.00    +0.000 A 
ATOM     30  C   UNL     1       6.919   2.902  12.408  0.00  0.00    +0.000 A 
ENDBRANCH  24  25
ENDBRANCH  23  24
ENDBRANCH   6  23
TORSDOF 7
ENDMDL
MODEL 4
REMARK VINA RESULT:      -7.7      3.168      9.951
REMARK  Name = 
REMARK  8 active torsions:
REMARK  status: ('A' for Active; 'I' for Inactive)
REMARK    1  A    between atoms: C_1  and  O_2
REMARK    2  A    between atoms: O_2  and  C_3
REMARK    3  A    between atoms: C_5  and  C_6
REMARK    4  A    between atoms: C_7  and  C_8
REMARK    5  A    between atoms: C_7  and  C_10
REMARK    6  A    between atoms: C_21  and  O_22
REMARK    7  A    between atoms: O_22  and  C_23
REMARK    8  A    between atoms: C_23  and  C_24
REMARK                            x       y       z     vdW  Elec       q    Type
REMARK                         _______ _______ _______ _____ _____    ______ ____
ROOT
ATOM      1  C   UNL     1       1.689   4.774  20.061  0.00  0.00    +0.000 A 
ATOM      2  C   UNL     1       1.399   5.958  20.790  0.00  0.00    +0.000 A 
ATOM      3  C   UNL     1       1.826   7.222  20.361  0.00  0.00    +0.000 A 
ATOM      4  C   UNL     1       2.488   7.294  19.141  0.00  0.00    +0.000 A 
ATOM      5  C   UNL     1       2.763   6.146  18.408  0.00  0.00    +0.000 A 
ATOM      6  C   UNL     1       2.407   4.860  18.857  0.00  0.00    +0.000 A 
ENDROOT
BRANCH   1   8
ATOM      7  C   UNL     1       1.919   2.906  21.564  0.00  0.00    +0.000 C 
ATOM      8  O   UNL     1       1.143   3.665  20.651  0.00  0.00    +0.000 OA
ENDBRANCH   1   8
BRANCH   3   9
ATOM      9  C   UNL     1       1.417   8.471  21.038  0.00  0.00    +0.000 C 
ATOM     10  C   UNL     1       0.809   9.548  20.484  0.00  0.00    +0.000 C 
BRANCH  10  11
ATOM     11  C   UNL     1       0.167  10.471  21.377  0.00  0.00    +0.000 A 
ATOM     12  N   UNL     1      -0.795  10.270  22.259  0.00  0.00    +0.000 NA
ATOM     13  C   UNL     1      -1.251  11.512  22.626  0.00  0.00    +0.000 A 
ATOM     14  C   UNL     1      -2.325  11.864  23.456  0.00  0.00    +0.000 A 
ATOM     15  C   UNL     1      -2.633  13.220  23.617  0.00  0.00    +0.000 A 
ATOM     16  C   UNL     1      -1.878  14.206  22.976  0.00  0.00    +0.000 A 
ATOM     17  C   UNL     1      -0.789  13.874  22.160  0.00  0.00    +0.000 A 
ATOM     18  C   UNL     1      -0.513  12.512  22.007  0.00  0.00    +0.000 A 
ATOM     19  N   UNL     1       0.429  11.829  21.276  0.00  0.00    +0.000 N 
ATOM     20  H   UNL     1       1.120  12.265  20.681  0.00  0.00    +0.000 HD
ENDBRANCH  10  11
BRANCH  10  21
ATOM     21  C   UNL     1       0.665   9.707  19.067  0.00  0.00    +0.000 C 
ATOM     22  N   UNL     1       0.651   9.837  17.914  0.00  0.00    +0.000 NA
ENDBRANCH  10  21
ENDBRANCH   3   9
BRANCH   6  23
ATOM     23  O   UNL     1       2.732   3.731  18.124  0.00  0.00    +0.000 OA
BRANCH  23  24
ATOM     24  C   UNL     1       4.102   3.325  18.299  0.00  0.00    +0.000 C 
BRANCH  24  25
ATOM     25  C   UNL     1       5.150   3.966  17.427  0.00  0.00    +0.000 A 
ATOM     26  C   UNL     1       6.377   4.431  17.895  0.00  0.00    +0.000 A 
ATOM     27  C   UNL     1       7.282   5.016  17.005  0.00  0.00    +0.000 A 
ATOM     28  C   UNL     1       6.973   5.129  15.647  0.00  0.00    +0.000 A 
ATOM     29  C   UNL     1       5.763   4.645  15.165  0.00  0.00    +0.000 A 
ATOM     30  C   UNL     1       4.862   4.060  16.049  0.00  0.00    +0.000 A 
ENDBRANCH  24  25
ENDBRANCH  23  24
ENDBRANCH   6  23
TORSDOF 7
ENDMDL
MODEL 5
REMARK VINA RESULT:      -7.7      2.970     10.054
REMARK  Name = 
REMARK  8 active torsions:
REMARK  status: ('A' for Active; 'I' for Inactive)
REMARK    1  A    between atoms: C_1  and  O_2
REMARK    2  A    between atoms: O_2  and  C_3
REMARK    3  A    between atoms: C_5  and  C_6
REMARK    4  A    between atoms: C_7  and  C_8
REMARK    5  A    between atoms: C_7  and  C_10
REMARK    6  A    between atoms: C_21  and  O_22
REMARK    7  A    between atoms: O_22  and  C_23
REMARK    8  A    between atoms: C_23  and  C_24
REMARK                            x       y       z     vdW  Elec       q    Type
REMARK                         _______ _______ _______ _____ _____    ______ ____
ROOT
ATOM      1  C   UNL     1       5.612   6.305  17.009  0.00  0.00    +0.000 A 
ATOM      2  C   UNL     1       4.641   7.170  17.578  0.00  0.00    +0.000 A 
ATOM      3  C   UNL     1       3.402   6.703  18.039  0.00  0.00    +0.000 A 
ATOM      4  C   UNL     1       3.179   5.332  17.992  0.00  0.00    +0.000 A 
ATOM      5  C   UNL     1       4.127   4.471  17.454  0.00  0.00    +0.000 A 
ATOM      6  C   UNL     1       5.346   4.928  16.920  0.00  0.00    +0.000 A 
ENDROOT
BRANCH   1   8
ATOM      7  C   UNL     1       7.477   7.686  17.656  0.00  0.00    +0.000 C 
ATOM      8  O   UNL     1       6.754   6.977  16.662  0.00  0.00    +0.000 OA
ENDBRANCH   1   8
BRANCH   3   9
ATOM      9  C   UNL     1       2.441   7.569  18.753  0.00  0.00    +0.000 C 
ATOM     10  C   UNL     1       1.842   7.329  19.945  0.00  0.00    +0.000 C 
BRANCH  10  11
ATOM     11  C   UNL     1       1.256   8.451  20.623  0.00  0.00    +0.000 A 
ATOM     12  N   UNL     1       0.869   8.577  21.879  0.00  0.00    +0.000 NA
ATOM     13  C   UNL     1       0.109   9.719  21.938  0.00  0.00    +0.000 A 
ATOM     14  C   UNL     1      -0.620  10.256  23.008  0.00  0.00    +0.000 A 
ATOM     15  C   UNL     1      -1.383  11.410  22.790  0.00  0.00    +0.000 A 
ATOM     16  C   UNL     1      -1.406  12.025  21.535  0.00  0.00    +0.000 A 
ATOM     17  C   UNL     1      -0.667  11.514  20.460  0.00  0.00    +0.000 A 
ATOM     18  C   UNL     1       0.074  10.354  20.704  0.00  0.00    +0.000 A 
ATOM     19  N   UNL     1       0.868   9.571  19.902  0.00  0.00    +0.000 N 
ATOM     20  H   UNL     1       1.039   9.742  18.921  0.00  0.00    +0.000 HD
ENDBRANCH  10  11
BRANCH  10  21
ATOM     21  C   UNL     1       1.904   6.053  20.595  0.00  0.00    +0.000 C 
ATOM     22  N   UNL     1       1.967   5.071  21.208  0.00  0.00    +0.000 NA
ENDBRANCH  10  21
ENDBRANCH   3   9
BRANCH   6  23
ATOM     23  O   UNL     1       6.254   4.049  16.352  0.00  0.00    +0.000 OA
BRANCH  23  24
ATOM     24  C   UNL     1       5.772   3.458  15.132  0.00  0.00    +0.000 C 
BRANCH  24  25
ATOM     25  C   UNL     1       6.386   3.908  13.832  0.00  0.00    +0.000 A 
ATOM     26  C   UNL     1       6.102   3.334  12.595  0.00  0.00    +0.000 A 
ATOM     27  C   UNL     1       6.730   3.822  11.445  0.00  0.00    +0.000 A 
ATOM     28  C   UNL     1       7.629   4.887  11.521  0.00  0.00    +0.000 A 
ATOM     29  C   UNL     1       7.899   5.485  12.747  0.00  0.00    +0.000 A 
ATOM     30  C   UNL     1       7.275   5.002  13.892  0.00  0.00    +0.000 A 
ENDBRANCH  24  25
ENDBRANCH  23  24
ENDBRANCH   6  23
TORSDOF 7
ENDMDL
MODEL 6
REMARK VINA RESULT:      -7.6      3.923      5.816
REMARK  Name = 
REMARK  8 active torsions:
REMARK  status: ('A' for Active; 'I' for Inactive)
REMARK    1  A    between atoms: C_1  and  O_2
REMARK    2  A    between atoms: O_2  and  C_3
REMARK    3  A    between atoms: C_5  and  C_6
REMARK    4  A    between atoms: C_7  and  C_8
REMARK    5  A    between atoms: C_7  and  C_10
REMARK    6  A    between atoms: C_21  and  O_22
REMARK    7  A    between atoms: O_22  and  C_23
REMARK    8  A    between atoms: C_23  and  C_24
REMARK                            x       y       z     vdW  Elec       q    Type
REMARK                         _______ _______ _______ _____ _____    ______ ____
ROOT
ATOM      1  C   UNL     1      -2.393  10.620  17.873  0.00  0.00    +0.000 A 
ATOM      2  C   UNL     1      -1.178   9.944  17.585  0.00  0.00    +0.000 A 
ATOM      3  C   UNL     1       0.010  10.215  18.278  0.00  0.00    +0.000 A 
ATOM      4  C   UNL     1      -0.054  11.127  19.324  0.00  0.00    +0.000 A 
ATOM      5  C   UNL     1      -1.239  11.783  19.630  0.00  0.00    +0.000 A 
ATOM      6  C   UNL     1      -2.425  11.579  18.900  0.00  0.00    +0.000 A 
ENDROOT
BRANCH   1   8
ATOM      7  C   UNL     1      -3.285  10.157  15.684  0.00  0.00    +0.000 C 
ATOM      8  O   UNL     1      -3.425  10.168  17.096  0.00  0.00    +0.000 OA
ENDBRANCH   1   8
BRANCH   3   9
ATOM      9  C   UNL     1       1.244   9.425  18.079  0.00  0.00    +0.000 C 
ATOM     10  C   UNL     1       1.805   8.542  18.939  0.00  0.00    +0.000 C 
BRANCH  10  11
ATOM     11  C   UNL     1       2.766   7.620  18.400  0.00  0.00    +0.000 A 
ATOM     12  N   UNL     1       3.747   7.824  17.541  0.00  0.00    +0.000 NA
ATOM     13  C   UNL     1       4.165   6.582  17.129  0.00  0.00    +0.000 A 
ATOM     14  C   UNL     1       5.109   6.232  16.153  0.00  0.00    +0.000 A 
ATOM     15  C   UNL     1       5.306   4.875  15.866  0.00  0.00    +0.000 A 
ATOM     16  C   UNL     1       4.590   3.888  16.547  0.00  0.00    +0.000 A 
ATOM     17  C   UNL     1       3.658   4.219  17.540  0.00  0.00    +0.000 A 
ATOM     18  C   UNL     1       3.472   5.581  17.796  0.00  0.00    +0.000 A 
ATOM     19  N   UNL     1       2.640   6.262  18.651  0.00  0.00    +0.000 N 
ATOM     20  H   UNL     1       1.975   5.825  19.273  0.00  0.00    +0.000 HD
ENDBRANCH  10  11
BRANCH  10  21
ATOM     21  C   UNL     1       1.370   8.408  20.298  0.00  0.00    +0.000 C 
ATOM     22  N   UNL     1       0.923   8.292  21.362  0.00  0.00    +0.000 NA
ENDBRANCH  10  21
ENDBRANCH   3   9
BRANCH   6  23
ATOM     23  O   UNL     1      -3.581  12.280  19.201  0.00  0.00    +0.000 OA
BRANCH  23  24
ATOM     24  C   UNL     1      -3.632  12.710  20.574  0.00  0.00    +0.000 C 
BRANCH  24  25
ATOM     25  C   UNL     1      -4.947  12.611  21.303  0.00  0.00    +0.000 A 
ATOM     26  C   UNL     1      -5.161  13.086  22.595  0.00  0.00    +0.000 A 
ATOM     27  C   UNL     1      -6.419  12.941  23.187  0.00  0.00    +0.000 A 
ATOM     28  C   UNL     1      -7.468  12.335  22.491  0.00  0.00    +0.000 A 
ATOM     29  C   UNL     1      -7.273  11.881  21.191  0.00  0.00    +0.000 A 
ATOM     30  C   UNL     1      -6.022  12.026  20.600  0.00  0.00    +0.000 A 
ENDBRANCH  24  25
ENDBRANCH  23  24
ENDBRANCH   6  23
TORSDOF 7
ENDMDL
MODEL 7
REMARK VINA RESULT:      -7.6      0.869      1.279
REMARK  Name = 
REMARK  8 active torsions:
REMARK  status: ('A' for Active; 'I' for Inactive)
REMARK    1  A    between atoms: C_1  and  O_2
REMARK    2  A    between atoms: O_2  and  C_3
REMARK    3  A    between atoms: C_5  and  C_6
REMARK    4  A    between atoms: C_7  and  C_8
REMARK    5  A    between atoms: C_7  and  C_10
REMARK    6  A    between atoms: C_21  and  O_22
REMARK    7  A    between atoms: O_22  and  C_23
REMARK    8  A    between atoms: C_23  and  C_24
REMARK                            x       y       z     vdW  Elec       q    Type
REMARK                         _______ _______ _______ _____ _____    ______ ____
ROOT
ATOM      1  C   UNL     1       2.086   7.082  19.899  0.00  0.00    +0.000 A 
ATOM      2  C   UNL     1       2.961   6.563  18.908  0.00  0.00    +0.000 A 
ATOM      3  C   UNL     1       3.318   7.297  17.769  0.00  0.00    +0.000 A 
ATOM      4  C   UNL     1       2.842   8.599  17.672  0.00  0.00    +0.000 A 
ATOM      5  C   UNL     1       1.999   9.126  18.642  0.00  0.00    +0.000 A 
ATOM      6  C   UNL     1       1.570   8.381  19.756  0.00  0.00    +0.000 A 
ENDROOT
BRANCH   1   8
ATOM      7  C   UNL     1       1.549   4.859  20.657  0.00  0.00    +0.000 C 
ATOM      8  O   UNL     1       1.909   6.203  20.934  0.00  0.00    +0.000 OA
ENDBRANCH   1   8
BRANCH   3   9
ATOM      9  C   UNL     1       4.330   6.822  16.802  0.00  0.00    +0.000 C 
ATOM     10  C   UNL     1       5.367   5.982  17.039  0.00  0.00    +0.000 C 
BRANCH  10  11
ATOM     11  C   UNL     1       5.983   5.362  15.900  0.00  0.00    +0.000 A 
ATOM     12  N   UNL     1       7.066   5.707  15.229  0.00  0.00    +0.000 NA
ATOM     13  C   UNL     1       7.049   4.978  14.065  0.00  0.00    +0.000 A 
ATOM     14  C   UNL     1       7.910   5.033  12.959  0.00  0.00    +0.000 A 
ATOM     15  C   UNL     1       7.632   4.224  11.850  0.00  0.00    +0.000 A 
ATOM     16  C   UNL     1       6.529   3.368  11.848  0.00  0.00    +0.000 A 
ATOM     17  C   UNL     1       5.670   3.284  12.953  0.00  0.00    +0.000 A 
ATOM     18  C   UNL     1       5.964   4.112  14.039  0.00  0.00    +0.000 A 
ATOM     19  N   UNL     1       5.341   4.321  15.246  0.00  0.00    +0.000 N 
ATOM     20  H   UNL     1       4.493   3.858  15.541  0.00  0.00    +0.000 HD
ENDBRANCH  10  11
BRANCH  10  21
ATOM     21  C   UNL     1       5.756   5.593  18.363  0.00  0.00    +0.000 C 
ATOM     22  N   UNL     1       6.144   5.225  19.391  0.00  0.00    +0.000 NA
ENDBRANCH  10  21
ENDBRANCH   3   9
BRANCH   6  23
ATOM     23  O   UNL     1       0.696   8.920  20.686  0.00  0.00    +0.000 OA
BRANCH  23  24
ATOM     24  C   UNL     1       0.475  10.329  20.494  0.00  0.00    +0.000 C 
BRANCH  24  25
ATOM     25  C   UNL     1      -0.601  10.998  21.310  0.00  0.00    +0.000 A 
ATOM     26  C   UNL     1      -1.441  11.998  20.824  0.00  0.00    +0.000 A 
ATOM     27  C   UNL     1      -2.406  12.560  21.664  0.00  0.00    +0.000 A 
ATOM     28  C   UNL     1      -2.546  12.122  22.982  0.00  0.00    +0.000 A 
ATOM     29  C   UNL     1      -1.730  11.107  23.470  0.00  0.00    +0.000 A 
ATOM     30  C   UNL     1      -0.770  10.545  22.635  0.00  0.00    +0.000 A 
ENDBRANCH  24  25
ENDBRANCH  23  24
ENDBRANCH   6  23
TORSDOF 7
ENDMDL
MODEL 8
REMARK VINA RESULT:      -7.6      0.883      1.293
REMARK  Name = 
REMARK  8 active torsions:
REMARK  status: ('A' for Active; 'I' for Inactive)
REMARK    1  A    between atoms: C_1  and  O_2
REMARK    2  A    between atoms: O_2  and  C_3
REMARK    3  A    between atoms: C_5  and  C_6
REMARK    4  A    between atoms: C_7  and  C_8
REMARK    5  A    between atoms: C_7  and  C_10
REMARK    6  A    between atoms: C_21  and  O_22
REMARK    7  A    between atoms: O_22  and  C_23
REMARK    8  A    between atoms: C_23  and  C_24
REMARK                            x       y       z     vdW  Elec       q    Type
REMARK                         _______ _______ _______ _____ _____    ______ ____
ROOT
ATOM      1  C   UNL     1       2.084   6.500  20.263  0.00  0.00    +0.000 A 
ATOM      2  C   UNL     1       2.912   6.082  19.187  0.00  0.00    +0.000 A 
ATOM      3  C   UNL     1       3.234   6.931  18.119  0.00  0.00    +0.000 A 
ATOM      4  C   UNL     1       2.773   8.240  18.182  0.00  0.00    +0.000 A 
ATOM      5  C   UNL     1       1.978   8.669  19.237  0.00  0.00    +0.000 A 
ATOM      6  C   UNL     1       1.583   7.812  20.282  0.00  0.00    +0.000 A 
ENDROOT
BRANCH   1   8
ATOM      7  C   UNL     1       2.031   4.155  20.815  0.00  0.00    +0.000 C 
ATOM      8  O   UNL     1       1.937   5.517  21.205  0.00  0.00    +0.000 OA
ENDBRANCH   1   8
BRANCH   3   9
ATOM      9  C   UNL     1       4.199   6.552  17.065  0.00  0.00    +0.000 C 
ATOM     10  C   UNL     1       5.366   5.880  17.220  0.00  0.00    +0.000 C 
BRANCH  10  11
ATOM     11  C   UNL     1       5.945   5.293  16.044  0.00  0.00    +0.000 A 
ATOM     12  N   UNL     1       7.028   5.634  15.371  0.00  0.00    +0.000 NA
ATOM     13  C   UNL     1       6.971   4.958  14.176  0.00  0.00    +0.000 A 
ATOM     14  C   UNL     1       7.816   5.037  13.060  0.00  0.00    +0.000 A 
ATOM     15  C   UNL     1       7.497   4.287  11.921  0.00  0.00    +0.000 A 
ATOM     16  C   UNL     1       6.367   3.465  11.900  0.00  0.00    +0.000 A 
ATOM     17  C   UNL     1       5.523   3.358  13.014  0.00  0.00    +0.000 A 
ATOM     18  C   UNL     1       5.859   4.128  14.131  0.00  0.00    +0.000 A 
ATOM     19  N   UNL     1       5.262   4.301  15.356  0.00  0.00    +0.000 N 
ATOM     20  H   UNL     1       4.404   3.852  15.644  0.00  0.00    +0.000 HD
ENDBRANCH  10  11
BRANCH  10  21
ATOM     21  C   UNL     1       5.941   5.621  18.506  0.00  0.00    +0.000 C 
ATOM     22  N   UNL     1       6.421   5.316  19.518  0.00  0.00    +0.000 NA
ENDBRANCH  10  21
ENDBRANCH   3   9
BRANCH   6  23
ATOM     23  O   UNL     1       0.755   8.257  21.299  0.00  0.00    +0.000 OA
BRANCH  23  24
ATOM     24  C   UNL     1      -0.460   8.855  20.809  0.00  0.00    +0.000 C 
BRANCH  24  25
ATOM     25  C   UNL     1      -0.456  10.333  20.515  0.00  0.00    +0.000 A 
ATOM     26  C   UNL     1      -1.009  10.901  19.370  0.00  0.00    +0.000 A 
ATOM     27  C   UNL     1      -0.951  12.286  19.186  0.00  0.00    +0.000 A 
ATOM     28  C   UNL     1      -0.354  13.107  20.146  0.00  0.00    +0.000 A 
ATOM     29  C   UNL     1       0.177  12.552  21.305  0.00  0.00    +0.000 A 
ATOM     30  C   UNL     1       0.118  11.175  21.490  0.00  0.00    +0.000 A 
ENDBRANCH  24  25
ENDBRANCH  23  24
ENDBRANCH   6  23
TORSDOF 7
ENDMDL
MODEL 9
REMARK VINA RESULT:      -7.6      1.005      1.161
REMARK  Name = 
REMARK  8 active torsions:
REMARK  status: ('A' for Active; 'I' for Inactive)
REMARK    1  A    between atoms: C_1  and  O_2
REMARK    2  A    between atoms: O_2  and  C_3
REMARK    3  A    between atoms: C_5  and  C_6
REMARK    4  A    between atoms: C_7  and  C_8
REMARK    5  A    between atoms: C_7  and  C_10
REMARK    6  A    between atoms: C_21  and  O_22
REMARK    7  A    between atoms: O_22  and  C_23
REMARK    8  A    between atoms: C_23  and  C_24
REMARK                            x       y       z     vdW  Elec       q    Type
REMARK                         _______ _______ _______ _____ _____    ______ ____
ROOT
ATOM      1  C   UNL     1       2.218   5.815  20.448  0.00  0.00    +0.000 A 
ATOM      2  C   UNL     1       3.165   5.376  19.485  0.00  0.00    +0.000 A 
ATOM      3  C   UNL     1       3.520   6.157  18.376  0.00  0.00    +0.000 A 
ATOM      4  C   UNL     1       2.965   7.428  18.286  0.00  0.00    +0.000 A 
ATOM      5  C   UNL     1       2.051   7.878  19.230  0.00  0.00    +0.000 A 
ATOM      6  C   UNL     1       1.626   7.082  20.310  0.00  0.00    +0.000 A 
ENDROOT
BRANCH   1   8
ATOM      7  C   UNL     1       2.182   3.518  21.175  0.00  0.00    +0.000 C 
ATOM      8  O   UNL     1       2.057   4.903  21.457  0.00  0.00    +0.000 OA
ENDBRANCH   1   8
BRANCH   3   9
ATOM      9  C   UNL     1       4.599   5.770  17.444  0.00  0.00    +0.000 C 
ATOM     10  C   UNL     1       4.861   4.533  16.954  0.00  0.00    +0.000 C 
BRANCH  10  11
ATOM     11  C   UNL     1       5.697   4.453  15.789  0.00  0.00    +0.000 A 
ATOM     12  N   UNL     1       6.665   5.253  15.382  0.00  0.00    +0.000 NA
ATOM     13  C   UNL     1       6.931   4.908  14.079  0.00  0.00    +0.000 A 
ATOM     14  C   UNL     1       7.797   5.505  13.152  0.00  0.00    +0.000 A 
ATOM     15  C   UNL     1       7.835   5.000  11.846  0.00  0.00    +0.000 A 
ATOM     16  C   UNL     1       7.038   3.915  11.476  0.00  0.00    +0.000 A 
ATOM     17  C   UNL     1       6.182   3.292  12.395  0.00  0.00    +0.000 A 
ATOM     18  C   UNL     1       6.155   3.826  13.686  0.00  0.00    +0.000 A 
ATOM     19  N   UNL     1       5.432   3.507  14.810  0.00  0.00    +0.000 N 
ATOM     20  H   UNL     1       4.744   2.768  14.859  0.00  0.00    +0.000 HD
ENDBRANCH  10  11
BRANCH  10  21
ATOM     21  C   UNL     1       4.227   3.353  17.462  0.00  0.00    +0.000 C 
ATOM     22  N   UNL     1       3.707   2.366  17.778  0.00  0.00    +0.000 NA
ENDBRANCH  10  21
ENDBRANCH   3   9
BRANCH   6  23
ATOM     23  O   UNL     1       0.682   7.543  21.213  0.00  0.00    +0.000 OA
BRANCH  23  24
ATOM     24  C   UNL     1       1.084   8.759  21.869  0.00  0.00    +0.000 C 
BRANCH  24  25
ATOM     25  C   UNL     1       0.095   9.894  21.929  0.00  0.00    +0.000 A 
ATOM     26  C   UNL     1      -0.615  10.251  23.074  0.00  0.00    +0.000 A 
ATOM     27  C   UNL     1      -1.516  11.319  23.026  0.00  0.00    +0.000 A 
ATOM     28  C   UNL     1      -1.702  12.041  21.845  0.00  0.00    +0.000 A 
ATOM     29  C   UNL     1      -0.980  11.710  20.704  0.00  0.00    +0.000 A 
ATOM     30  C   UNL     1      -0.082  10.649  20.750  0.00  0.00    +0.000 A 
ENDBRANCH  24  25
ENDBRANCH  23  24
ENDBRANCH   6  23
TORSDOF 7
ENDMDL
