MODEL 1
REMARK VINA RESULT:      -9.1      0.000      0.000
REMARK  Name = 
REMARK  4 active torsions:
REMARK  status: ('A' for Active; 'I' for Inactive)
REMARK    1  A    between atoms: C_2  and  C_3
REMARK    2  A    between atoms: C_3  and  N_4
REMARK    3  A    between atoms: N_10  and  N_11
REMARK    4  A    between atoms: C_14  and  C_15
REMARK                            x       y       z     vdW  Elec       q    Type
REMARK                         _______ _______ _______ _____ _____    ______ ____
ROOT
ATOM      1  N   UNL     1       6.983   6.452  16.881  0.00  0.00    +0.000 N 
ATOM      2  C   UNL     1       5.862   6.052  17.627  0.00  0.00    +0.000 A 
ATOM      3  N   UNL     1       4.858   6.920  17.811  0.00  0.00    +0.000 NA
ATOM      4  C   UNL     1       3.759   6.498  18.482  0.00  0.00    +0.000 A 
ATOM      5  C   UNL     1       3.637   5.179  18.964  0.00  0.00    +0.000 A 
ATOM      6  C   UNL     1       2.504   4.600  19.608  0.00  0.00    +0.000 A 
ATOM      7  C   UNL     1       2.561   3.327  20.162  0.00  0.00    +0.000 A 
ATOM      8 BR   UNL     1       1.098   2.666  21.154  0.00  0.00    +0.000 Br
ATOM      9  C   UNL     1       3.707   2.566  20.014  0.00  0.00    +0.000 A 
ATOM     10  C   UNL     1       4.785   3.092  19.295  0.00  0.00    +0.000 A 
ATOM     11  C   UNL     1       4.776   4.383  18.772  0.00  0.00    +0.000 A 
ATOM     12  N   UNL     1       5.861   4.806  18.114  0.00  0.00    +0.000 NA
ATOM     13  H   UNL     1       7.782   5.872  17.143  0.00  0.00    +0.000 HD
ENDROOT
BRANCH   4  14
ATOM     14  C   UNL     1       2.747   7.572  18.676  0.00  0.00    +0.000 A 
ATOM     15  C   UNL     1       2.118   7.751  19.923  0.00  0.00    +0.000 A 
ATOM     16  C   UNL     1       1.182   8.772  20.133  0.00  0.00    +0.000 A 
ATOM     17  C   UNL     1       0.869   9.653  19.104  0.00  0.00    +0.000 A 
ATOM     18  C   UNL     1       1.444   9.480  17.852  0.00  0.00    +0.000 A 
ATOM     19  C   UNL     1       2.338   8.428  17.634  0.00  0.00    +0.000 A 
ENDBRANCH   4  14
BRANCH   1  22
ATOM     20  O   UNL     1       8.641   7.584  18.722  0.00  0.00    +0.000 OA
ATOM     21  C   UNL     1       8.023   8.320  17.951  0.00  0.00    +0.000 C 
ATOM     22  N   UNL     1       7.241   7.842  16.917  0.00  0.00    +0.000 N 
ATOM     23  H   UNL     1       6.547   8.451  16.480  0.00  0.00    +0.000 HD
BRANCH  21  24
ATOM     24  C   UNL     1       8.133   9.847  18.014  0.00  0.00    +0.000 C 
BRANCH  24  25
ATOM     25  N   UNL     1       9.390  10.308  18.662  0.00  0.00    +0.000 NA
ATOM     26  C   UNL     1      10.132  11.226  17.773  0.00  0.00    +0.000 C 
ATOM     27  C   UNL     1      11.429  11.701  18.433  0.00  0.00    +0.000 C 
ATOM     28  C   UNL     1      11.155  12.377  19.772  0.00  0.00    +0.000 C 
ATOM     29  C   UNL     1      10.308  11.473  20.658  0.00  0.00    +0.000 C 
ATOM     30  C   UNL     1       9.054  10.995  19.925  0.00  0.00    +0.000 C 
ENDBRANCH  24  25
ENDBRANCH  21  24
ENDBRANCH   1  22
TORSDOF 4
ENDMDL
MODEL 2
REMARK VINA RESULT:      -8.6      1.096      1.195
REMARK  Name = 
REMARK  4 active torsions:
REMARK  status: ('A' for Active; 'I' for Inactive)
REMARK    1  A    between atoms: C_2  and  C_3
REMARK    2  A    between atoms: C_3  and  N_4
REMARK    3  A    between atoms: N_10  and  N_11
REMARK    4  A    between atoms: C_14  and  C_15
REMARK                            x       y       z     vdW  Elec       q    Type
REMARK                         _______ _______ _______ _____ _____    ______ ____
ROOT
ATOM      1  N   UNL     1       6.935   7.173  16.602  0.00  0.00    +0.000 N 
ATOM      2  C   UNL     1       5.759   6.582  17.093  0.00  0.00    +0.000 A 
ATOM      3  N   UNL     1       4.761   7.370  17.515  0.00  0.00    +0.000 NA
ATOM      4  C   UNL     1       3.612   6.784  17.930  0.00  0.00    +0.000 A 
ATOM      5  C   UNL     1       3.433   5.386  17.904  0.00  0.00    +0.000 A 
ATOM      6  C   UNL     1       2.249   4.664  18.235  0.00  0.00    +0.000 A 
ATOM      7  C   UNL     1       2.244   3.276  18.303  0.00  0.00    +0.000 A 
ATOM      8 BR   UNL     1       0.705   2.369  18.912  0.00  0.00    +0.000 Br
ATOM      9  C   UNL     1       3.384   2.570  17.960  0.00  0.00    +0.000 A 
ATOM     10  C   UNL     1       4.517   3.271  17.537  0.00  0.00    +0.000 A 
ATOM     11  C   UNL     1       4.567   4.663  17.506  0.00  0.00    +0.000 A 
ATOM     12  N   UNL     1       5.702   5.246  17.104  0.00  0.00    +0.000 NA
ATOM     13  H   UNL     1       7.704   6.505  16.686  0.00  0.00    +0.000 HD
ENDROOT
BRANCH   4  14
ATOM     14  C   UNL     1       2.609   7.762  18.434  0.00  0.00    +0.000 A 
ATOM     15  C   UNL     1       2.148   7.697  19.763  0.00  0.00    +0.000 A 
ATOM     16  C   UNL     1       1.225   8.623  20.265  0.00  0.00    +0.000 A 
ATOM     17  C   UNL     1       0.756   9.650  19.453  0.00  0.00    +0.000 A 
ATOM     18  C   UNL     1       1.162   9.718  18.127  0.00  0.00    +0.000 A 
ATOM     19  C   UNL     1       2.044   8.760  17.618  0.00  0.00    +0.000 A 
ENDBRANCH   4  14
BRANCH   1  22
ATOM     20  O   UNL     1       8.697   7.537  18.648  0.00  0.00    +0.000 OA
ATOM     21  C   UNL     1       8.054   8.506  18.241  0.00  0.00    +0.000 C 
ATOM     22  N   UNL     1       7.216   8.448  17.144  0.00  0.00    +0.000 N 
ATOM     23  H   UNL     1       6.511   9.174  17.002  0.00  0.00    +0.000 HD
BRANCH  21  24
ATOM     24  C   UNL     1       8.190   9.898  18.866  0.00  0.00    +0.000 C 
BRANCH  24  25
ATOM     25  N   UNL     1       9.392  10.631  18.384  0.00  0.00    +0.000 NA
ATOM     26  C   UNL     1       9.013  11.941  17.816  0.00  0.00    +0.000 C 
ATOM     27  C   UNL     1      10.245  12.699  17.315  0.00  0.00    +0.000 C 
ATOM     28  C   UNL     1      11.271  12.888  18.426  0.00  0.00    +0.000 C 
ATOM     29  C   UNL     1      11.594  11.552  19.081  0.00  0.00    +0.000 C 
ATOM     30  C   UNL     1      10.320  10.825  19.516  0.00  0.00    +0.000 C 
ENDBRANCH  24  25
ENDBRANCH  21  24
ENDBRANCH   1  22
TORSDOF 4
ENDMDL
MODEL 3
REMARK VINA RESULT:      -8.1      4.816      7.816
REMARK  Name = 
REMARK  4 active torsions:
REMARK  status: ('A' for Active; 'I' for Inactive)
REMARK    1  A    between atoms: C_2  and  C_3
REMARK    2  A    between atoms: C_3  and  N_4
REMARK    3  A    between atoms: N_10  and  N_11
REMARK    4  A    between atoms: C_14  and  C_15
REMARK                            x       y       z     vdW  Elec       q    Type
REMARK                         _______ _______ _______ _____ _____    ______ ____
ROOT
ATOM      1  N   UNL     1       1.511   9.519  18.735  0.00  0.00    +0.000 N 
ATOM      2  C   UNL     1       2.191   8.330  18.428  0.00  0.00    +0.000 A 
ATOM      3  N   UNL     1       1.867   7.206  19.082  0.00  0.00    +0.000 NA
ATOM      4  C   UNL     1       2.493   6.056  18.731  0.00  0.00    +0.000 A 
ATOM      5  C   UNL     1       3.445   6.008  17.692  0.00  0.00    +0.000 A 
ATOM      6  C   UNL     1       4.103   4.851  17.182  0.00  0.00    +0.000 A 
ATOM      7  C   UNL     1       5.127   4.956  16.248  0.00  0.00    +0.000 A 
ATOM      8 BR   UNL     1       6.088   3.417  15.728  0.00  0.00    +0.000 Br
ATOM      9  C   UNL     1       5.459   6.196  15.732  0.00  0.00    +0.000 A 
ATOM     10  C   UNL     1       4.746   7.322  16.155  0.00  0.00    +0.000 A 
ATOM     11  C   UNL     1       3.750   7.255  17.127  0.00  0.00    +0.000 A 
ATOM     12  N   UNL     1       3.134   8.388  17.481  0.00  0.00    +0.000 NA
ATOM     13  H   UNL     1       2.093  10.315  18.467  0.00  0.00    +0.000 HD
ENDROOT
BRANCH   4  14
ATOM     14  C   UNL     1       2.094   4.896  19.574  0.00  0.00    +0.000 A 
ATOM     15  C   UNL     1       1.272   3.878  19.054  0.00  0.00    +0.000 A 
ATOM     16  C   UNL     1       0.907   2.765  19.822  0.00  0.00    +0.000 A 
ATOM     17  C   UNL     1       1.373   2.635  21.126  0.00  0.00    +0.000 A 
ATOM     18  C   UNL     1       2.153   3.641  21.680  0.00  0.00    +0.000 A 
ATOM     19  C   UNL     1       2.471   4.774  20.926  0.00  0.00    +0.000 A 
ENDBRANCH   4  14
BRANCH   1  22
ATOM     20  O   UNL     1      -0.996  10.408  19.319  0.00  0.00    +0.000 OA
ATOM     21  C   UNL     1      -0.233  10.139  20.248  0.00  0.00    +0.000 C 
ATOM     22  N   UNL     1       1.018   9.583  20.058  0.00  0.00    +0.000 N 
ATOM     23  H   UNL     1       1.712   9.624  20.807  0.00  0.00    +0.000 HD
BRANCH  21  24
ATOM     24  C   UNL     1      -0.636  10.316  21.715  0.00  0.00    +0.000 C 
BRANCH  24  25
ATOM     25  N   UNL     1      -1.290  11.626  21.979  0.00  0.00    +0.000 NA
ATOM     26  C   UNL     1      -2.022  11.598  23.262  0.00  0.00    +0.000 C 
ATOM     27  C   UNL     1      -2.700  12.942  23.538  0.00  0.00    +0.000 C 
ATOM     28  C   UNL     1      -1.690  14.084  23.537  0.00  0.00    +0.000 C 
ATOM     29  C   UNL     1      -0.865  14.060  22.258  0.00  0.00    +0.000 C 
ATOM     30  C   UNL     1      -0.255  12.679  22.016  0.00  0.00    +0.000 C 
ENDBRANCH  24  25
ENDBRANCH  21  24
ENDBRANCH   1  22
TORSDOF 4
ENDMDL
MODEL 4
REMARK VINA RESULT:      -8.0      4.818      7.624
REMARK  Name = 
REMARK  4 active torsions:
REMARK  status: ('A' for Active; 'I' for Inactive)
REMARK    1  A    between atoms: C_2  and  C_3
REMARK    2  A    between atoms: C_3  and  N_4
REMARK    3  A    between atoms: N_10  and  N_11
REMARK    4  A    between atoms: C_14  and  C_15
REMARK                            x       y       z     vdW  Elec       q    Type
REMARK                         _______ _______ _______ _____ _____    ______ ____
ROOT
ATOM      1  N   UNL     1       1.485   9.465  19.141  0.00  0.00    +0.000 N 
ATOM      2  C   UNL     1       2.150   8.293  18.748  0.00  0.00    +0.000 A 
ATOM      3  N   UNL     1       1.849   7.137  19.356  0.00  0.00    +0.000 NA
ATOM      4  C   UNL     1       2.458   6.006  18.925  0.00  0.00    +0.000 A 
ATOM      5  C   UNL     1       3.370   6.010  17.849  0.00  0.00    +0.000 A 
ATOM      6  C   UNL     1       4.006   4.881  17.257  0.00  0.00    +0.000 A 
ATOM      7  C   UNL     1       4.995   5.032  16.292  0.00  0.00    +0.000 A 
ATOM      8 BR   UNL     1       5.932   3.521  15.659  0.00  0.00    +0.000 Br
ATOM      9  C   UNL     1       5.310   6.297  15.827  0.00  0.00    +0.000 A 
ATOM     10  C   UNL     1       4.616   7.401  16.334  0.00  0.00    +0.000 A 
ATOM     11  C   UNL     1       3.657   7.284  17.337  0.00  0.00    +0.000 A 
ATOM     12  N   UNL     1       3.058   8.399  17.771  0.00  0.00    +0.000 NA
ATOM     13  H   UNL     1       2.058  10.273  18.892  0.00  0.00    +0.000 HD
ENDROOT
BRANCH   4  14
ATOM     14  C   UNL     1       2.088   4.805  19.722  0.00  0.00    +0.000 A 
ATOM     15  C   UNL     1       2.605   4.615  21.018  0.00  0.00    +0.000 A 
ATOM     16  C   UNL     1       2.249   3.506  21.795  0.00  0.00    +0.000 A 
ATOM     17  C   UNL     1       1.349   2.569  21.300  0.00  0.00    +0.000 A 
ATOM     18  C   UNL     1       0.851   2.707  20.012  0.00  0.00    +0.000 A 
ATOM     19  C   UNL     1       1.250   3.789  19.222  0.00  0.00    +0.000 A 
ENDBRANCH   4  14
BRANCH   1  22
ATOM     20  O   UNL     1      -0.985  10.354  19.867  0.00  0.00    +0.000 OA
ATOM     21  C   UNL     1      -0.193  10.023  20.750  0.00  0.00    +0.000 C 
ATOM     22  N   UNL     1       1.042   9.462  20.483  0.00  0.00    +0.000 N 
ATOM     23  H   UNL     1       1.764   9.452  21.206  0.00  0.00    +0.000 HD
BRANCH  21  24
ATOM     24  C   UNL     1      -0.539  10.124  22.239  0.00  0.00    +0.000 C 
BRANCH  24  25
ATOM     25  N   UNL     1      -0.578  11.529  22.727  0.00  0.00    +0.000 NA
ATOM     26  C   UNL     1      -0.019  12.451  21.718  0.00  0.00    +0.000 C 
ATOM     27  C   UNL     1      -0.053  13.897  22.216  0.00  0.00    +0.000 C 
ATOM     28  C   UNL     1      -1.469  14.324  22.586  0.00  0.00    +0.000 C 
ATOM     29  C   UNL     1      -2.088  13.324  23.553  0.00  0.00    +0.000 C 
ATOM     30  C   UNL     1      -1.979  11.895  23.019  0.00  0.00    +0.000 C 
ENDBRANCH  24  25
ENDBRANCH  21  24
ENDBRANCH   1  22
TORSDOF 4
ENDMDL
MODEL 5
REMARK VINA RESULT:      -7.8      5.859      9.088
REMARK  Name = 
REMARK  4 active torsions:
REMARK  status: ('A' for Active; 'I' for Inactive)
REMARK    1  A    between atoms: C_2  and  C_3
REMARK    2  A    between atoms: C_3  and  N_4
REMARK    3  A    between atoms: N_10  and  N_11
REMARK    4  A    between atoms: C_14  and  C_15
REMARK                            x       y       z     vdW  Elec       q    Type
REMARK                         _______ _______ _______ _____ _____    ______ ____
ROOT
ATOM      1  N   UNL     1       1.299   9.031  20.921  0.00  0.00    +0.000 N 
ATOM      2  C   UNL     1       0.385  10.075  20.704  0.00  0.00    +0.000 A 
ATOM      3  N   UNL     1      -0.442  10.008  19.652  0.00  0.00    +0.000 NA
ATOM      4  C   UNL     1      -1.357  10.995  19.491  0.00  0.00    +0.000 A 
ATOM      5  C   UNL     1      -1.476  12.062  20.406  0.00  0.00    +0.000 A 
ATOM      6  C   UNL     1      -2.447  13.106  20.387  0.00  0.00    +0.000 A 
ATOM      7  C   UNL     1      -2.370  14.179  21.267  0.00  0.00    +0.000 A 
ATOM      8 BR   UNL     1      -3.572  15.624  21.097  0.00  0.00    +0.000 Br
ATOM      9  C   UNL     1      -1.386  14.197  22.241  0.00  0.00    +0.000 A 
ATOM     10  C   UNL     1      -0.493  13.125  22.326  0.00  0.00    +0.000 A 
ATOM     11  C   UNL     1      -0.515  12.061  21.427  0.00  0.00    +0.000 A 
ATOM     12  N   UNL     1       0.391  11.088  21.577  0.00  0.00    +0.000 NA
ATOM     13  H   UNL     1       2.078   9.381  21.482  0.00  0.00    +0.000 HD
ENDROOT
BRANCH   4  14
ATOM     14  C   UNL     1      -2.169  10.840  18.254  0.00  0.00    +0.000 A 
ATOM     15  C   UNL     1      -3.417  11.480  18.128  0.00  0.00    +0.000 A 
ATOM     16  C   UNL     1      -4.185  11.369  16.962  0.00  0.00    +0.000 A 
ATOM     17  C   UNL     1      -3.710  10.629  15.883  0.00  0.00    +0.000 A 
ATOM     18  C   UNL     1      -2.501   9.956  15.991  0.00  0.00    +0.000 A 
ATOM     19  C   UNL     1      -1.764  10.029  17.176  0.00  0.00    +0.000 A 
ENDBRANCH   4  14
BRANCH   1  22
ATOM     20  O   UNL     1       1.810   6.356  20.886  0.00  0.00    +0.000 OA
ATOM     21  C   UNL     1       2.019   7.010  19.864  0.00  0.00    +0.000 C 
ATOM     22  N   UNL     1       1.694   8.349  19.747  0.00  0.00    +0.000 N 
ATOM     23  H   UNL     1       2.116   8.913  19.006  0.00  0.00    +0.000 HD
BRANCH  21  24
ATOM     24  C   UNL     1       2.583   6.378  18.588  0.00  0.00    +0.000 C 
BRANCH  24  25
ATOM     25  N   UNL     1       2.700   4.898  18.682  0.00  0.00    +0.000 NA
ATOM     26  C   UNL     1       1.442   4.245  18.267  0.00  0.00    +0.000 C 
ATOM     27  C   UNL     1       1.554   2.721  18.366  0.00  0.00    +0.000 C 
ATOM     28  C   UNL     1       2.716   2.196  17.530  0.00  0.00    +0.000 C 
ATOM     29  C   UNL     1       4.001   2.933  17.886  0.00  0.00    +0.000 C 
ATOM     30  C   UNL     1       3.807   4.449  17.814  0.00  0.00    +0.000 C 
ENDBRANCH  24  25
ENDBRANCH  21  24
ENDBRANCH   1  22
TORSDOF 4
ENDMDL
MODEL 6
REMARK VINA RESULT:      -7.7      4.446      6.472
REMARK  Name = 
REMARK  4 active torsions:
REMARK  status: ('A' for Active; 'I' for Inactive)
REMARK    1  A    between atoms: C_2  and  C_3
REMARK    2  A    between atoms: C_3  and  N_4
REMARK    3  A    between atoms: N_10  and  N_11
REMARK    4  A    between atoms: C_14  and  C_15
REMARK                            x       y       z     vdW  Elec       q    Type
REMARK                         _______ _______ _______ _____ _____    ______ ____
ROOT
ATOM      1  N   UNL     1       4.644   7.027  16.583  0.00  0.00    +0.000 N 
ATOM      2  C   UNL     1       3.694   7.145  17.611  0.00  0.00    +0.000 A 
ATOM      3  N   UNL     1       3.346   6.053  18.305  0.00  0.00    +0.000 NA
ATOM      4  C   UNL     1       2.473   6.196  19.331  0.00  0.00    +0.000 A 
ATOM      5  C   UNL     1       1.949   7.453  19.699  0.00  0.00    +0.000 A 
ATOM      6  C   UNL     1       1.093   7.738  20.803  0.00  0.00    +0.000 A 
ATOM      7  C   UNL     1       0.532   8.998  20.975  0.00  0.00    +0.000 A 
ATOM      8 BR   UNL     1      -0.728   9.287  22.349  0.00  0.00    +0.000 Br
ATOM      9  C   UNL     1       0.875  10.024  20.112  0.00  0.00    +0.000 A 
ATOM     10  C   UNL     1       1.792   9.774  19.087  0.00  0.00    +0.000 A 
ATOM     11  C   UNL     1       2.333   8.510  18.860  0.00  0.00    +0.000 A 
ATOM     12  N   UNL     1       3.190   8.362  17.844  0.00  0.00    +0.000 NA
ATOM     13  H   UNL     1       4.523   7.800  15.926  0.00  0.00    +0.000 HD
ENDROOT
BRANCH   4  14
ATOM     14  C   UNL     1       2.117   4.904  19.978  0.00  0.00    +0.000 A 
ATOM     15  C   UNL     1       2.602   4.584  21.261  0.00  0.00    +0.000 A 
ATOM     16  C   UNL     1       2.258   3.386  21.898  0.00  0.00    +0.000 A 
ATOM     17  C   UNL     1       1.403   2.485  21.272  0.00  0.00    +0.000 A 
ATOM     18  C   UNL     1       0.939   2.753  19.991  0.00  0.00    +0.000 A 
ATOM     19  C   UNL     1       1.327   3.927  19.340  0.00  0.00    +0.000 A 
ENDBRANCH   4  14
BRANCH   1  22
ATOM     20  O   UNL     1       6.513   5.156  17.233  0.00  0.00    +0.000 OA
ATOM     21  C   UNL     1       5.734   4.917  16.310  0.00  0.00    +0.000 C 
ATOM     22  N   UNL     1       4.686   5.752  15.972  0.00  0.00    +0.000 N 
ATOM     23  H   UNL     1       4.238   5.664  15.058  0.00  0.00    +0.000 HD
BRANCH  21  24
ATOM     24  C   UNL     1       5.801   3.619  15.498  0.00  0.00    +0.000 C 
BRANCH  24  25
ATOM     25  N   UNL     1       6.650   3.743  14.283  0.00  0.00    +0.000 NA
ATOM     26  C   UNL     1       5.862   3.468  13.063  0.00  0.00    +0.000 C 
ATOM     27  C   UNL     1       6.731   3.590  11.809  0.00  0.00    +0.000 C 
ATOM     28  C   UNL     1       7.379   4.967  11.715  0.00  0.00    +0.000 C 
ATOM     29  C   UNL     1       8.113   5.297  13.008  0.00  0.00    +0.000 C 
ATOM     30  C   UNL     1       7.205   5.110  14.224  0.00  0.00    +0.000 C 
ENDBRANCH  24  25
ENDBRANCH  21  24
ENDBRANCH   1  22
TORSDOF 4
ENDMDL
MODEL 7
REMARK VINA RESULT:      -7.6      4.876      8.243
REMARK  Name = 
REMARK  4 active torsions:
REMARK  status: ('A' for Active; 'I' for Inactive)
REMARK    1  A    between atoms: C_2  and  C_3
REMARK    2  A    between atoms: C_3  and  N_4
REMARK    3  A    between atoms: N_10  and  N_11
REMARK    4  A    between atoms: C_14  and  C_15
REMARK                            x       y       z     vdW  Elec       q    Type
REMARK                         _______ _______ _______ _____ _____    ______ ____
ROOT
ATOM      1  N   UNL     1       1.295   8.931  20.950  0.00  0.00    +0.000 N 
ATOM      2  C   UNL     1       0.371   9.972  20.762  0.00  0.00    +0.000 A 
ATOM      3  N   UNL     1      -0.433   9.944  19.690  0.00  0.00    +0.000 NA
ATOM      4  C   UNL     1      -1.358  10.925  19.556  0.00  0.00    +0.000 A 
ATOM      5  C   UNL     1      -1.511  11.946  20.516  0.00  0.00    +0.000 A 
ATOM      6  C   UNL     1      -2.495  12.978  20.524  0.00  0.00    +0.000 A 
ATOM      7  C   UNL     1      -2.452  14.009  21.455  0.00  0.00    +0.000 A 
ATOM      8 BR   UNL     1      -3.670  15.445  21.325  0.00  0.00    +0.000 Br
ATOM      9  C   UNL     1      -1.490  13.995  22.449  0.00  0.00    +0.000 A 
ATOM     10  C   UNL     1      -0.584  12.931  22.504  0.00  0.00    +0.000 A 
ATOM     11  C   UNL     1      -0.572  11.910  21.557  0.00  0.00    +0.000 A 
ATOM     12  N   UNL     1       0.344  10.943  21.682  0.00  0.00    +0.000 NA
ATOM     13  H   UNL     1       2.056   9.264  21.545  0.00  0.00    +0.000 HD
ENDROOT
BRANCH   4  14
ATOM     14  C   UNL     1      -2.141  10.818  18.295  0.00  0.00    +0.000 A 
ATOM     15  C   UNL     1      -1.677  10.027  17.226  0.00  0.00    +0.000 A 
ATOM     16  C   UNL     1      -2.411   9.891  16.041  0.00  0.00    +0.000 A 
ATOM     17  C   UNL     1      -3.640  10.529  15.905  0.00  0.00    +0.000 A 
ATOM     18  C   UNL     1      -4.106  11.347  16.926  0.00  0.00    +0.000 A 
ATOM     19  C   UNL     1      -3.344  11.519  18.085  0.00  0.00    +0.000 A 
ENDBRANCH   4  14
BRANCH   1  22
ATOM     20  O   UNL     1       1.725   6.247  20.772  0.00  0.00    +0.000 OA
ATOM     21  C   UNL     1       2.002   6.956  19.803  0.00  0.00    +0.000 C 
ATOM     22  N   UNL     1       1.724   8.309  19.756  0.00  0.00    +0.000 N 
ATOM     23  H   UNL     1       2.197   8.903  19.072  0.00  0.00    +0.000 HD
BRANCH  21  24
ATOM     24  C   UNL     1       2.606   6.384  18.517  0.00  0.00    +0.000 C 
BRANCH  24  25
ATOM     25  N   UNL     1       4.093   6.430  18.509  0.00  0.00    +0.000 NA
ATOM     26  C   UNL     1       4.658   5.243  19.183  0.00  0.00    +0.000 C 
ATOM     27  C   UNL     1       6.188   5.286  19.182  0.00  0.00    +0.000 C 
ATOM     28  C   UNL     1       6.739   5.394  17.765  0.00  0.00    +0.000 C 
ATOM     29  C   UNL     1       6.089   6.559  17.031  0.00  0.00    +0.000 C 
ATOM     30  C   UNL     1       4.563   6.483  17.110  0.00  0.00    +0.000 C 
ENDBRANCH  24  25
ENDBRANCH  21  24
ENDBRANCH   1  22
TORSDOF 4
ENDMDL
MODEL 8
REMARK VINA RESULT:      -7.5      4.721      7.819
REMARK  Name = 
REMARK  4 active torsions:
REMARK  status: ('A' for Active; 'I' for Inactive)
REMARK    1  A    between atoms: C_2  and  C_3
REMARK    2  A    between atoms: C_3  and  N_4
REMARK    3  A    between atoms: N_10  and  N_11
REMARK    4  A    between atoms: C_14  and  C_15
REMARK                            x       y       z     vdW  Elec       q    Type
REMARK                         _______ _______ _______ _____ _____    ______ ____
ROOT
ATOM      1  N   UNL     1       1.335   9.486  18.397  0.00  0.00    +0.000 N 
ATOM      2  C   UNL     1       2.080   8.316  18.177  0.00  0.00    +0.000 A 
ATOM      3  N   UNL     1       1.763   7.204  18.855  0.00  0.00    +0.000 NA
ATOM      4  C   UNL     1       2.454   6.070  18.587  0.00  0.00    +0.000 A 
ATOM      5  C   UNL     1       3.468   6.024  17.608  0.00  0.00    +0.000 A 
ATOM      6  C   UNL     1       4.202   4.878  17.184  0.00  0.00    +0.000 A 
ATOM      7  C   UNL     1       5.275   4.992  16.308  0.00  0.00    +0.000 A 
ATOM      8 BR   UNL     1       6.327   3.478  15.907  0.00  0.00    +0.000 Br
ATOM      9  C   UNL     1       5.588   6.226  15.765  0.00  0.00    +0.000 A 
ATOM     10  C   UNL     1       4.806   7.335  16.101  0.00  0.00    +0.000 A 
ATOM     11  C   UNL     1       3.756   7.261  17.014  0.00  0.00    +0.000 A 
ATOM     12  N   UNL     1       3.075   8.380  17.286  0.00  0.00    +0.000 NA
ATOM     13  H   UNL     1       1.900  10.296  18.133  0.00  0.00    +0.000 HD
ENDROOT
BRANCH   4  14
ATOM     14  C   UNL     1       2.051   4.926  19.450  0.00  0.00    +0.000 A 
ATOM     15  C   UNL     1       1.266   3.877  18.934  0.00  0.00    +0.000 A 
ATOM     16  C   UNL     1       0.899   2.779  19.721  0.00  0.00    +0.000 A 
ATOM     17  C   UNL     1       1.327   2.695  21.042  0.00  0.00    +0.000 A 
ATOM     18  C   UNL     1       2.070   3.731  21.591  0.00  0.00    +0.000 A 
ATOM     19  C   UNL     1       2.390   4.848  20.815  0.00  0.00    +0.000 A 
ENDBRANCH   4  14
BRANCH   1  22
ATOM     20  O   UNL     1       1.204  11.832  19.775  0.00  0.00    +0.000 OA
ATOM     21  C   UNL     1       0.833  10.798  20.332  0.00  0.00    +0.000 C 
ATOM     22  N   UNL     1       0.761   9.578  19.686  0.00  0.00    +0.000 N 
ATOM     23  H   UNL     1       0.711   8.715  20.230  0.00  0.00    +0.000 HD
BRANCH  21  24
ATOM     24  C   UNL     1       0.330  10.783  21.779  0.00  0.00    +0.000 C 
BRANCH  24  25
ATOM     25  N   UNL     1      -0.751  11.775  22.023  0.00  0.00    +0.000 NA
ATOM     26  C   UNL     1      -1.616  11.912  20.833  0.00  0.00    +0.000 C 
ATOM     27  C   UNL     1      -2.729  12.935  21.077  0.00  0.00    +0.000 C 
ATOM     28  C   UNL     1      -3.568  12.562  22.294  0.00  0.00    +0.000 C 
ATOM     29  C   UNL     1      -2.673  12.324  23.503  0.00  0.00    +0.000 C 
ATOM     30  C   UNL     1      -1.556  11.331  23.179  0.00  0.00    +0.000 C 
ENDBRANCH  24  25
ENDBRANCH  21  24
ENDBRANCH   1  22
TORSDOF 4
ENDMDL
MODEL 9
REMARK VINA RESULT:      -7.3      7.574     11.398
REMARK  Name = 
REMARK  4 active torsions:
REMARK  status: ('A' for Active; 'I' for Inactive)
REMARK    1  A    between atoms: C_2  and  C_3
REMARK    2  A    between atoms: C_3  and  N_4
REMARK    3  A    between atoms: N_10  and  N_11
REMARK    4  A    between atoms: C_14  and  C_15
REMARK                            x       y       z     vdW  Elec       q    Type
REMARK                         _______ _______ _______ _____ _____    ______ ____
ROOT
ATOM      1  N   UNL     1      -2.095  13.281  23.004  0.00  0.00    +0.000 N 
ATOM      2  C   UNL     1      -1.545  12.247  22.229  0.00  0.00    +0.000 A 
ATOM      3  N   UNL     1      -1.976  12.076  20.972  0.00  0.00    +0.000 NA
ATOM      4  C   UNL     1      -1.393  11.112  20.219  0.00  0.00    +0.000 A 
ATOM      5  C   UNL     1      -0.341  10.311  20.711  0.00  0.00    +0.000 A 
ATOM      6  C   UNL     1       0.399   9.328  19.992  0.00  0.00    +0.000 A 
ATOM      7  C   UNL     1       1.320   8.507  20.632  0.00  0.00    +0.000 A 
ATOM      8 BR   UNL     1       2.153   7.106  19.680  0.00  0.00    +0.000 Br
ATOM      9  C   UNL     1       1.593   8.700  21.975  0.00  0.00    +0.000 A 
ATOM     10  C   UNL     1       0.941   9.730  22.660  0.00  0.00    +0.000 A 
ATOM     11  C   UNL     1      -0.023  10.536  22.058  0.00  0.00    +0.000 A 
ATOM     12  N   UNL     1      -0.606  11.485  22.799  0.00  0.00    +0.000 NA
ATOM     13  H   UNL     1      -1.973  13.057  23.994  0.00  0.00    +0.000 HD
ENDROOT
BRANCH   4  14
ATOM     14  C   UNL     1      -2.004  10.979  18.868  0.00  0.00    +0.000 A 
ATOM     15  C   UNL     1      -1.417  10.150  17.892  0.00  0.00    +0.000 A 
ATOM     16  C   UNL     1      -1.990   9.991  16.625  0.00  0.00    +0.000 A 
ATOM     17  C   UNL     1      -3.177  10.643  16.309  0.00  0.00    +0.000 A 
ATOM     18  C   UNL     1      -3.759  11.497  17.236  0.00  0.00    +0.000 A 
ATOM     19  C   UNL     1      -3.155  11.692  18.482  0.00  0.00    +0.000 A 
ENDBRANCH   4  14
BRANCH   1  22
ATOM     20  O   UNL     1      -4.276  12.131  24.162  0.00  0.00    +0.000 OA
ATOM     21  C   UNL     1      -4.447  12.922  23.233  0.00  0.00    +0.000 C 
ATOM     22  N   UNL     1      -3.417  13.635  22.651  0.00  0.00    +0.000 N 
ATOM     23  H   UNL     1      -3.549  14.063  21.732  0.00  0.00    +0.000 HD
BRANCH  21  24
ATOM     24  C   UNL     1      -5.840  13.255  22.690  0.00  0.00    +0.000 C 
BRANCH  24  25
ATOM     25  N   UNL     1      -5.991  12.921  21.248  0.00  0.00    +0.000 NA
ATOM     26  C   UNL     1      -6.994  11.854  21.058  0.00  0.00    +0.000 C 
ATOM     27  C   UNL     1      -7.151  11.504  19.577  0.00  0.00    +0.000 C 
ATOM     28  C   UNL     1      -7.530  12.730  18.754  0.00  0.00    +0.000 C 
ATOM     29  C   UNL     1      -6.553  13.868  19.018  0.00  0.00    +0.000 C 
ATOM     30  C   UNL     1      -6.406  14.136  20.517  0.00  0.00    +0.000 C 
ENDBRANCH  24  25
ENDBRANCH  21  24
ENDBRANCH   1  22
TORSDOF 4
ENDMDL
