MODEL 1
REMARK VINA RESULT:      -8.3      0.000      0.000
REMARK  Name = 
REMARK  5 active torsions:
REMARK  status: ('A' for Active; 'I' for Inactive)
REMARK    1  A    between atoms: C_2  and  C_4
REMARK    2  A    between atoms: N_12  and  C_13
REMARK    3  A    between atoms: C_13  and  C_14
REMARK    4  A    between atoms: N_17  and  C_18
REMARK    5  A    between atoms: C_18  and  C_19
REMARK                            x       y       z     vdW  Elec       q    Type
REMARK                         _______ _______ _______ _____ _____    ______ ____
ROOT
ATOM      1  C   UNL     1       6.924   5.272  17.101  0.00  0.00    +0.000 A 
ATOM      2  C   UNL     1       7.420   5.462  15.801  0.00  0.00    +0.000 A 
ATOM      3  C   UNL     1       6.818   4.800  14.710  0.00  0.00    +0.000 A 
ATOM      4  C   UNL     1       5.700   3.979  14.899  0.00  0.00    +0.000 A 
ATOM      5  C   UNL     1       5.218   3.791  16.189  0.00  0.00    +0.000 A 
ATOM      6  C   UNL     1       5.859   4.400  17.271  0.00  0.00    +0.000 A 
ATOM      7  C   UNL     1       5.248   3.853  18.490  0.00  0.00    +0.000 C 
ATOM      8  O   UNL     1       5.741   3.913  19.600  0.00  0.00    +0.000 OA
ATOM      9  N   UNL     1       4.075   3.185  18.120  0.00  0.00    +0.000 N 
ATOM     10  C   UNL     1       4.075   2.946  16.678  0.00  0.00    +0.000 C 
ENDROOT
BRANCH   1  12
ATOM     11  N   UNL     1       8.119   5.329  19.207  0.00  0.00    +0.000 N 
ATOM     12  C   UNL     1       7.547   6.039  18.193  0.00  0.00    +0.000 C 
ATOM     13  O   UNL     1       7.449   7.261  18.243  0.00  0.00    +0.000 OA
ATOM     14  H   UNL     1       8.589   5.850  19.934  0.00  0.00    +0.000 HD
ATOM     15  H   UNL     1       8.197   4.320  19.220  0.00  0.00    +0.000 HD
ENDBRANCH   1  12
BRANCH   9  16
ATOM     16  C   UNL     1       3.384   2.338  19.105  0.00  0.00    +0.000 C 
BRANCH  16  17
ATOM     17  C   UNL     1       1.945   2.725  19.522  0.00  0.00    +0.000 C 
ATOM     18  C   UNL     1       1.205   3.668  18.571  0.00  0.00    +0.000 C 
ATOM     19  C   UNL     1       1.693   5.117  18.624  0.00  0.00    +0.000 C 
ATOM     20  N   UNL     1       1.690   5.711  19.968  0.00  0.00    +0.000 NA
ATOM     21  C   UNL     1       2.302   4.843  20.986  0.00  0.00    +0.000 C 
ATOM     22  C   UNL     1       1.893   3.361  20.926  0.00  0.00    +0.000 C 
BRANCH  20  23
ATOM     23  C   UNL     1       2.395   7.025  19.956  0.00  0.00    +0.000 C 
BRANCH  23  24
ATOM     24  C   UNL     1       1.518   8.232  20.222  0.00  0.00    +0.000 A 
ATOM     25  C   UNL     1       1.246   9.155  19.201  0.00  0.00    +0.000 A 
ATOM     26  C   UNL     1       0.433  10.266  19.436  0.00  0.00    +0.000 A 
ATOM     27  C   UNL     1      -0.132  10.477  20.704  0.00  0.00    +0.000 A 
ATOM     28  C   UNL     1       0.129   9.556  21.726  0.00  0.00    +0.000 A 
ATOM     29  C   UNL     1       0.941   8.448  21.484  0.00  0.00    +0.000 A 
ENDBRANCH  23  24
ENDBRANCH  20  23
ENDBRANCH  16  17
ENDBRANCH   9  16
TORSDOF 5
ENDMDL
MODEL 2
REMARK VINA RESULT:      -8.1      0.530      1.060
REMARK  Name = 
REMARK  5 active torsions:
REMARK  status: ('A' for Active; 'I' for Inactive)
REMARK    1  A    between atoms: C_2  and  C_4
REMARK    2  A    between atoms: N_12  and  C_13
REMARK    3  A    between atoms: C_13  and  C_14
REMARK    4  A    between atoms: N_17  and  C_18
REMARK    5  A    between atoms: C_18  and  C_19
REMARK                            x       y       z     vdW  Elec       q    Type
REMARK                         _______ _______ _______ _____ _____    ______ ____
ROOT
ATOM      1  C   UNL     1       6.908   5.691  16.958  0.00  0.00    +0.000 A 
ATOM      2  C   UNL     1       7.376   5.704  15.635  0.00  0.00    +0.000 A 
ATOM      3  C   UNL     1       6.871   4.779  14.696  0.00  0.00    +0.000 A 
ATOM      4  C   UNL     1       5.875   3.865  15.057  0.00  0.00    +0.000 A 
ATOM      5  C   UNL     1       5.420   3.853  16.370  0.00  0.00    +0.000 A 
ATOM      6  C   UNL     1       5.971   4.730  17.309  0.00  0.00    +0.000 A 
ATOM      7  C   UNL     1       5.438   4.339  18.620  0.00  0.00    +0.000 C 
ATOM      8  O   UNL     1       5.916   4.666  19.689  0.00  0.00    +0.000 OA
ATOM      9  N   UNL     1       4.367   3.463  18.404  0.00  0.00    +0.000 N 
ATOM     10  C   UNL     1       4.402   2.967  17.031  0.00  0.00    +0.000 C 
ENDROOT
BRANCH   1  12
ATOM     11  N   UNL     1       8.084   6.292  18.989  0.00  0.00    +0.000 N 
ATOM     12  C   UNL     1       7.419   6.721  17.879  0.00  0.00    +0.000 C 
ATOM     13  O   UNL     1       7.153   7.906  17.709  0.00  0.00    +0.000 OA
ATOM     14  H   UNL     1       8.477   6.994  19.598  0.00  0.00    +0.000 HD
ATOM     15  H   UNL     1       8.300   5.322  19.182  0.00  0.00    +0.000 HD
ENDBRANCH   1  12
BRANCH   9  16
ATOM     16  C   UNL     1       3.795   2.727  19.543  0.00  0.00    +0.000 C 
BRANCH  16  17
ATOM     17  C   UNL     1       2.311   2.971  19.903  0.00  0.00    +0.000 C 
ATOM     18  C   UNL     1       1.479   3.703  18.846  0.00  0.00    +0.000 C 
ATOM     19  C   UNL     1       1.781   5.199  18.741  0.00  0.00    +0.000 C 
ATOM     20  N   UNL     1       1.675   5.932  20.010  0.00  0.00    +0.000 NA
ATOM     21  C   UNL     1       2.367   5.265  21.123  0.00  0.00    +0.000 C 
ATOM     22  C   UNL     1       2.148   3.746  21.227  0.00  0.00    +0.000 C 
BRANCH  20  23
ATOM     23  C   UNL     1       2.209   7.315  19.857  0.00  0.00    +0.000 C 
BRANCH  23  24
ATOM     24  C   UNL     1       1.295   8.421  20.347  0.00  0.00    +0.000 A 
ATOM     25  C   UNL     1       0.720   8.355  21.625  0.00  0.00    +0.000 A 
ATOM     26  C   UNL     1      -0.118   9.373  22.086  0.00  0.00    +0.000 A 
ATOM     27  C   UNL     1      -0.396  10.487  21.277  0.00  0.00    +0.000 A 
ATOM     28  C   UNL     1       0.181  10.561  20.003  0.00  0.00    +0.000 A 
ATOM     29  C   UNL     1       1.017   9.542  19.549  0.00  0.00    +0.000 A 
ENDBRANCH  23  24
ENDBRANCH  20  23
ENDBRANCH  16  17
ENDBRANCH   9  16
TORSDOF 5
ENDMDL
MODEL 3
REMARK VINA RESULT:      -8.0      2.924      7.884
REMARK  Name = 
REMARK  5 active torsions:
REMARK  status: ('A' for Active; 'I' for Inactive)
REMARK    1  A    between atoms: C_2  and  C_4
REMARK    2  A    between atoms: N_12  and  C_13
REMARK    3  A    between atoms: C_13  and  C_14
REMARK    4  A    between atoms: N_17  and  C_18
REMARK    5  A    between atoms: C_18  and  C_19
REMARK                            x       y       z     vdW  Elec       q    Type
REMARK                         _______ _______ _______ _____ _____    ______ ____
ROOT
ATOM      1  C   UNL     1      -0.339  11.223  20.656  0.00  0.00    +0.000 A 
ATOM      2  C   UNL     1      -1.031  11.497  21.846  0.00  0.00    +0.000 A 
ATOM      3  C   UNL     1      -0.966  10.592  22.927  0.00  0.00    +0.000 A 
ATOM      4  C   UNL     1      -0.187   9.433  22.845  0.00  0.00    +0.000 A 
ATOM      5  C   UNL     1       0.492   9.165  21.661  0.00  0.00    +0.000 A 
ATOM      6  C   UNL     1       0.371  10.034  20.574  0.00  0.00    +0.000 A 
ATOM      7  C   UNL     1       1.027   9.382  19.434  0.00  0.00    +0.000 C 
ATOM      8  O   UNL     1       0.860   9.688  18.269  0.00  0.00    +0.000 OA
ATOM      9  N   UNL     1       1.778   8.308  19.927  0.00  0.00    +0.000 N 
ATOM     10  C   UNL     1       1.357   7.993  21.290  0.00  0.00    +0.000 C 
ENDROOT
BRANCH   1  12
ATOM     11  N   UNL     1      -1.269  12.024  18.568  0.00  0.00    +0.000 N 
ATOM     12  C   UNL     1      -0.386  12.233  19.585  0.00  0.00    +0.000 C 
ATOM     13  O   UNL     1       0.419  13.158  19.555  0.00  0.00    +0.000 OA
ATOM     14  H   UNL     1      -1.339  12.737  17.857  0.00  0.00    +0.000 HD
ATOM     15  H   UNL     1      -1.932  11.259  18.540  0.00  0.00    +0.000 HD
ENDBRANCH   1  12
BRANCH   9  16
ATOM     16  C   UNL     1       2.349   7.332  18.984  0.00  0.00    +0.000 C 
BRANCH  16  17
ATOM     17  C   UNL     1       2.068   5.830  19.226  0.00  0.00    +0.000 C 
ATOM     18  C   UNL     1       3.041   5.111  20.164  0.00  0.00    +0.000 C 
ATOM     19  C   UNL     1       4.414   4.835  19.546  0.00  0.00    +0.000 C 
ATOM     20  N   UNL     1       4.371   4.109  18.270  0.00  0.00    +0.000 NA
ATOM     21  C   UNL     1       3.395   4.664  17.320  0.00  0.00    +0.000 C 
ATOM     22  C   UNL     1       2.022   5.023  17.913  0.00  0.00    +0.000 C 
BRANCH  20  23
ATOM     23  C   UNL     1       5.720   4.095  17.636  0.00  0.00    +0.000 C 
BRANCH  23  24
ATOM     24  C   UNL     1       6.518   5.375  17.782  0.00  0.00    +0.000 A 
ATOM     25  C   UNL     1       6.222   6.494  16.989  0.00  0.00    +0.000 A 
ATOM     26  C   UNL     1       6.947   7.680  17.123  0.00  0.00    +0.000 A 
ATOM     27  C   UNL     1       7.988   7.774  18.061  0.00  0.00    +0.000 A 
ATOM     28  C   UNL     1       8.285   6.663  18.860  0.00  0.00    +0.000 A 
ATOM     29  C   UNL     1       7.555   5.482  18.722  0.00  0.00    +0.000 A 
ENDBRANCH  23  24
ENDBRANCH  20  23
ENDBRANCH  16  17
ENDBRANCH   9  16
TORSDOF 5
ENDMDL
MODEL 4
REMARK VINA RESULT:      -7.9      0.785      1.285
REMARK  Name = 
REMARK  5 active torsions:
REMARK  status: ('A' for Active; 'I' for Inactive)
REMARK    1  A    between atoms: C_2  and  C_4
REMARK    2  A    between atoms: N_12  and  C_13
REMARK    3  A    between atoms: C_13  and  C_14
REMARK    4  A    between atoms: N_17  and  C_18
REMARK    5  A    between atoms: C_18  and  C_19
REMARK                            x       y       z     vdW  Elec       q    Type
REMARK                         _______ _______ _______ _____ _____    ______ ____
ROOT
ATOM      1  C   UNL     1       6.799   5.337  16.961  0.00  0.00    +0.000 A 
ATOM      2  C   UNL     1       7.239   5.573  15.650  0.00  0.00    +0.000 A 
ATOM      3  C   UNL     1       6.639   4.893  14.568  0.00  0.00    +0.000 A 
ATOM      4  C   UNL     1       5.578   4.006  14.780  0.00  0.00    +0.000 A 
ATOM      5  C   UNL     1       5.150   3.772  16.082  0.00  0.00    +0.000 A 
ATOM      6  C   UNL     1       5.792   4.402  17.152  0.00  0.00    +0.000 A 
ATOM      7  C   UNL     1       5.254   3.805  18.381  0.00  0.00    +0.000 C 
ATOM      8  O   UNL     1       5.779   3.877  19.476  0.00  0.00    +0.000 OA
ATOM      9  N   UNL     1       4.109   3.075  18.039  0.00  0.00    +0.000 N 
ATOM     10  C   UNL     1       4.075   2.856  16.595  0.00  0.00    +0.000 C 
ENDROOT
BRANCH   1  12
ATOM     11  N   UNL     1       8.060   5.434  19.027  0.00  0.00    +0.000 N 
ATOM     12  C   UNL     1       7.412   6.123  18.045  0.00  0.00    +0.000 C 
ATOM     13  O   UNL     1       7.244   7.336  18.118  0.00  0.00    +0.000 OA
ATOM     14  H   UNL     1       8.523   5.970  19.746  0.00  0.00    +0.000 HD
ATOM     15  H   UNL     1       8.197   4.431  19.021  0.00  0.00    +0.000 HD
ENDBRANCH   1  12
BRANCH   9  16
ATOM     16  C   UNL     1       3.501   2.176  19.033  0.00  0.00    +0.000 C 
BRANCH  16  17
ATOM     17  C   UNL     1       2.001   2.358  19.365  0.00  0.00    +0.000 C 
ATOM     18  C   UNL     1       1.278   3.470  18.601  0.00  0.00    +0.000 C 
ATOM     19  C   UNL     1       1.634   4.883  19.070  0.00  0.00    +0.000 C 
ATOM     20  N   UNL     1       1.451   5.109  20.510  0.00  0.00    +0.000 NA
ATOM     21  C   UNL     1       2.033   4.045  21.342  0.00  0.00    +0.000 C 
ATOM     22  C   UNL     1       1.759   2.607  20.868  0.00  0.00    +0.000 C 
BRANCH  20  23
ATOM     23  C   UNL     1       2.039   6.420  20.909  0.00  0.00    +0.000 C 
BRANCH  23  24
ATOM     24  C   UNL     1       1.960   7.511  19.859  0.00  0.00    +0.000 A 
ATOM     25  C   UNL     1       2.634   7.373  18.636  0.00  0.00    +0.000 A 
ATOM     26  C   UNL     1       2.560   8.371  17.661  0.00  0.00    +0.000 A 
ATOM     27  C   UNL     1       1.802   9.531  17.887  0.00  0.00    +0.000 A 
ATOM     28  C   UNL     1       1.121   9.671  19.103  0.00  0.00    +0.000 A 
ATOM     29  C   UNL     1       1.198   8.671  20.072  0.00  0.00    +0.000 A 
ENDBRANCH  23  24
ENDBRANCH  20  23
ENDBRANCH  16  17
ENDBRANCH   9  16
TORSDOF 5
ENDMDL
MODEL 5
REMARK VINA RESULT:      -7.8      2.795      7.734
REMARK  Name = 
REMARK  5 active torsions:
REMARK  status: ('A' for Active; 'I' for Inactive)
REMARK    1  A    between atoms: C_2  and  C_4
REMARK    2  A    between atoms: N_12  and  C_13
REMARK    3  A    between atoms: C_13  and  C_14
REMARK    4  A    between atoms: N_17  and  C_18
REMARK    5  A    between atoms: C_18  and  C_19
REMARK                            x       y       z     vdW  Elec       q    Type
REMARK                         _______ _______ _______ _____ _____    ______ ____
ROOT
ATOM      1  C   UNL     1       0.335  11.268  20.836  0.00  0.00    +0.000 A 
ATOM      2  C   UNL     1      -0.409  11.542  21.994  0.00  0.00    +0.000 A 
ATOM      3  C   UNL     1      -0.678  10.514  22.923  0.00  0.00    +0.000 A 
ATOM      4  C   UNL     1      -0.179   9.221  22.724  0.00  0.00    +0.000 A 
ATOM      5  C   UNL     1       0.552   8.955  21.572  0.00  0.00    +0.000 A 
ATOM      6  C   UNL     1       0.760   9.964  20.628  0.00  0.00    +0.000 A 
ATOM      7  C   UNL     1       1.377   9.328  19.457  0.00  0.00    +0.000 C 
ATOM      8  O   UNL     1       1.421   9.817  18.344  0.00  0.00    +0.000 OA
ATOM      9  N   UNL     1       1.801   8.049  19.836  0.00  0.00    +0.000 N 
ATOM     10  C   UNL     1       1.164   7.669  21.094  0.00  0.00    +0.000 C 
ENDROOT
BRANCH   1  12
ATOM     11  N   UNL     1      -0.122  12.524  18.816  0.00  0.00    +0.000 N 
ATOM     12  C   UNL     1       0.645  12.391  19.935  0.00  0.00    +0.000 C 
ATOM     13  O   UNL     1       1.625  13.103  20.128  0.00  0.00    +0.000 OA
ATOM     14  H   UNL     1       0.055  13.319  18.220  0.00  0.00    +0.000 HD
ATOM     15  H   UNL     1      -0.922  11.941  18.604  0.00  0.00    +0.000 HD
ENDBRANCH   1  12
BRANCH   9  16
ATOM     16  C   UNL     1       2.239   7.097  18.802  0.00  0.00    +0.000 C 
BRANCH  16  17
ATOM     17  C   UNL     1       2.151   5.584  19.115  0.00  0.00    +0.000 C 
ATOM     18  C   UNL     1       3.230   5.030  20.049  0.00  0.00    +0.000 C 
ATOM     19  C   UNL     1       4.608   4.894  19.397  0.00  0.00    +0.000 C 
ATOM     20  N   UNL     1       4.618   4.111  18.154  0.00  0.00    +0.000 NA
ATOM     21  C   UNL     1       3.555   4.502  17.215  0.00  0.00    +0.000 C 
ATOM     22  C   UNL     1       2.165   4.720  17.838  0.00  0.00    +0.000 C 
BRANCH  20  23
ATOM     23  C   UNL     1       5.940   4.231  17.475  0.00  0.00    +0.000 C 
BRANCH  23  24
ATOM     24  C   UNL     1       6.687   5.524  17.737  0.00  0.00    +0.000 A 
ATOM     25  C   UNL     1       7.643   5.600  18.761  0.00  0.00    +0.000 A 
ATOM     26  C   UNL     1       8.341   6.785  19.004  0.00  0.00    +0.000 A 
ATOM     27  C   UNL     1       8.100   7.925  18.219  0.00  0.00    +0.000 A 
ATOM     28  C   UNL     1       7.153   7.853  17.190  0.00  0.00    +0.000 A 
ATOM     29  C   UNL     1       6.460   6.666  16.953  0.00  0.00    +0.000 A 
ENDBRANCH  23  24
ENDBRANCH  20  23
ENDBRANCH  16  17
ENDBRANCH   9  16
TORSDOF 5
ENDMDL
MODEL 6
REMARK VINA RESULT:      -7.7      2.662      6.989
REMARK  Name = 
REMARK  5 active torsions:
REMARK  status: ('A' for Active; 'I' for Inactive)
REMARK    1  A    between atoms: C_2  and  C_4
REMARK    2  A    between atoms: N_12  and  C_13
REMARK    3  A    between atoms: C_13  and  C_14
REMARK    4  A    between atoms: N_17  and  C_18
REMARK    5  A    between atoms: C_18  and  C_19
REMARK                            x       y       z     vdW  Elec       q    Type
REMARK                         _______ _______ _______ _____ _____    ______ ____
ROOT
ATOM      1  C   UNL     1       0.791  10.324  20.059  0.00  0.00    +0.000 A 
ATOM      2  C   UNL     1       0.109  10.198  21.280  0.00  0.00    +0.000 A 
ATOM      3  C   UNL     1       0.148   8.980  21.991  0.00  0.00    +0.000 A 
ATOM      4  C   UNL     1       0.894   7.896  21.514  0.00  0.00    +0.000 A 
ATOM      5  C   UNL     1       1.563   8.025  20.302  0.00  0.00    +0.000 A 
ATOM      6  C   UNL     1       1.466   9.214  19.573  0.00  0.00    +0.000 A 
ATOM      7  C   UNL     1       2.101   8.967  18.273  0.00  0.00    +0.000 C 
ATOM      8  O   UNL     1       1.943   9.653  17.281  0.00  0.00    +0.000 OA
ATOM      9  N   UNL     1       2.822   7.770  18.366  0.00  0.00    +0.000 N 
ATOM     10  C   UNL     1       2.393   7.025  19.547  0.00  0.00    +0.000 C 
ENDROOT
BRANCH   1  12
ATOM     11  N   UNL     1      -0.120  11.808  18.376  0.00  0.00    +0.000 N 
ATOM     12  C   UNL     1       0.772  11.637  19.393  0.00  0.00    +0.000 C 
ATOM     13  O   UNL     1       1.604  12.495  19.666  0.00  0.00    +0.000 OA
ATOM     14  H   UNL     1      -0.169  12.721  17.947  0.00  0.00    +0.000 HD
ATOM     15  H   UNL     1      -0.804  11.116  18.099  0.00  0.00    +0.000 HD
ENDBRANCH   1  12
BRANCH   9  16
ATOM     16  C   UNL     1       3.363   7.155  17.143  0.00  0.00    +0.000 C 
BRANCH  16  17
ATOM     17  C   UNL     1       4.817   6.628  17.171  0.00  0.00    +0.000 C 
ATOM     18  C   UNL     1       5.153   5.539  16.149  0.00  0.00    +0.000 C 
ATOM     19  C   UNL     1       4.566   4.166  16.486  0.00  0.00    +0.000 C 
ATOM     20  N   UNL     1       4.907   3.671  17.826  0.00  0.00    +0.000 NA
ATOM     21  C   UNL     1       4.707   4.675  18.882  0.00  0.00    +0.000 C 
ATOM     22  C   UNL     1       5.219   6.089  18.559  0.00  0.00    +0.000 C 
BRANCH  20  23
ATOM     23  C   UNL     1       4.109   2.454  18.148  0.00  0.00    +0.000 C 
BRANCH  23  24
ATOM     24  C   UNL     1       3.076   2.629  19.244  0.00  0.00    +0.000 A 
ATOM     25  C   UNL     1       1.752   2.968  18.927  0.00  0.00    +0.000 A 
ATOM     26  C   UNL     1       0.792   3.123  19.930  0.00  0.00    +0.000 A 
ATOM     27  C   UNL     1       1.137   2.937  21.279  0.00  0.00    +0.000 A 
ATOM     28  C   UNL     1       2.455   2.591  21.601  0.00  0.00    +0.000 A 
ATOM     29  C   UNL     1       3.408   2.437  20.595  0.00  0.00    +0.000 A 
ENDBRANCH  23  24
ENDBRANCH  20  23
ENDBRANCH  16  17
ENDBRANCH   9  16
TORSDOF 5
ENDMDL
MODEL 7
REMARK VINA RESULT:      -7.7      1.263      1.786
REMARK  Name = 
REMARK  5 active torsions:
REMARK  status: ('A' for Active; 'I' for Inactive)
REMARK    1  A    between atoms: C_2  and  C_4
REMARK    2  A    between atoms: N_12  and  C_13
REMARK    3  A    between atoms: C_13  and  C_14
REMARK    4  A    between atoms: N_17  and  C_18
REMARK    5  A    between atoms: C_18  and  C_19
REMARK                            x       y       z     vdW  Elec       q    Type
REMARK                         _______ _______ _______ _____ _____    ______ ____
ROOT
ATOM      1  C   UNL     1       6.369   4.683  17.499  0.00  0.00    +0.000 A 
ATOM      2  C   UNL     1       6.740   5.243  16.267  0.00  0.00    +0.000 A 
ATOM      3  C   UNL     1       5.892   5.115  15.147  0.00  0.00    +0.000 A 
ATOM      4  C   UNL     1       4.657   4.465  15.254  0.00  0.00    +0.000 A 
ATOM      5  C   UNL     1       4.298   3.907  16.476  0.00  0.00    +0.000 A 
ATOM      6  C   UNL     1       5.173   3.983  17.563  0.00  0.00    +0.000 A 
ATOM      7  C   UNL     1       4.606   3.141  18.625  0.00  0.00    +0.000 C 
ATOM      8  O   UNL     1       5.224   2.724  19.585  0.00  0.00    +0.000 OA
ATOM      9  N   UNL     1       3.285   2.840  18.274  0.00  0.00    +0.000 N 
ATOM     10  C   UNL     1       3.069   3.132  16.859  0.00  0.00    +0.000 C 
ENDROOT
BRANCH   1  12
ATOM     11  N   UNL     1       6.749   5.596  19.710  0.00  0.00    +0.000 N 
ATOM     12  C   UNL     1       7.259   4.904  18.652  0.00  0.00    +0.000 C 
ATOM     13  O   UNL     1       8.442   4.581  18.607  0.00  0.00    +0.000 OA
ATOM     14  H   UNL     1       7.340   5.709  20.522  0.00  0.00    +0.000 HD
ATOM     15  H   UNL     1       5.788   5.905  19.776  0.00  0.00    +0.000 HD
ENDBRANCH   1  12
BRANCH   9  16
ATOM     16  C   UNL     1       2.551   1.816  19.035  0.00  0.00    +0.000 C 
BRANCH  16  17
ATOM     17  C   UNL     1       1.324   2.261  19.866  0.00  0.00    +0.000 C 
ATOM     18  C   UNL     1       0.532   3.445  19.307  0.00  0.00    +0.000 C 
ATOM     19  C   UNL     1       1.232   4.796  19.472  0.00  0.00    +0.000 C 
ATOM     20  N   UNL     1       1.632   5.110  20.851  0.00  0.00    +0.000 NA
ATOM     21  C   UNL     1       2.327   3.998  21.519  0.00  0.00    +0.000 C 
ATOM     22  C   UNL     1       1.697   2.608  21.322  0.00  0.00    +0.000 C 
BRANCH  20  23
ATOM     23  C   UNL     1       2.504   6.319  20.876  0.00  0.00    +0.000 C 
BRANCH  23  24
ATOM     24  C   UNL     1       2.212   7.350  19.803  0.00  0.00    +0.000 A 
ATOM     25  C   UNL     1       1.374   8.441  20.074  0.00  0.00    +0.000 A 
ATOM     26  C   UNL     1       1.106   9.399  19.093  0.00  0.00    +0.000 A 
ATOM     27  C   UNL     1       1.678   9.288  17.816  0.00  0.00    +0.000 A 
ATOM     28  C   UNL     1       2.522   8.205  17.541  0.00  0.00    +0.000 A 
ATOM     29  C   UNL     1       2.786   7.252  18.525  0.00  0.00    +0.000 A 
ENDBRANCH  23  24
ENDBRANCH  20  23
ENDBRANCH  16  17
ENDBRANCH   9  16
TORSDOF 5
ENDMDL
MODEL 8
REMARK VINA RESULT:      -7.6      2.892      7.727
REMARK  Name = 
REMARK  5 active torsions:
REMARK  status: ('A' for Active; 'I' for Inactive)
REMARK    1  A    between atoms: C_2  and  C_4
REMARK    2  A    between atoms: N_12  and  C_13
REMARK    3  A    between atoms: C_13  and  C_14
REMARK    4  A    between atoms: N_17  and  C_18
REMARK    5  A    between atoms: C_18  and  C_19
REMARK                            x       y       z     vdW  Elec       q    Type
REMARK                         _______ _______ _______ _____ _____    ______ ____
ROOT
ATOM      1  C   UNL     1      -0.471  10.716  21.188  0.00  0.00    +0.000 A 
ATOM      2  C   UNL     1      -1.144  11.893  20.826  0.00  0.00    +0.000 A 
ATOM      3  C   UNL     1      -1.146  12.323  19.482  0.00  0.00    +0.000 A 
ATOM      4  C   UNL     1      -0.512  11.568  18.488  0.00  0.00    +0.000 A 
ATOM      5  C   UNL     1       0.158  10.406  18.855  0.00  0.00    +0.000 A 
ATOM      6  C   UNL     1       0.208  10.022  20.197  0.00  0.00    +0.000 A 
ATOM      7  C   UNL     1       1.140   8.891  20.281  0.00  0.00    +0.000 C 
ATOM      8  O   UNL     1       1.663   8.497  21.306  0.00  0.00    +0.000 OA
ATOM      9  N   UNL     1       1.380   8.434  18.980  0.00  0.00    +0.000 N 
ATOM     10  C   UNL     1       0.943   9.439  18.014  0.00  0.00    +0.000 C 
ENDROOT
BRANCH   1  12
ATOM     11  N   UNL     1      -0.804   8.956  22.818  0.00  0.00    +0.000 N 
ATOM     12  C   UNL     1      -0.559  10.278  22.592  0.00  0.00    +0.000 C 
ATOM     13  O   UNL     1      -0.529  11.091  23.510  0.00  0.00    +0.000 OA
ATOM     14  H   UNL     1      -0.817   8.642  23.778  0.00  0.00    +0.000 HD
ATOM     15  H   UNL     1      -0.864   8.256  22.089  0.00  0.00    +0.000 HD
ENDBRANCH   1  12
BRANCH   9  16
ATOM     16  C   UNL     1       2.460   7.463  18.742  0.00  0.00    +0.000 C 
BRANCH  16  17
ATOM     17  C   UNL     1       2.186   5.972  19.054  0.00  0.00    +0.000 C 
ATOM     18  C   UNL     1       3.105   5.327  20.095  0.00  0.00    +0.000 C 
ATOM     19  C   UNL     1       4.520   5.042  19.586  0.00  0.00    +0.000 C 
ATOM     20  N   UNL     1       4.573   4.242  18.355  0.00  0.00    +0.000 NA
ATOM     21  C   UNL     1       3.655   4.723  17.311  0.00  0.00    +0.000 C 
ATOM     22  C   UNL     1       2.240   5.090  17.790  0.00  0.00    +0.000 C 
BRANCH  20  23
ATOM     23  C   UNL     1       5.962   4.216  17.813  0.00  0.00    +0.000 C 
BRANCH  23  24
ATOM     24  C   UNL     1       6.726   5.520  17.927  0.00  0.00    +0.000 A 
ATOM     25  C   UNL     1       6.460   6.582  17.049  0.00  0.00    +0.000 A 
ATOM     26  C   UNL     1       7.154   7.789  17.152  0.00  0.00    +0.000 A 
ATOM     27  C   UNL     1       8.132   7.964  18.145  0.00  0.00    +0.000 A 
ATOM     28  C   UNL     1       8.398   6.911  19.029  0.00  0.00    +0.000 A 
ATOM     29  C   UNL     1       7.700   5.708  18.921  0.00  0.00    +0.000 A 
ENDBRANCH  23  24
ENDBRANCH  20  23
ENDBRANCH  16  17
ENDBRANCH   9  16
TORSDOF 5
ENDMDL
MODEL 9
REMARK VINA RESULT:      -7.5      0.916      1.488
REMARK  Name = 
REMARK  5 active torsions:
REMARK  status: ('A' for Active; 'I' for Inactive)
REMARK    1  A    between atoms: C_2  and  C_4
REMARK    2  A    between atoms: N_12  and  C_13
REMARK    3  A    between atoms: C_13  and  C_14
REMARK    4  A    between atoms: N_17  and  C_18
REMARK    5  A    between atoms: C_18  and  C_19
REMARK                            x       y       z     vdW  Elec       q    Type
REMARK                         _______ _______ _______ _____ _____    ______ ____
ROOT
ATOM      1  C   UNL     1       6.486   5.583  16.634  0.00  0.00    +0.000 A 
ATOM      2  C   UNL     1       6.977   5.621  15.320  0.00  0.00    +0.000 A 
ATOM      3  C   UNL     1       6.587   4.635  14.389  0.00  0.00    +0.000 A 
ATOM      4  C   UNL     1       5.680   3.631  14.747  0.00  0.00    +0.000 A 
ATOM      5  C   UNL     1       5.202   3.596  16.052  0.00  0.00    +0.000 A 
ATOM      6  C   UNL     1       5.643   4.539  16.984  0.00  0.00    +0.000 A 
ATOM      7  C   UNL     1       5.124   4.118  18.292  0.00  0.00    +0.000 C 
ATOM      8  O   UNL     1       5.544   4.508  19.364  0.00  0.00    +0.000 OA
ATOM      9  N   UNL     1       4.150   3.136  18.072  0.00  0.00    +0.000 N 
ATOM     10  C   UNL     1       4.264   2.623  16.709  0.00  0.00    +0.000 C 
ENDROOT
BRANCH   1  12
ATOM     11  N   UNL     1       7.867   6.417  18.441  0.00  0.00    +0.000 N 
ATOM     12  C   UNL     1       6.872   6.674  17.545  0.00  0.00    +0.000 C 
ATOM     13  O   UNL     1       6.243   7.727  17.571  0.00  0.00    +0.000 OA
ATOM     14  H   UNL     1       8.168   7.176  19.035  0.00  0.00    +0.000 HD
ATOM     15  H   UNL     1       8.393   5.552  18.473  0.00  0.00    +0.000 HD
ENDBRANCH   1  12
BRANCH   9  16
ATOM     16  C   UNL     1       3.632   2.364  19.213  0.00  0.00    +0.000 C 
BRANCH  16  17
ATOM     17  C   UNL     1       2.129   2.490  19.560  0.00  0.00    +0.000 C 
ATOM     18  C   UNL     1       1.349   3.549  18.777  0.00  0.00    +0.000 C 
ATOM     19  C   UNL     1       1.648   4.987  19.205  0.00  0.00    +0.000 C 
ATOM     20  N   UNL     1       1.472   5.243  20.641  0.00  0.00    +0.000 NA
ATOM     21  C   UNL     1       2.109   4.227  21.493  0.00  0.00    +0.000 C 
ATOM     22  C   UNL     1       1.894   2.767  21.059  0.00  0.00    +0.000 C 
BRANCH  20  23
ATOM     23  C   UNL     1       2.006   6.588  20.998  0.00  0.00    +0.000 C 
BRANCH  23  24
ATOM     24  C   UNL     1       1.895   7.638  19.911  0.00  0.00    +0.000 A 
ATOM     25  C   UNL     1       1.081   8.766  20.090  0.00  0.00    +0.000 A 
ATOM     26  C   UNL     1       0.978   9.742  19.096  0.00  0.00    +0.000 A 
ATOM     27  C   UNL     1       1.696   9.613  17.897  0.00  0.00    +0.000 A 
ATOM     28  C   UNL     1       2.517   8.492  17.714  0.00  0.00    +0.000 A 
ATOM     29  C   UNL     1       2.615   7.522  18.711  0.00  0.00    +0.000 A 
ENDBRANCH  23  24
ENDBRANCH  20  23
ENDBRANCH  16  17
ENDBRANCH   9  16
TORSDOF 5
ENDMDL
