MODEL 1
REMARK VINA RESULT:      -9.1      0.000      0.000
REMARK  Name = 
REMARK  10 active torsions:
REMARK  status: ('A' for Active; 'I' for Inactive)
REMARK    1  A    between atoms: C_2  and  C_3
REMARK    2  A    between atoms: C_3  and  C_4
REMARK    3  A    between atoms: C_7  and  O_8
REMARK    4  A    between atoms: O_8  and  C_9
REMARK    5  A    between atoms: C_9  and  C_11
REMARK    6  A    between atoms: C_19  and  O_20
REMARK    7  A    between atoms: O_20  and  C_21
REMARK    8  A    between atoms: C_21  and  C_23
REMARK    9  A    between atoms: C_31  and  C_32
REMARK   10  A    between atoms: C_32  and  C_34
REMARK                            x       y       z     vdW  Elec       q    Type
REMARK                         _______ _______ _______ _____ _____    ______ ____
ROOT
ATOM      1  C   UNL     1       2.058   4.058  20.442  0.00  0.00    +0.000 C 
ATOM      2  C   UNL     1       1.888   3.146  21.668  0.00  0.00    +0.000 C 
ATOM      3  C   UNL     1       1.907   5.547  20.917  0.00  0.00    +0.000 C 
ATOM      4  C   UNL     1       2.214   6.608  19.870  0.00  0.00    +0.000 A 
ATOM      5  C   UNL     1       1.628   7.895  19.952  0.00  0.00    +0.000 A 
ATOM      6  C   UNL     1       1.860   8.847  18.954  0.00  0.00    +0.000 A 
ATOM      7  C   UNL     1       2.673   8.538  17.863  0.00  0.00    +0.000 A 
ATOM      8  C   UNL     1       3.326   7.309  17.804  0.00  0.00    +0.000 A 
ATOM      9  C   UNL     1       3.094   6.324  18.797  0.00  0.00    +0.000 A 
ATOM     10  C   UNL     1       3.678   4.945  18.629  0.00  0.00    +0.000 C 
ATOM     11  C   UNL     1       3.508   3.926  19.796  0.00  0.00    +0.000 C 
ENDROOT
BRANCH  11  12
ATOM     12  C   UNL     1       3.993   2.516  19.346  0.00  0.00    +0.000 C 
ATOM     13  C   UNL     1       3.783   1.982  18.124  0.00  0.00    +0.000 C 
ATOM     14  C   UNL     1       4.825   1.698  20.300  0.00  0.00    +0.000 C 
ENDBRANCH  11  12
BRANCH   1  16
ATOM     15  C   UNL     1       0.461   2.505  19.253  0.00  0.00    +0.000 C 
ATOM     16  C   UNL     1       0.940   3.741  19.444  0.00  0.00    +0.000 C 
ENDBRANCH   1  16
BRANCH   5  17
ATOM     17  O   UNL     1       0.832   8.190  21.105  0.00  0.00    +0.000 OA
BRANCH  17  18
ATOM     18  C   UNL     1       1.115   9.237  21.993  0.00  0.00    +0.000 C 
ATOM     19  O   UNL     1       2.043   9.325  22.760  0.00  0.00    +0.000 OA
BRANCH  18  20
ATOM     20  C   UNL     1       0.046  10.272  21.927  0.00  0.00    +0.000 A 
ATOM     21  C   UNL     1      -0.186  11.045  20.796  0.00  0.00    +0.000 A 
ATOM     22  C   UNL     1      -1.222  11.991  20.780  0.00  0.00    +0.000 A 
ATOM     23  C   UNL     1      -2.015  12.169  21.910  0.00  0.00    +0.000 A 
ATOM     24  C   UNL     1      -1.770  11.426  23.070  0.00  0.00    +0.000 A 
ATOM     25  C   UNL     1      -0.731  10.473  23.076  0.00  0.00    +0.000 A 
ENDBRANCH  18  20
ENDBRANCH  17  18
ENDBRANCH   5  17
BRANCH   8  26
ATOM     26  O   UNL     1       4.108   7.005  16.651  0.00  0.00    +0.000 OA
BRANCH  26  27
ATOM     27  C   UNL     1       5.446   6.605  16.803  0.00  0.00    +0.000 C 
ATOM     28  O   UNL     1       6.245   7.062  17.613  0.00  0.00    +0.000 OA
BRANCH  27  29
ATOM     29  C   UNL     1       5.848   5.602  15.769  0.00  0.00    +0.000 A 
ATOM     30  C   UNL     1       7.052   5.769  15.046  0.00  0.00    +0.000 A 
ATOM     31  C   UNL     1       7.359   4.920  13.977  0.00  0.00    +0.000 A 
ATOM     32  C   UNL     1       6.475   3.897  13.624  0.00  0.00    +0.000 A 
ATOM     33  C   UNL     1       5.311   3.704  14.358  0.00  0.00    +0.000 A 
ATOM     34  C   UNL     1       4.999   4.550  15.428  0.00  0.00    +0.000 A 
ENDBRANCH  27  29
ENDBRANCH  26  27
ENDBRANCH   8  26
TORSDOF 8
ENDMDL
MODEL 2
REMARK VINA RESULT:      -9.0      1.734      2.673
REMARK  Name = 
REMARK  10 active torsions:
REMARK  status: ('A' for Active; 'I' for Inactive)
REMARK    1  A    between atoms: C_2  and  C_3
REMARK    2  A    between atoms: C_3  and  C_4
REMARK    3  A    between atoms: C_7  and  O_8
REMARK    4  A    between atoms: O_8  and  C_9
REMARK    5  A    between atoms: C_9  and  C_11
REMARK    6  A    between atoms: C_19  and  O_20
REMARK    7  A    between atoms: O_20  and  C_21
REMARK    8  A    between atoms: C_21  and  C_23
REMARK    9  A    between atoms: C_31  and  C_32
REMARK   10  A    between atoms: C_32  and  C_34
REMARK                            x       y       z     vdW  Elec       q    Type
REMARK                         _______ _______ _______ _____ _____    ______ ____
ROOT
ATOM      1  C   UNL     1       2.510   3.975  20.189  0.00  0.00    +0.000 C 
ATOM      2  C   UNL     1       2.195   3.477  21.609  0.00  0.00    +0.000 C 
ATOM      3  C   UNL     1       2.630   5.541  20.236  0.00  0.00    +0.000 C 
ATOM      4  C   UNL     1       3.108   6.206  18.954  0.00  0.00    +0.000 A 
ATOM      5  C   UNL     1       2.759   7.547  18.661  0.00  0.00    +0.000 A 
ATOM      6  C   UNL     1       3.145   8.135  17.453  0.00  0.00    +0.000 A 
ATOM      7  C   UNL     1       3.880   7.404  16.518  0.00  0.00    +0.000 A 
ATOM      8  C   UNL     1       4.305   6.112  16.819  0.00  0.00    +0.000 A 
ATOM      9  C   UNL     1       3.913   5.491  18.032  0.00  0.00    +0.000 A 
ATOM     10  C   UNL     1       4.243   4.040  18.267  0.00  0.00    +0.000 C 
ATOM     11  C   UNL     1       3.908   3.424  19.659  0.00  0.00    +0.000 C 
ENDROOT
BRANCH  11  12
ATOM     12  C   UNL     1       4.132   1.883  19.627  0.00  0.00    +0.000 C 
ATOM     13  C   UNL     1       3.743   1.068  18.624  0.00  0.00    +0.000 C 
ATOM     14  C   UNL     1       4.905   1.240  20.750  0.00  0.00    +0.000 C 
ENDBRANCH  11  12
BRANCH   1  16
ATOM     15  C   UNL     1       0.581   2.513  19.472  0.00  0.00    +0.000 C 
ATOM     16  C   UNL     1       1.344   3.595  19.272  0.00  0.00    +0.000 C 
ENDBRANCH   1  16
BRANCH   5  17
ATOM     17  O   UNL     1       2.040   8.279  19.660  0.00  0.00    +0.000 OA
BRANCH  17  18
ATOM     18  C   UNL     1       1.020   9.193  19.365  0.00  0.00    +0.000 C 
ATOM     19  O   UNL     1       0.698   9.617  18.281  0.00  0.00    +0.000 OA
BRANCH  18  20
ATOM     20  C   UNL     1       0.369   9.662  20.621  0.00  0.00    +0.000 A 
ATOM     21  C   UNL     1       0.179   8.839  21.724  0.00  0.00    +0.000 A 
ATOM     22  C   UNL     1      -0.420   9.339  22.890  0.00  0.00    +0.000 A 
ATOM     23  C   UNL     1      -0.840  10.665  22.940  0.00  0.00    +0.000 A 
ATOM     24  C   UNL     1      -0.691  11.496  21.824  0.00  0.00    +0.000 A 
ATOM     25  C   UNL     1      -0.083  10.988  20.658  0.00  0.00    +0.000 A 
ENDBRANCH  18  20
ENDBRANCH  17  18
ENDBRANCH   5  17
BRANCH   8  26
ATOM     26  O   UNL     1       5.009   5.374  15.823  0.00  0.00    +0.000 OA
BRANCH  26  27
ATOM     27  C   UNL     1       6.362   5.657  15.574  0.00  0.00    +0.000 C 
ATOM     28  O   UNL     1       6.906   5.657  14.476  0.00  0.00    +0.000 OA
BRANCH  27  29
ATOM     29  C   UNL     1       7.130   5.863  16.841  0.00  0.00    +0.000 A 
ATOM     30  C   UNL     1       7.443   4.762  17.670  0.00  0.00    +0.000 A 
ATOM     31  C   UNL     1       8.027   4.964  18.926  0.00  0.00    +0.000 A 
ATOM     32  C   UNL     1       8.308   6.262  19.362  0.00  0.00    +0.000 A 
ATOM     33  C   UNL     1       8.038   7.344  18.533  0.00  0.00    +0.000 A 
ATOM     34  C   UNL     1       7.455   7.147  17.277  0.00  0.00    +0.000 A 
ENDBRANCH  27  29
ENDBRANCH  26  27
ENDBRANCH   8  26
TORSDOF 8
ENDMDL
MODEL 3
REMARK VINA RESULT:      -8.9      1.739      2.676
REMARK  Name = 
REMARK  10 active torsions:
REMARK  status: ('A' for Active; 'I' for Inactive)
REMARK    1  A    between atoms: C_2  and  C_3
REMARK    2  A    between atoms: C_3  and  C_4
REMARK    3  A    between atoms: C_7  and  O_8
REMARK    4  A    between atoms: O_8  and  C_9
REMARK    5  A    between atoms: C_9  and  C_11
REMARK    6  A    between atoms: C_19  and  O_20
REMARK    7  A    between atoms: O_20  and  C_21
REMARK    8  A    between atoms: C_21  and  C_23
REMARK    9  A    between atoms: C_31  and  C_32
REMARK   10  A    between atoms: C_32  and  C_34
REMARK                            x       y       z     vdW  Elec       q    Type
REMARK                         _______ _______ _______ _____ _____    ______ ____
ROOT
ATOM      1  C   UNL     1       2.573   3.925  20.336  0.00  0.00    +0.000 C 
ATOM      2  C   UNL     1       2.278   3.446  21.767  0.00  0.00    +0.000 C 
ATOM      3  C   UNL     1       2.648   5.494  20.352  0.00  0.00    +0.000 C 
ATOM      4  C   UNL     1       3.102   6.146  19.055  0.00  0.00    +0.000 A 
ATOM      5  C   UNL     1       2.713   7.471  18.737  0.00  0.00    +0.000 A 
ATOM      6  C   UNL     1       3.078   8.045  17.516  0.00  0.00    +0.000 A 
ATOM      7  C   UNL     1       3.828   7.317  16.592  0.00  0.00    +0.000 A 
ATOM      8  C   UNL     1       4.291   6.044  16.916  0.00  0.00    +0.000 A 
ATOM      9  C   UNL     1       3.922   5.437  18.143  0.00  0.00    +0.000 A 
ATOM     10  C   UNL     1       4.295   4.000  18.405  0.00  0.00    +0.000 C 
ATOM     11  C   UNL     1       3.983   3.402  19.810  0.00  0.00    +0.000 C 
ENDROOT
BRANCH  11  12
ATOM     12  C   UNL     1       4.250   1.868  19.807  0.00  0.00    +0.000 C 
ATOM     13  C   UNL     1       4.879   1.192  20.791  0.00  0.00    +0.000 C 
ATOM     14  C   UNL     1       3.712   1.041  18.667  0.00  0.00    +0.000 C 
ENDBRANCH  11  12
BRANCH   1  16
ATOM     15  C   UNL     1       0.547   2.528  19.767  0.00  0.00    +0.000 C 
ATOM     16  C   UNL     1       1.413   3.494  19.433  0.00  0.00    +0.000 C 
ENDBRANCH   1  16
BRANCH   5  17
ATOM     17  O   UNL     1       1.979   8.202  19.725  0.00  0.00    +0.000 OA
BRANCH  17  18
ATOM     18  C   UNL     1       1.065   9.217  19.416  0.00  0.00    +0.000 C 
ATOM     19  O   UNL     1       0.836   9.701  18.333  0.00  0.00    +0.000 OA
BRANCH  18  20
ATOM     20  C   UNL     1       0.404   9.712  20.655  0.00  0.00    +0.000 A 
ATOM     21  C   UNL     1      -0.362  10.872  20.689  0.00  0.00    +0.000 A 
ATOM     22  C   UNL     1      -0.982  11.281  21.879  0.00  0.00    +0.000 A 
ATOM     23  C   UNL     1      -0.819  10.530  23.040  0.00  0.00    +0.000 A 
ATOM     24  C   UNL     1      -0.019   9.381  23.032  0.00  0.00    +0.000 A 
ATOM     25  C   UNL     1       0.595   8.973  21.830  0.00  0.00    +0.000 A 
ENDBRANCH  18  20
ENDBRANCH  17  18
ENDBRANCH   5  17
BRANCH   8  26
ATOM     26  O   UNL     1       5.012   5.306  15.931  0.00  0.00    +0.000 OA
BRANCH  26  27
ATOM     27  C   UNL     1       6.345   5.644  15.646  0.00  0.00    +0.000 C 
ATOM     28  O   UNL     1       6.860   5.660  14.534  0.00  0.00    +0.000 OA
BRANCH  27  29
ATOM     29  C   UNL     1       7.135   5.891  16.891  0.00  0.00    +0.000 A 
ATOM     30  C   UNL     1       7.466   4.817  17.749  0.00  0.00    +0.000 A 
ATOM     31  C   UNL     1       8.071   5.060  18.988  0.00  0.00    +0.000 A 
ATOM     32  C   UNL     1       8.357   6.371  19.377  0.00  0.00    +0.000 A 
ATOM     33  C   UNL     1       8.070   7.426  18.520  0.00  0.00    +0.000 A 
ATOM     34  C   UNL     1       7.465   7.189  17.281  0.00  0.00    +0.000 A 
ENDBRANCH  27  29
ENDBRANCH  26  27
ENDBRANCH   8  26
TORSDOF 8
ENDMDL
MODEL 4
REMARK VINA RESULT:      -8.7      0.165      1.321
REMARK  Name = 
REMARK  10 active torsions:
REMARK  status: ('A' for Active; 'I' for Inactive)
REMARK    1  A    between atoms: C_2  and  C_3
REMARK    2  A    between atoms: C_3  and  C_4
REMARK    3  A    between atoms: C_7  and  O_8
REMARK    4  A    between atoms: O_8  and  C_9
REMARK    5  A    between atoms: C_9  and  C_11
REMARK    6  A    between atoms: C_19  and  O_20
REMARK    7  A    between atoms: O_20  and  C_21
REMARK    8  A    between atoms: C_21  and  C_23
REMARK    9  A    between atoms: C_31  and  C_32
REMARK   10  A    between atoms: C_32  and  C_34
REMARK                            x       y       z     vdW  Elec       q    Type
REMARK                         _______ _______ _______ _____ _____    ______ ____
ROOT
ATOM      1  C   UNL     1       2.098   4.160  20.478  0.00  0.00    +0.000 C 
ATOM      2  C   UNL     1       1.990   3.256  21.718  0.00  0.00    +0.000 C 
ATOM      3  C   UNL     1       1.921   5.650  20.943  0.00  0.00    +0.000 C 
ATOM      4  C   UNL     1       2.168   6.708  19.878  0.00  0.00    +0.000 A 
ATOM      5  C   UNL     1       1.549   7.979  19.965  0.00  0.00    +0.000 A 
ATOM      6  C   UNL     1       1.726   8.927  18.952  0.00  0.00    +0.000 A 
ATOM      7  C   UNL     1       2.514   8.628  17.840  0.00  0.00    +0.000 A 
ATOM      8  C   UNL     1       3.198   7.417  17.773  0.00  0.00    +0.000 A 
ATOM      9  C   UNL     1       3.023   6.436  18.781  0.00  0.00    +0.000 A 
ATOM     10  C   UNL     1       3.639   5.072  18.610  0.00  0.00    +0.000 C 
ATOM     11  C   UNL     1       3.531   4.061  19.790  0.00  0.00    +0.000 C 
ENDROOT
BRANCH  11  12
ATOM     12  C   UNL     1       4.041   2.660  19.339  0.00  0.00    +0.000 C 
ATOM     13  C   UNL     1       4.693   1.784  20.132  0.00  0.00    +0.000 C 
ATOM     14  C   UNL     1       3.731   2.192  17.940  0.00  0.00    +0.000 C 
ENDBRANCH  11  12
BRANCH   1  16
ATOM     15  C   UNL     1       0.472   2.561  19.393  0.00  0.00    +0.000 C 
ATOM     16  C   UNL     1       0.960   3.803  19.518  0.00  0.00    +0.000 C 
ENDBRANCH   1  16
BRANCH   5  17
ATOM     17  O   UNL     1       0.781   8.265  21.139  0.00  0.00    +0.000 OA
BRANCH  17  18
ATOM     18  C   UNL     1       1.074   9.315  22.019  0.00  0.00    +0.000 C 
ATOM     19  O   UNL     1       2.039   9.430  22.737  0.00  0.00    +0.000 OA
BRANCH  18  20
ATOM     20  C   UNL     1      -0.032  10.312  22.020  0.00  0.00    +0.000 A 
ATOM     21  C   UNL     1      -0.823  10.559  23.136  0.00  0.00    +0.000 A 
ATOM     22  C   UNL     1      -1.839  11.525  23.089  0.00  0.00    +0.000 A 
ATOM     23  C   UNL     1      -2.068  12.234  21.913  0.00  0.00    +0.000 A 
ATOM     24  C   UNL     1      -1.307  11.970  20.769  0.00  0.00    +0.000 A 
ATOM     25  C   UNL     1      -0.283  11.001  20.826  0.00  0.00    +0.000 A 
ENDBRANCH  18  20
ENDBRANCH  17  18
ENDBRANCH   5  17
BRANCH   8  26
ATOM     26  O   UNL     1       3.953   7.122  16.600  0.00  0.00    +0.000 OA
BRANCH  26  27
ATOM     27  C   UNL     1       5.306   6.763  16.715  0.00  0.00    +0.000 C 
ATOM     28  O   UNL     1       6.106   7.222  17.522  0.00  0.00    +0.000 OA
BRANCH  27  29
ATOM     29  C   UNL     1       5.720   5.802  15.646  0.00  0.00    +0.000 A 
ATOM     30  C   UNL     1       4.881   4.719  15.299  0.00  0.00    +0.000 A 
ATOM     31  C   UNL     1       5.327   3.733  14.410  0.00  0.00    +0.000 A 
ATOM     32  C   UNL     1       6.606   3.824  13.855  0.00  0.00    +0.000 A 
ATOM     33  C   UNL     1       7.418   4.909  14.162  0.00  0.00    +0.000 A 
ATOM     34  C   UNL     1       6.977   5.896  15.050  0.00  0.00    +0.000 A 
ENDBRANCH  27  29
ENDBRANCH  26  27
ENDBRANCH   8  26
TORSDOF 8
ENDMDL
MODEL 5
REMARK VINA RESULT:      -8.6      1.760      8.418
REMARK  Name = 
REMARK  10 active torsions:
REMARK  status: ('A' for Active; 'I' for Inactive)
REMARK    1  A    between atoms: C_2  and  C_3
REMARK    2  A    between atoms: C_3  and  C_4
REMARK    3  A    between atoms: C_7  and  O_8
REMARK    4  A    between atoms: O_8  and  C_9
REMARK    5  A    between atoms: C_9  and  C_11
REMARK    6  A    between atoms: C_19  and  O_20
REMARK    7  A    between atoms: O_20  and  C_21
REMARK    8  A    between atoms: C_21  and  C_23
REMARK    9  A    between atoms: C_31  and  C_32
REMARK   10  A    between atoms: C_32  and  C_34
REMARK                            x       y       z     vdW  Elec       q    Type
REMARK                         _______ _______ _______ _____ _____    ______ ____
ROOT
ATOM      1  C   UNL     1       3.540   2.817  18.389  0.00  0.00    +0.000 C 
ATOM      2  C   UNL     1       3.124   1.345  18.226  0.00  0.00    +0.000 C 
ATOM      3  C   UNL     1       4.214   3.286  17.050  0.00  0.00    +0.000 C 
ATOM      4  C   UNL     1       4.538   4.769  16.958  0.00  0.00    +0.000 A 
ATOM      5  C   UNL     1       5.582   5.230  16.118  0.00  0.00    +0.000 A 
ATOM      6  C   UNL     1       5.921   6.586  16.084  0.00  0.00    +0.000 A 
ATOM      7  C   UNL     1       5.235   7.503  16.881  0.00  0.00    +0.000 A 
ATOM      8  C   UNL     1       4.152   7.086  17.652  0.00  0.00    +0.000 A 
ATOM      9  C   UNL     1       3.799   5.714  17.712  0.00  0.00    +0.000 A 
ATOM     10  C   UNL     1       2.733   5.260  18.676  0.00  0.00    +0.000 C 
ATOM     11  C   UNL     1       2.285   3.768  18.629  0.00  0.00    +0.000 C 
ENDROOT
BRANCH  11  12
ATOM     12  C   UNL     1       1.339   3.460  19.828  0.00  0.00    +0.000 C 
ATOM     13  C   UNL     1       0.342   2.551  19.809  0.00  0.00    +0.000 C 
ATOM     14  C   UNL     1       1.582   4.160  21.140  0.00  0.00    +0.000 C 
ENDBRANCH  11  12
BRANCH   1  16
ATOM     15  C   UNL     1       4.714   1.958  20.453  0.00  0.00    +0.000 C 
ATOM     16  C   UNL     1       4.569   2.907  19.519  0.00  0.00    +0.000 C 
ENDBRANCH   1  16
BRANCH   5  17
ATOM     17  O   UNL     1       6.236   4.268  15.284  0.00  0.00    +0.000 OA
BRANCH  17  18
ATOM     18  C   UNL     1       6.861   4.591  14.072  0.00  0.00    +0.000 C 
ATOM     19  O   UNL     1       7.711   5.427  13.879  0.00  0.00    +0.000 OA
BRANCH  18  20
ATOM     20  C   UNL     1       6.284   3.782  12.962  0.00  0.00    +0.000 A 
ATOM     21  C   UNL     1       7.048   2.920  12.184  0.00  0.00    +0.000 A 
ATOM     22  C   UNL     1       6.450   2.164  11.164  0.00  0.00    +0.000 A 
ATOM     23  C   UNL     1       5.085   2.286  10.920  0.00  0.00    +0.000 A 
ATOM     24  C   UNL     1       4.309   3.178  11.669  0.00  0.00    +0.000 A 
ATOM     25  C   UNL     1       4.917   3.930  12.696  0.00  0.00    +0.000 A 
ENDBRANCH  18  20
ENDBRANCH  17  18
ENDBRANCH   5  17
BRANCH   8  26
ATOM     26  O   UNL     1       3.505   8.037  18.495  0.00  0.00    +0.000 OA
BRANCH  26  27
ATOM     27  C   UNL     1       2.310   8.641  18.072  0.00  0.00    +0.000 C 
ATOM     28  O   UNL     1       2.054   9.009  16.932  0.00  0.00    +0.000 OA
BRANCH  27  29
ATOM     29  C   UNL     1       1.381   8.897  19.217  0.00  0.00    +0.000 A 
ATOM     30  C   UNL     1       0.359   9.867  19.100  0.00  0.00    +0.000 A 
ATOM     31  C   UNL     1      -0.414  10.218  20.213  0.00  0.00    +0.000 A 
ATOM     32  C   UNL     1      -0.179   9.604  21.446  0.00  0.00    +0.000 A 
ATOM     33  C   UNL     1       0.797   8.622  21.555  0.00  0.00    +0.000 A 
ATOM     34  C   UNL     1       1.573   8.267  20.446  0.00  0.00    +0.000 A 
ENDBRANCH  27  29
ENDBRANCH  26  27
ENDBRANCH   8  26
TORSDOF 8
ENDMDL
MODEL 6
REMARK VINA RESULT:      -8.6      1.782      8.396
REMARK  Name = 
REMARK  10 active torsions:
REMARK  status: ('A' for Active; 'I' for Inactive)
REMARK    1  A    between atoms: C_2  and  C_3
REMARK    2  A    between atoms: C_3  and  C_4
REMARK    3  A    between atoms: C_7  and  O_8
REMARK    4  A    between atoms: O_8  and  C_9
REMARK    5  A    between atoms: C_9  and  C_11
REMARK    6  A    between atoms: C_19  and  O_20
REMARK    7  A    between atoms: O_20  and  C_21
REMARK    8  A    between atoms: C_21  and  C_23
REMARK    9  A    between atoms: C_31  and  C_32
REMARK   10  A    between atoms: C_32  and  C_34
REMARK                            x       y       z     vdW  Elec       q    Type
REMARK                         _______ _______ _______ _____ _____    ______ ____
ROOT
ATOM      1  C   UNL     1       3.639   2.873  18.221  0.00  0.00    +0.000 C 
ATOM      2  C   UNL     1       3.228   1.410  17.983  0.00  0.00    +0.000 C 
ATOM      3  C   UNL     1       4.405   3.379  16.947  0.00  0.00    +0.000 C 
ATOM      4  C   UNL     1       4.743   4.862  16.925  0.00  0.00    +0.000 A 
ATOM      5  C   UNL     1       5.844   5.342  16.174  0.00  0.00    +0.000 A 
ATOM      6  C   UNL     1       6.192   6.696  16.207  0.00  0.00    +0.000 A 
ATOM      7  C   UNL     1       5.456   7.592  16.985  0.00  0.00    +0.000 A 
ATOM      8  C   UNL     1       4.321   7.158  17.666  0.00  0.00    +0.000 A 
ATOM      9  C   UNL     1       3.959   5.788  17.658  0.00  0.00    +0.000 A 
ATOM     10  C   UNL     1       2.827   5.311  18.530  0.00  0.00    +0.000 C 
ATOM     11  C   UNL     1       2.375   3.825  18.405  0.00  0.00    +0.000 C 
ENDROOT
BRANCH  11  12
ATOM     12  C   UNL     1       1.348   3.485  19.525  0.00  0.00    +0.000 C 
ATOM     13  C   UNL     1       1.230   4.153  20.693  0.00  0.00    +0.000 C 
ATOM     14  C   UNL     1       0.350   2.382  19.283  0.00  0.00    +0.000 C 
ENDBRANCH  11  12
BRANCH   1  16
ATOM     15  C   UNL     1       4.602   1.984  20.379  0.00  0.00    +0.000 C 
ATOM     16  C   UNL     1       4.588   2.920  19.422  0.00  0.00    +0.000 C 
ENDBRANCH   1  16
BRANCH   5  17
ATOM     17  O   UNL     1       6.550   4.402  15.357  0.00  0.00    +0.000 OA
BRANCH  17  18
ATOM     18  C   UNL     1       7.075   4.714  14.096  0.00  0.00    +0.000 C 
ATOM     19  O   UNL     1       7.898   5.556  13.826  0.00  0.00    +0.000 OA
BRANCH  18  20
ATOM     20  C   UNL     1       6.423   3.884  13.045  0.00  0.00    +0.000 A 
ATOM     21  C   UNL     1       7.136   3.035  12.207  0.00  0.00    +0.000 A 
ATOM     22  C   UNL     1       6.470   2.257  11.248  0.00  0.00    +0.000 A 
ATOM     23  C   UNL     1       5.086   2.345  11.124  0.00  0.00    +0.000 A 
ATOM     24  C   UNL     1       4.358   3.223  11.934  0.00  0.00    +0.000 A 
ATOM     25  C   UNL     1       5.034   3.997  12.899  0.00  0.00    +0.000 A 
ENDBRANCH  18  20
ENDBRANCH  17  18
ENDBRANCH   5  17
BRANCH   8  26
ATOM     26  O   UNL     1       3.623   8.087  18.492  0.00  0.00    +0.000 OA
BRANCH  26  27
ATOM     27  C   UNL     1       2.383   8.596  18.072  0.00  0.00    +0.000 C 
ATOM     28  O   UNL     1       2.064   8.850  16.917  0.00  0.00    +0.000 OA
BRANCH  27  29
ATOM     29  C   UNL     1       1.490   8.911  19.230  0.00  0.00    +0.000 A 
ATOM     30  C   UNL     1       1.581   8.158  20.423  0.00  0.00    +0.000 A 
ATOM     31  C   UNL     1       0.650   8.346  21.452  0.00  0.00    +0.000 A 
ATOM     32  C   UNL     1      -0.372   9.287  21.303  0.00  0.00    +0.000 A 
ATOM     33  C   UNL     1      -0.440  10.058  20.149  0.00  0.00    +0.000 A 
ATOM     34  C   UNL     1       0.488   9.874  19.118  0.00  0.00    +0.000 A 
ENDBRANCH  27  29
ENDBRANCH  26  27
ENDBRANCH   8  26
TORSDOF 8
ENDMDL
MODEL 7
REMARK VINA RESULT:      -8.6      1.751      8.410
REMARK  Name = 
REMARK  10 active torsions:
REMARK  status: ('A' for Active; 'I' for Inactive)
REMARK    1  A    between atoms: C_2  and  C_3
REMARK    2  A    between atoms: C_3  and  C_4
REMARK    3  A    between atoms: C_7  and  O_8
REMARK    4  A    between atoms: O_8  and  C_9
REMARK    5  A    between atoms: C_9  and  C_11
REMARK    6  A    between atoms: C_19  and  O_20
REMARK    7  A    between atoms: O_20  and  C_21
REMARK    8  A    between atoms: C_21  and  C_23
REMARK    9  A    between atoms: C_31  and  C_32
REMARK   10  A    between atoms: C_32  and  C_34
REMARK                            x       y       z     vdW  Elec       q    Type
REMARK                         _______ _______ _______ _____ _____    ______ ____
ROOT
ATOM      1  C   UNL     1       3.639   2.880  18.260  0.00  0.00    +0.000 C 
ATOM      2  C   UNL     1       3.237   1.414  18.029  0.00  0.00    +0.000 C 
ATOM      3  C   UNL     1       4.395   3.386  16.979  0.00  0.00    +0.000 C 
ATOM      4  C   UNL     1       4.722   4.872  16.950  0.00  0.00    +0.000 A 
ATOM      5  C   UNL     1       5.815   5.356  16.191  0.00  0.00    +0.000 A 
ATOM      6  C   UNL     1       6.154   6.713  16.217  0.00  0.00    +0.000 A 
ATOM      7  C   UNL     1       5.416   7.607  16.995  0.00  0.00    +0.000 A 
ATOM      8  C   UNL     1       4.288   7.168  17.684  0.00  0.00    +0.000 A 
ATOM      9  C   UNL     1       3.935   5.795  17.683  0.00  0.00    +0.000 A 
ATOM     10  C   UNL     1       2.811   5.314  18.564  0.00  0.00    +0.000 C 
ATOM     11  C   UNL     1       2.369   3.824  18.447  0.00  0.00    +0.000 C 
ENDROOT
BRANCH  11  12
ATOM     12  C   UNL     1       1.350   3.481  19.574  0.00  0.00    +0.000 C 
ATOM     13  C   UNL     1       0.390   2.537  19.485  0.00  0.00    +0.000 C 
ATOM     14  C   UNL     1       1.471   4.190  20.899  0.00  0.00    +0.000 C 
ENDBRANCH  11  12
BRANCH   1  16
ATOM     15  C   UNL     1       4.598   2.023  20.432  0.00  0.00    +0.000 C 
ATOM     16  C   UNL     1       4.594   2.939  19.455  0.00  0.00    +0.000 C 
ENDBRANCH   1  16
BRANCH   5  17
ATOM     17  O   UNL     1       6.523   4.418  15.373  0.00  0.00    +0.000 OA
BRANCH  17  18
ATOM     18  C   UNL     1       7.027   4.725  14.103  0.00  0.00    +0.000 C 
ATOM     19  O   UNL     1       7.856   5.556  13.817  0.00  0.00    +0.000 OA
BRANCH  18  20
ATOM     20  C   UNL     1       6.343   3.905  13.064  0.00  0.00    +0.000 A 
ATOM     21  C   UNL     1       4.970   3.947  12.855  0.00  0.00    +0.000 A 
ATOM     22  C   UNL     1       4.380   3.169  11.847  0.00  0.00    +0.000 A 
ATOM     23  C   UNL     1       5.171   2.338  11.060  0.00  0.00    +0.000 A 
ATOM     24  C   UNL     1       6.550   2.254  11.283  0.00  0.00    +0.000 A 
ATOM     25  C   UNL     1       7.136   3.044  12.294  0.00  0.00    +0.000 A 
ENDBRANCH  18  20
ENDBRANCH  17  18
ENDBRANCH   5  17
BRANCH   8  26
ATOM     26  O   UNL     1       3.587   8.095  18.510  0.00  0.00    +0.000 OA
BRANCH  26  27
ATOM     27  C   UNL     1       2.345   8.599  18.092  0.00  0.00    +0.000 C 
ATOM     28  O   UNL     1       2.013   8.824  16.934  0.00  0.00    +0.000 OA
BRANCH  27  29
ATOM     29  C   UNL     1       1.467   8.948  19.252  0.00  0.00    +0.000 A 
ATOM     30  C   UNL     1       1.494   8.162  20.426  0.00  0.00    +0.000 A 
ATOM     31  C   UNL     1       0.571   8.391  21.454  0.00  0.00    +0.000 A 
ATOM     32  C   UNL     1      -0.379   9.407  21.322  0.00  0.00    +0.000 A 
ATOM     33  C   UNL     1      -0.382  10.208  20.186  0.00  0.00    +0.000 A 
ATOM     34  C   UNL     1       0.538   9.983  19.157  0.00  0.00    +0.000 A 
ENDBRANCH  27  29
ENDBRANCH  26  27
ENDBRANCH   8  26
TORSDOF 8
ENDMDL
MODEL 8
REMARK VINA RESULT:      -8.4      1.294      2.188
REMARK  Name = 
REMARK  10 active torsions:
REMARK  status: ('A' for Active; 'I' for Inactive)
REMARK    1  A    between atoms: C_2  and  C_3
REMARK    2  A    between atoms: C_3  and  C_4
REMARK    3  A    between atoms: C_7  and  O_8
REMARK    4  A    between atoms: O_8  and  C_9
REMARK    5  A    between atoms: C_9  and  C_11
REMARK    6  A    between atoms: C_19  and  O_20
REMARK    7  A    between atoms: O_20  and  C_21
REMARK    8  A    between atoms: C_21  and  C_23
REMARK    9  A    between atoms: C_31  and  C_32
REMARK   10  A    between atoms: C_32  and  C_34
REMARK                            x       y       z     vdW  Elec       q    Type
REMARK                         _______ _______ _______ _____ _____    ______ ____
ROOT
ATOM      1  C   UNL     1       2.082   3.986  20.482  0.00  0.00    +0.000 C 
ATOM      2  C   UNL     1       1.935   3.097  21.728  0.00  0.00    +0.000 C 
ATOM      3  C   UNL     1       1.951   5.485  20.935  0.00  0.00    +0.000 C 
ATOM      4  C   UNL     1       2.241   6.526  19.864  0.00  0.00    +0.000 A 
ATOM      5  C   UNL     1       1.665   7.817  19.936  0.00  0.00    +0.000 A 
ATOM      6  C   UNL     1       1.880   8.750  18.917  0.00  0.00    +0.000 A 
ATOM      7  C   UNL     1       2.667   8.418  17.814  0.00  0.00    +0.000 A 
ATOM      8  C   UNL     1       3.311   7.183  17.761  0.00  0.00    +0.000 A 
ATOM      9  C   UNL     1       3.095   6.217  18.776  0.00  0.00    +0.000 A 
ATOM     10  C   UNL     1       3.668   4.832  18.620  0.00  0.00    +0.000 C 
ATOM     11  C   UNL     1       3.517   3.834  19.807  0.00  0.00    +0.000 C 
ENDROOT
BRANCH  11  12
ATOM     12  C   UNL     1       3.984   2.414  19.371  0.00  0.00    +0.000 C 
ATOM     13  C   UNL     1       4.647   1.543  20.160  0.00  0.00    +0.000 C 
ATOM     14  C   UNL     1       3.615   1.921  17.994  0.00  0.00    +0.000 C 
ENDBRANCH  11  12
BRANCH   1  16
ATOM     15  C   UNL     1       0.537   2.408  19.259  0.00  0.00    +0.000 C 
ATOM     16  C   UNL     1       0.941   3.659  19.516  0.00  0.00    +0.000 C 
ENDBRANCH   1  16
BRANCH   5  17
ATOM     17  O   UNL     1       0.897   8.137  21.102  0.00  0.00    +0.000 OA
BRANCH  17  18
ATOM     18  C   UNL     1       1.199   9.204  21.958  0.00  0.00    +0.000 C 
ATOM     19  O   UNL     1       2.155   9.317  22.689  0.00  0.00    +0.000 OA
BRANCH  18  20
ATOM     20  C   UNL     1       0.116  10.225  21.914  0.00  0.00    +0.000 A 
ATOM     21  C   UNL     1      -0.151  10.992  20.786  0.00  0.00    +0.000 A 
ATOM     22  C   UNL     1      -1.199  11.925  20.792  0.00  0.00    +0.000 A 
ATOM     23  C   UNL     1      -1.970  12.095  21.938  0.00  0.00    +0.000 A 
ATOM     24  C   UNL     1      -1.691  11.358  23.094  0.00  0.00    +0.000 A 
ATOM     25  C   UNL     1      -0.639  10.418  23.079  0.00  0.00    +0.000 A 
ENDBRANCH  18  20
ENDBRANCH  17  18
ENDBRANCH   5  17
BRANCH   8  26
ATOM     26  O   UNL     1       4.065   6.854  16.597  0.00  0.00    +0.000 OA
BRANCH  26  27
ATOM     27  C   UNL     1       5.095   5.903  16.681  0.00  0.00    +0.000 C 
ATOM     28  O   UNL     1       5.012   4.724  16.360  0.00  0.00    +0.000 OA
BRANCH  27  29
ATOM     29  C   UNL     1       6.322   6.467  17.324  0.00  0.00    +0.000 A 
ATOM     30  C   UNL     1       7.000   5.736  18.326  0.00  0.00    +0.000 A 
ATOM     31  C   UNL     1       8.056   6.319  19.037  0.00  0.00    +0.000 A 
ATOM     32  C   UNL     1       8.448   7.629  18.751  0.00  0.00    +0.000 A 
ATOM     33  C   UNL     1       7.811   8.336  17.739  0.00  0.00    +0.000 A 
ATOM     34  C   UNL     1       6.755   7.758  17.026  0.00  0.00    +0.000 A 
ENDBRANCH  27  29
ENDBRANCH  26  27
ENDBRANCH   8  26
TORSDOF 8
ENDMDL
MODEL 9
REMARK VINA RESULT:      -8.4      1.851      7.582
REMARK  Name = 
REMARK  10 active torsions:
REMARK  status: ('A' for Active; 'I' for Inactive)
REMARK    1  A    between atoms: C_2  and  C_3
REMARK    2  A    between atoms: C_3  and  C_4
REMARK    3  A    between atoms: C_7  and  O_8
REMARK    4  A    between atoms: O_8  and  C_9
REMARK    5  A    between atoms: C_9  and  C_11
REMARK    6  A    between atoms: C_19  and  O_20
REMARK    7  A    between atoms: O_20  and  C_21
REMARK    8  A    between atoms: C_21  and  C_23
REMARK    9  A    between atoms: C_31  and  C_32
REMARK   10  A    between atoms: C_32  and  C_34
REMARK                            x       y       z     vdW  Elec       q    Type
REMARK                         _______ _______ _______ _____ _____    ______ ____
ROOT
ATOM      1  C   UNL     1       3.447   2.980  18.291  0.00  0.00    +0.000 C 
ATOM      2  C   UNL     1       3.419   1.498  17.881  0.00  0.00    +0.000 C 
ATOM      3  C   UNL     1       3.846   3.827  17.030  0.00  0.00    +0.000 C 
ATOM      4  C   UNL     1       3.760   5.337  17.195  0.00  0.00    +0.000 A 
ATOM      5  C   UNL     1       4.563   6.198  16.407  0.00  0.00    +0.000 A 
ATOM      6  C   UNL     1       4.529   7.581  16.605  0.00  0.00    +0.000 A 
ATOM      7  C   UNL     1       3.704   8.131  17.587  0.00  0.00    +0.000 A 
ATOM      8  C   UNL     1       2.845   7.313  18.317  0.00  0.00    +0.000 A 
ATOM      9  C   UNL     1       2.873   5.906  18.142  0.00  0.00    +0.000 A 
ATOM     10  C   UNL     1       2.058   5.026  19.054  0.00  0.00    +0.000 C 
ATOM     11  C   UNL     1       2.014   3.497  18.757  0.00  0.00    +0.000 C 
ENDROOT
BRANCH  11  12
ATOM     12  C   UNL     1       1.299   2.749  19.921  0.00  0.00    +0.000 C 
ATOM     13  C   UNL     1       0.547   1.637  19.777  0.00  0.00    +0.000 C 
ATOM     14  C   UNL     1       1.507   3.237  21.332  0.00  0.00    +0.000 C 
ENDBRANCH  11  12
BRANCH   1  16
ATOM     15  C   UNL     1       4.857   2.198  20.234  0.00  0.00    +0.000 C 
ATOM     16  C   UNL     1       4.517   3.164  19.370  0.00  0.00    +0.000 C 
ENDBRANCH   1  16
BRANCH   5  17
ATOM     17  O   UNL     1       5.366   5.602  15.383  0.00  0.00    +0.000 OA
BRANCH  17  18
ATOM     18  C   UNL     1       6.767   5.610  15.395  0.00  0.00    +0.000 C 
ATOM     19  O   UNL     1       7.516   5.440  14.463  0.00  0.00    +0.000 OA
BRANCH  18  20
ATOM     20  C   UNL     1       7.270   5.805  16.784  0.00  0.00    +0.000 A 
ATOM     21  C   UNL     1       7.633   7.049  17.286  0.00  0.00    +0.000 A 
ATOM     22  C   UNL     1       8.079   7.180  18.610  0.00  0.00    +0.000 A 
ATOM     23  C   UNL     1       8.173   6.056  19.424  0.00  0.00    +0.000 A 
ATOM     24  C   UNL     1       7.849   4.790  18.922  0.00  0.00    +0.000 A 
ATOM     25  C   UNL     1       7.395   4.668  17.593  0.00  0.00    +0.000 A 
ENDBRANCH  18  20
ENDBRANCH  17  18
ENDBRANCH   5  17
BRANCH   8  26
ATOM     26  O   UNL     1       2.053   7.899  19.348  0.00  0.00    +0.000 OA
BRANCH  26  27
ATOM     27  C   UNL     1       1.264   9.025  19.063  0.00  0.00    +0.000 C 
ATOM     28  O   UNL     1       1.118   9.541  17.961  0.00  0.00    +0.000 OA
BRANCH  27  29
ATOM     29  C   UNL     1       0.680   9.623  20.303  0.00  0.00    +0.000 A 
ATOM     30  C   UNL     1       0.840   8.975  21.549  0.00  0.00    +0.000 A 
ATOM     31  C   UNL     1       0.171   9.446  22.685  0.00  0.00    +0.000 A 
ATOM     32  C   UNL     1      -0.656  10.569  22.589  0.00  0.00    +0.000 A 
ATOM     33  C   UNL     1      -0.784  11.233  21.375  0.00  0.00    +0.000 A 
ATOM     34  C   UNL     1      -0.117  10.765  20.238  0.00  0.00    +0.000 A 
ENDBRANCH  27  29
ENDBRANCH  26  27
ENDBRANCH   8  26
TORSDOF 8
ENDMDL
