MODEL 1
REMARK VINA RESULT:      -9.1      0.000      0.000
REMARK  Name = 
REMARK  6 active torsions:
REMARK  status: ('A' for Active; 'I' for Inactive)
REMARK    1  A    between atoms: C_1  and  N_2
REMARK    2  A    between atoms: N_12  and  C_13
REMARK    3  A    between atoms: C_13  and  C_14
REMARK    4  A    between atoms: C_14  and  C_15
REMARK    5  A    between atoms: N_21  and  C_22
REMARK    6  A    between atoms: C_22  and  C_23
REMARK                            x       y       z     vdW  Elec       q    Type
REMARK                         _______ _______ _______ _____ _____    ______ ____
ROOT
ATOM      1  C   UNL     1       7.399   7.269  17.287  0.00  0.00    +0.000 C 
ATOM      2  N   UNL     1       6.506   6.132  17.398  0.00  0.00    +0.000 N 
ATOM      3  C   UNL     1       7.004   4.835  17.335  0.00  0.00    +0.000 A 
ATOM      4  O   UNL     1       8.197   4.555  17.228  0.00  0.00    +0.000 OA
ATOM      5  N   UNL     1       6.082   3.805  17.377  0.00  0.00    +0.000 N 
ATOM      6  C   UNL     1       4.714   3.923  17.296  0.00  0.00    +0.000 A 
ATOM      7  O   UNL     1       3.988   2.959  17.087  0.00  0.00    +0.000 OA
ATOM      8  C   UNL     1       4.275   5.268  17.437  0.00  0.00    +0.000 A 
ATOM      9  C   UNL     1       5.143   6.317  17.487  0.00  0.00    +0.000 A 
ATOM     10  N   UNL     1       4.493   7.503  17.603  0.00  0.00    +0.000 NA
ATOM     11  C   UNL     1       3.209   7.206  17.587  0.00  0.00    +0.000 A 
ATOM     12  N   UNL     1       2.172   8.075  17.594  0.00  0.00    +0.000 N 
ATOM     13  N   UNL     1       3.026   5.831  17.536  0.00  0.00    +0.000 N 
ATOM     14  H   UNL     1       6.461   2.878  17.268  0.00  0.00    +0.000 HD
ATOM     15  H   UNL     1       1.221   7.736  17.488  0.00  0.00    +0.000 HD
ENDROOT
BRANCH  12  16
ATOM     16  C   UNL     1       2.264   9.330  18.345  0.00  0.00    +0.000 C 
BRANCH  16  17
ATOM     17  C   UNL     1       0.916  10.010  18.617  0.00  0.00    +0.000 C 
BRANCH  17  18
ATOM     18  C   UNL     1       0.521   9.917  20.078  0.00  0.00    +0.000 A 
ATOM     19  C   UNL     1      -0.279  10.910  20.662  0.00  0.00    +0.000 A 
ATOM     20  C   UNL     1      -0.642  10.831  22.012  0.00  0.00    +0.000 A 
ATOM     21  C   UNL     1      -0.202   9.760  22.791  0.00  0.00    +0.000 A 
ATOM     22  C   UNL     1       0.603   8.774  22.222  0.00  0.00    +0.000 A 
ATOM     23  C   UNL     1       0.962   8.852  20.872  0.00  0.00    +0.000 A 
ENDBRANCH  17  18
ENDBRANCH  16  17
ENDBRANCH  12  16
BRANCH  13  24
ATOM     24  C   UNL     1       1.796   5.096  17.799  0.00  0.00    +0.000 C 
BRANCH  24  25
ATOM     25  C   UNL     1       1.778   4.282  19.074  0.00  0.00    +0.000 A 
ATOM     26  C   UNL     1       2.231   4.785  20.306  0.00  0.00    +0.000 A 
ATOM     27  C   UNL     1       2.058   4.053  21.483  0.00  0.00    +0.000 A 
ATOM     28  C   UNL     1       1.428   2.818  21.440  0.00  0.00    +0.000 A 
ATOM     29  F   UNL     1       1.234   2.134  22.575  0.00  0.00    +0.000 F 
ATOM     30  C   UNL     1       0.980   2.291  20.237  0.00  0.00    +0.000 A 
ATOM     31  C   UNL     1       1.151   3.020  19.057  0.00  0.00    +0.000 A 
ENDBRANCH  24  25
ENDBRANCH  13  24
TORSDOF 5
ENDMDL
MODEL 2
REMARK VINA RESULT:      -9.1      0.293      1.296
REMARK  Name = 
REMARK  6 active torsions:
REMARK  status: ('A' for Active; 'I' for Inactive)
REMARK    1  A    between atoms: C_1  and  N_2
REMARK    2  A    between atoms: N_12  and  C_13
REMARK    3  A    between atoms: C_13  and  C_14
REMARK    4  A    between atoms: C_14  and  C_15
REMARK    5  A    between atoms: N_21  and  C_22
REMARK    6  A    between atoms: C_22  and  C_23
REMARK                            x       y       z     vdW  Elec       q    Type
REMARK                         _______ _______ _______ _____ _____    ______ ____
ROOT
ATOM      1  C   UNL     1       7.295   7.206  17.605  0.00  0.00    +0.000 C 
ATOM      2  N   UNL     1       6.394   6.071  17.569  0.00  0.00    +0.000 N 
ATOM      3  C   UNL     1       6.888   4.783  17.392  0.00  0.00    +0.000 A 
ATOM      4  O   UNL     1       8.083   4.506  17.298  0.00  0.00    +0.000 OA
ATOM      5  N   UNL     1       5.960   3.761  17.298  0.00  0.00    +0.000 N 
ATOM      6  C   UNL     1       4.597   3.898  17.183  0.00  0.00    +0.000 A 
ATOM      7  O   UNL     1       3.874   2.966  16.853  0.00  0.00    +0.000 OA
ATOM      8  C   UNL     1       4.159   5.225  17.445  0.00  0.00    +0.000 A 
ATOM      9  C   UNL     1       5.029   6.257  17.630  0.00  0.00    +0.000 A 
ATOM     10  N   UNL     1       4.381   7.430  17.844  0.00  0.00    +0.000 NA
ATOM     11  C   UNL     1       3.097   7.147  17.754  0.00  0.00    +0.000 A 
ATOM     12  N   UNL     1       2.064   8.019  17.813  0.00  0.00    +0.000 N 
ATOM     13  N   UNL     1       2.910   5.785  17.557  0.00  0.00    +0.000 N 
ATOM     14  H   UNL     1       6.339   2.848  17.109  0.00  0.00    +0.000 HD
ATOM     15  H   UNL     1       1.117   7.700  17.640  0.00  0.00    +0.000 HD
ENDROOT
BRANCH  12  16
ATOM     16  C   UNL     1       2.135   9.190  18.689  0.00  0.00    +0.000 C 
BRANCH  16  17
ATOM     17  C   UNL     1       0.819   9.966  18.825  0.00  0.00    +0.000 C 
BRANCH  17  18
ATOM     18  C   UNL     1       0.348  10.033  20.265  0.00  0.00    +0.000 A 
ATOM     19  C   UNL     1       0.624   8.982  21.152  0.00  0.00    +0.000 A 
ATOM     20  C   UNL     1       0.187   9.037  22.481  0.00  0.00    +0.000 A 
ATOM     21  C   UNL     1      -0.536  10.143  22.933  0.00  0.00    +0.000 A 
ATOM     22  C   UNL     1      -0.824  11.187  22.055  0.00  0.00    +0.000 A 
ATOM     23  C   UNL     1      -0.384  11.132  20.728  0.00  0.00    +0.000 A 
ENDBRANCH  17  18
ENDBRANCH  16  17
ENDBRANCH  12  16
BRANCH  13  24
ATOM     24  C   UNL     1       1.668   5.038  17.703  0.00  0.00    +0.000 C 
BRANCH  24  25
ATOM     25  C   UNL     1       1.538   4.222  18.970  0.00  0.00    +0.000 A 
ATOM     26  C   UNL     1       1.140   2.874  18.972  0.00  0.00    +0.000 A 
ATOM     27  C   UNL     1       1.178   2.120  20.147  0.00  0.00    +0.000 A 
ATOM     28  C   UNL     1       1.617   2.704  21.326  0.00  0.00    +0.000 A 
ATOM     29  F   UNL     1       1.684   1.968  22.444  0.00  0.00    +0.000 F 
ATOM     30  C   UNL     1       2.007   4.035  21.357  0.00  0.00    +0.000 A 
ATOM     31  C   UNL     1       1.971   4.794  20.184  0.00  0.00    +0.000 A 
ENDBRANCH  24  25
ENDBRANCH  13  24
TORSDOF 5
ENDMDL
MODEL 3
REMARK VINA RESULT:      -8.7      0.979      1.939
REMARK  Name = 
REMARK  6 active torsions:
REMARK  status: ('A' for Active; 'I' for Inactive)
REMARK    1  A    between atoms: C_1  and  N_2
REMARK    2  A    between atoms: N_12  and  C_13
REMARK    3  A    between atoms: C_13  and  C_14
REMARK    4  A    between atoms: C_14  and  C_15
REMARK    5  A    between atoms: N_21  and  C_22
REMARK    6  A    between atoms: C_22  and  C_23
REMARK                            x       y       z     vdW  Elec       q    Type
REMARK                         _______ _______ _______ _____ _____    ______ ____
ROOT
ATOM      1  C   UNL     1       7.297   7.204  17.525  0.00  0.00    +0.000 C 
ATOM      2  N   UNL     1       6.395   6.070  17.519  0.00  0.00    +0.000 N 
ATOM      3  C   UNL     1       6.888   4.776  17.378  0.00  0.00    +0.000 A 
ATOM      4  O   UNL     1       8.083   4.497  17.293  0.00  0.00    +0.000 OA
ATOM      5  N   UNL     1       5.960   3.753  17.309  0.00  0.00    +0.000 N 
ATOM      6  C   UNL     1       4.597   3.888  17.188  0.00  0.00    +0.000 A 
ATOM      7  O   UNL     1       3.874   2.947  16.882  0.00  0.00    +0.000 OA
ATOM      8  C   UNL     1       4.159   5.221  17.413  0.00  0.00    +0.000 A 
ATOM      9  C   UNL     1       5.030   6.257  17.573  0.00  0.00    +0.000 A 
ATOM     10  N   UNL     1       4.382   7.437  17.753  0.00  0.00    +0.000 NA
ATOM     11  C   UNL     1       3.098   7.151  17.668  0.00  0.00    +0.000 A 
ATOM     12  N   UNL     1       2.066   8.026  17.702  0.00  0.00    +0.000 N 
ATOM     13  N   UNL     1       2.911   5.785  17.508  0.00  0.00    +0.000 N 
ATOM     14  H   UNL     1       6.339   2.835  17.145  0.00  0.00    +0.000 HD
ATOM     15  H   UNL     1       1.118   7.702  17.536  0.00  0.00    +0.000 HD
ENDROOT
BRANCH  12  16
ATOM     16  C   UNL     1       2.136   9.220  18.547  0.00  0.00    +0.000 C 
BRANCH  16  17
ATOM     17  C   UNL     1       1.083   9.276  19.661  0.00  0.00    +0.000 C 
BRANCH  17  18
ATOM     18  C   UNL     1      -0.066  10.200  19.307  0.00  0.00    +0.000 A 
ATOM     19  C   UNL     1      -0.758  10.042  18.098  0.00  0.00    +0.000 A 
ATOM     20  C   UNL     1      -1.816  10.897  17.764  0.00  0.00    +0.000 A 
ATOM     21  C   UNL     1      -2.188  11.920  18.638  0.00  0.00    +0.000 A 
ATOM     22  C   UNL     1      -1.498  12.091  19.838  0.00  0.00    +0.000 A 
ATOM     23  C   UNL     1      -0.443  11.235  20.171  0.00  0.00    +0.000 A 
ENDBRANCH  17  18
ENDBRANCH  16  17
ENDBRANCH  12  16
BRANCH  13  24
ATOM     24  C   UNL     1       1.668   5.042  17.671  0.00  0.00    +0.000 C 
BRANCH  24  25
ATOM     25  C   UNL     1       1.549   4.236  18.946  0.00  0.00    +0.000 A 
ATOM     26  C   UNL     1       1.159   2.885  18.959  0.00  0.00    +0.000 A 
ATOM     27  C   UNL     1       1.207   2.140  20.139  0.00  0.00    +0.000 A 
ATOM     28  C   UNL     1       1.648   2.736  21.312  0.00  0.00    +0.000 A 
ATOM     29  F   UNL     1       1.724   2.009  22.435  0.00  0.00    +0.000 F 
ATOM     30  C   UNL     1       2.029   4.070  21.332  0.00  0.00    +0.000 A 
ATOM     31  C   UNL     1       1.983   4.819  20.153  0.00  0.00    +0.000 A 
ENDBRANCH  24  25
ENDBRANCH  13  24
TORSDOF 5
ENDMDL
MODEL 4
REMARK VINA RESULT:      -8.3      1.340      2.128
REMARK  Name = 
REMARK  6 active torsions:
REMARK  status: ('A' for Active; 'I' for Inactive)
REMARK    1  A    between atoms: C_1  and  N_2
REMARK    2  A    between atoms: N_12  and  C_13
REMARK    3  A    between atoms: C_13  and  C_14
REMARK    4  A    between atoms: C_14  and  C_15
REMARK    5  A    between atoms: N_21  and  C_22
REMARK    6  A    between atoms: C_22  and  C_23
REMARK                            x       y       z     vdW  Elec       q    Type
REMARK                         _______ _______ _______ _____ _____    ______ ____
ROOT
ATOM      1  C   UNL     1       7.396   7.254  17.296  0.00  0.00    +0.000 C 
ATOM      2  N   UNL     1       6.498   6.121  17.396  0.00  0.00    +0.000 N 
ATOM      3  C   UNL     1       6.989   4.821  17.318  0.00  0.00    +0.000 A 
ATOM      4  O   UNL     1       8.181   4.537  17.204  0.00  0.00    +0.000 OA
ATOM      5  N   UNL     1       6.062   3.796  17.350  0.00  0.00    +0.000 N 
ATOM      6  C   UNL     1       4.695   3.922  17.274  0.00  0.00    +0.000 A 
ATOM      7  O   UNL     1       3.963   2.963  17.056  0.00  0.00    +0.000 OA
ATOM      8  C   UNL     1       4.262   5.267  17.432  0.00  0.00    +0.000 A 
ATOM      9  C   UNL     1       5.136   6.311  17.492  0.00  0.00    +0.000 A 
ATOM     10  N   UNL     1       4.492   7.499  17.623  0.00  0.00    +0.000 NA
ATOM     11  C   UNL     1       3.206   7.208  17.607  0.00  0.00    +0.000 A 
ATOM     12  N   UNL     1       2.174   8.083  17.627  0.00  0.00    +0.000 N 
ATOM     13  N   UNL     1       3.017   5.835  17.540  0.00  0.00    +0.000 N 
ATOM     14  H   UNL     1       6.437   2.869  17.229  0.00  0.00    +0.000 HD
ATOM     15  H   UNL     1       1.222   7.750  17.519  0.00  0.00    +0.000 HD
ENDROOT
BRANCH  12  16
ATOM     16  C   UNL     1       2.274   9.328  18.391  0.00  0.00    +0.000 C 
BRANCH  16  17
ATOM     17  C   UNL     1       0.930   9.891  18.871  0.00  0.00    +0.000 C 
BRANCH  17  18
ATOM     18  C   UNL     1       0.886  11.404  18.776  0.00  0.00    +0.000 A 
ATOM     19  C   UNL     1       2.057  12.136  18.530  0.00  0.00    +0.000 A 
ATOM     20  C   UNL     1       2.021  13.533  18.447  0.00  0.00    +0.000 A 
ATOM     21  C   UNL     1       0.813  14.211  18.614  0.00  0.00    +0.000 A 
ATOM     22  C   UNL     1      -0.355  13.493  18.870  0.00  0.00    +0.000 A 
ATOM     23  C   UNL     1      -0.319  12.097  18.950  0.00  0.00    +0.000 A 
ENDBRANCH  17  18
ENDBRANCH  16  17
ENDBRANCH  12  16
BRANCH  13  24
ATOM     24  C   UNL     1       1.784   5.104  17.799  0.00  0.00    +0.000 C 
BRANCH  24  25
ATOM     25  C   UNL     1       1.760   4.286  19.071  0.00  0.00    +0.000 A 
ATOM     26  C   UNL     1       2.225   4.779  20.303  0.00  0.00    +0.000 A 
ATOM     27  C   UNL     1       2.047   4.046  21.479  0.00  0.00    +0.000 A 
ATOM     28  C   UNL     1       1.400   2.820  21.434  0.00  0.00    +0.000 A 
ATOM     29  F   UNL     1       1.201   2.135  22.568  0.00  0.00    +0.000 F 
ATOM     30  C   UNL     1       0.940   2.302  20.231  0.00  0.00    +0.000 A 
ATOM     31  C   UNL     1       1.116   3.032  19.053  0.00  0.00    +0.000 A 
ENDBRANCH  24  25
ENDBRANCH  13  24
TORSDOF 5
ENDMDL
MODEL 5
REMARK VINA RESULT:      -8.3      5.271      8.379
REMARK  Name = 
REMARK  6 active torsions:
REMARK  status: ('A' for Active; 'I' for Inactive)
REMARK    1  A    between atoms: C_1  and  N_2
REMARK    2  A    between atoms: N_12  and  C_13
REMARK    3  A    between atoms: C_13  and  C_14
REMARK    4  A    between atoms: C_14  and  C_15
REMARK    5  A    between atoms: N_21  and  C_22
REMARK    6  A    between atoms: C_22  and  C_23
REMARK                            x       y       z     vdW  Elec       q    Type
REMARK                         _______ _______ _______ _____ _____    ______ ____
ROOT
ATOM      1  C   UNL     1       3.648  13.886  18.038  0.00  0.00    +0.000 C 
ATOM      2  N   UNL     1       2.250  13.843  18.416  0.00  0.00    +0.000 N 
ATOM      3  C   UNL     1       1.547  15.019  18.660  0.00  0.00    +0.000 A 
ATOM      4  O   UNL     1       2.023  16.147  18.538  0.00  0.00    +0.000 OA
ATOM      5  N   UNL     1       0.237  14.893  19.085  0.00  0.00    +0.000 N 
ATOM      6  C   UNL     1      -0.395  13.731  19.463  0.00  0.00    +0.000 A 
ATOM      7  O   UNL     1      -1.464  13.737  20.062  0.00  0.00    +0.000 OA
ATOM      8  C   UNL     1       0.349  12.570  19.121  0.00  0.00    +0.000 A 
ATOM      9  C   UNL     1       1.614  12.636  18.618  0.00  0.00    +0.000 A 
ATOM     10  N   UNL     1       2.129  11.402  18.387  0.00  0.00    +0.000 NA
ATOM     11  C   UNL     1       1.202  10.552  18.782  0.00  0.00    +0.000 A 
ATOM     12  N   UNL     1       1.299   9.203  18.821  0.00  0.00    +0.000 N 
ATOM     13  N   UNL     1       0.064  11.229  19.197  0.00  0.00    +0.000 N 
ATOM     14  H   UNL     1      -0.229  15.755  19.314  0.00  0.00    +0.000 HD
ATOM     15  H   UNL     1       0.553   8.650  19.231  0.00  0.00    +0.000 HD
ENDROOT
BRANCH  12  16
ATOM     16  C   UNL     1       2.063   8.485  17.798  0.00  0.00    +0.000 C 
BRANCH  16  17
ATOM     17  C   UNL     1       3.088   7.487  18.351  0.00  0.00    +0.000 C 
BRANCH  17  18
ATOM     18  C   UNL     1       2.432   6.197  18.804  0.00  0.00    +0.000 A 
ATOM     19  C   UNL     1       2.103   5.201  17.873  0.00  0.00    +0.000 A 
ATOM     20  C   UNL     1       1.493   4.011  18.286  0.00  0.00    +0.000 A 
ATOM     21  C   UNL     1       1.203   3.808  19.637  0.00  0.00    +0.000 A 
ATOM     22  C   UNL     1       1.517   4.797  20.569  0.00  0.00    +0.000 A 
ATOM     23  C   UNL     1       2.129   5.985  20.155  0.00  0.00    +0.000 A 
ENDBRANCH  17  18
ENDBRANCH  16  17
ENDBRANCH  12  16
BRANCH  13  24
ATOM     24  C   UNL     1      -1.262  10.667  19.418  0.00  0.00    +0.000 C 
BRANCH  24  25
ATOM     25  C   UNL     1      -2.157  10.599  18.201  0.00  0.00    +0.000 A 
ATOM     26  C   UNL     1      -3.311  11.389  18.058  0.00  0.00    +0.000 A 
ATOM     27  C   UNL     1      -4.023  11.403  16.857  0.00  0.00    +0.000 A 
ATOM     28  C   UNL     1      -3.586  10.633  15.789  0.00  0.00    +0.000 A 
ATOM     29  F   UNL     1      -4.252  10.675  14.627  0.00  0.00    +0.000 F 
ATOM     30  C   UNL     1      -2.456   9.835  15.903  0.00  0.00    +0.000 A 
ATOM     31  C   UNL     1      -1.741   9.819  17.103  0.00  0.00    +0.000 A 
ENDBRANCH  24  25
ENDBRANCH  13  24
TORSDOF 5
ENDMDL
MODEL 6
REMARK VINA RESULT:      -8.2      1.267      2.135
REMARK  Name = 
REMARK  6 active torsions:
REMARK  status: ('A' for Active; 'I' for Inactive)
REMARK    1  A    between atoms: C_1  and  N_2
REMARK    2  A    between atoms: N_12  and  C_13
REMARK    3  A    between atoms: C_13  and  C_14
REMARK    4  A    between atoms: C_14  and  C_15
REMARK    5  A    between atoms: N_21  and  C_22
REMARK    6  A    between atoms: C_22  and  C_23
REMARK                            x       y       z     vdW  Elec       q    Type
REMARK                         _______ _______ _______ _____ _____    ______ ____
ROOT
ATOM      1  C   UNL     1       7.496   7.134  17.690  0.00  0.00    +0.000 C 
ATOM      2  N   UNL     1       6.569   6.020  17.688  0.00  0.00    +0.000 N 
ATOM      3  C   UNL     1       7.038   4.711  17.633  0.00  0.00    +0.000 A 
ATOM      4  O   UNL     1       8.229   4.402  17.625  0.00  0.00    +0.000 OA
ATOM      5  N   UNL     1       6.091   3.706  17.563  0.00  0.00    +0.000 N 
ATOM      6  C   UNL     1       4.739   3.864  17.364  0.00  0.00    +0.000 A 
ATOM      7  O   UNL     1       4.012   2.925  17.064  0.00  0.00    +0.000 OA
ATOM      8  C   UNL     1       4.323   5.215  17.503  0.00  0.00    +0.000 A 
ATOM      9  C   UNL     1       5.208   6.239  17.660  0.00  0.00    +0.000 A 
ATOM     10  N   UNL     1       4.580   7.439  17.751  0.00  0.00    +0.000 NA
ATOM     11  C   UNL     1       3.295   7.177  17.612  0.00  0.00    +0.000 A 
ATOM     12  N   UNL     1       2.284   8.074  17.550  0.00  0.00    +0.000 N 
ATOM     13  N   UNL     1       3.085   5.809  17.505  0.00  0.00    +0.000 N 
ATOM     14  H   UNL     1       6.456   2.773  17.462  0.00  0.00    +0.000 HD
ATOM     15  H   UNL     1       1.339   7.764  17.350  0.00  0.00    +0.000 HD
ENDROOT
BRANCH  12  16
ATOM     16  C   UNL     1       2.339   9.305  18.341  0.00  0.00    +0.000 C 
BRANCH  16  17
ATOM     17  C   UNL     1       1.020   9.679  19.032  0.00  0.00    +0.000 C 
BRANCH  17  18
ATOM     18  C   UNL     1       0.713  11.158  18.900  0.00  0.00    +0.000 A 
ATOM     19  C   UNL     1      -0.604  11.624  19.025  0.00  0.00    +0.000 A 
ATOM     20  C   UNL     1      -0.894  12.988  18.899  0.00  0.00    +0.000 A 
ATOM     21  C   UNL     1       0.133  13.898  18.641  0.00  0.00    +0.000 A 
ATOM     22  C   UNL     1       1.444  13.443  18.504  0.00  0.00    +0.000 A 
ATOM     23  C   UNL     1       1.733  12.080  18.633  0.00  0.00    +0.000 A 
ENDBRANCH  17  18
ENDBRANCH  16  17
ENDBRANCH  12  16
BRANCH  13  24
ATOM     24  C   UNL     1       1.818   5.102  17.637  0.00  0.00    +0.000 C 
BRANCH  24  25
ATOM     25  C   UNL     1       1.621   4.345  18.932  0.00  0.00    +0.000 A 
ATOM     26  C   UNL     1       1.103   3.039  18.980  0.00  0.00    +0.000 A 
ATOM     27  C   UNL     1       1.078   2.324  20.179  0.00  0.00    +0.000 A 
ATOM     28  C   UNL     1       1.574   2.905  21.337  0.00  0.00    +0.000 A 
ATOM     29  F   UNL     1       1.580   2.205  22.479  0.00  0.00    +0.000 F 
ATOM     30  C   UNL     1       2.081   4.197  21.323  0.00  0.00    +0.000 A 
ATOM     31  C   UNL     1       2.109   4.915  20.125  0.00  0.00    +0.000 A 
ENDBRANCH  24  25
ENDBRANCH  13  24
TORSDOF 5
ENDMDL
MODEL 7
REMARK VINA RESULT:      -8.1      1.176      1.711
REMARK  Name = 
REMARK  6 active torsions:
REMARK  status: ('A' for Active; 'I' for Inactive)
REMARK    1  A    between atoms: C_1  and  N_2
REMARK    2  A    between atoms: N_12  and  C_13
REMARK    3  A    between atoms: C_13  and  C_14
REMARK    4  A    between atoms: C_14  and  C_15
REMARK    5  A    between atoms: N_21  and  C_22
REMARK    6  A    between atoms: C_22  and  C_23
REMARK                            x       y       z     vdW  Elec       q    Type
REMARK                         _______ _______ _______ _____ _____    ______ ____
ROOT
ATOM      1  C   UNL     1       7.414   7.262  17.317  0.00  0.00    +0.000 C 
ATOM      2  N   UNL     1       6.514   6.133  17.435  0.00  0.00    +0.000 N 
ATOM      3  C   UNL     1       7.005   4.831  17.398  0.00  0.00    +0.000 A 
ATOM      4  O   UNL     1       8.198   4.544  17.308  0.00  0.00    +0.000 OA
ATOM      5  N   UNL     1       6.077   3.807  17.445  0.00  0.00    +0.000 N 
ATOM      6  C   UNL     1       4.711   3.932  17.347  0.00  0.00    +0.000 A 
ATOM      7  O   UNL     1       3.982   2.968  17.146  0.00  0.00    +0.000 OA
ATOM      8  C   UNL     1       4.277   5.281  17.463  0.00  0.00    +0.000 A 
ATOM      9  C   UNL     1       5.151   6.326  17.507  0.00  0.00    +0.000 A 
ATOM     10  N   UNL     1       4.506   7.517  17.597  0.00  0.00    +0.000 NA
ATOM     11  C   UNL     1       3.220   7.227  17.572  0.00  0.00    +0.000 A 
ATOM     12  N   UNL     1       2.188   8.102  17.554  0.00  0.00    +0.000 N 
ATOM     13  N   UNL     1       3.031   5.852  17.539  0.00  0.00    +0.000 N 
ATOM     14  H   UNL     1       6.452   2.877  17.355  0.00  0.00    +0.000 HD
ATOM     15  H   UNL     1       1.237   7.766  17.442  0.00  0.00    +0.000 HD
ENDROOT
BRANCH  12  16
ATOM     16  C   UNL     1       2.279   9.367  18.286  0.00  0.00    +0.000 C 
BRANCH  16  17
ATOM     17  C   UNL     1       0.926   9.998  18.638  0.00  0.00    +0.000 C 
BRANCH  17  18
ATOM     18  C   UNL     1       1.089  11.346  19.314  0.00  0.00    +0.000 A 
ATOM     19  C   UNL     1       0.364  11.650  20.476  0.00  0.00    +0.000 A 
ATOM     20  C   UNL     1       0.509  12.895  21.100  0.00  0.00    +0.000 A 
ATOM     21  C   UNL     1       1.377  13.848  20.565  0.00  0.00    +0.000 A 
ATOM     22  C   UNL     1       2.094  13.558  19.405  0.00  0.00    +0.000 A 
ATOM     23  C   UNL     1       1.951  12.313  18.783  0.00  0.00    +0.000 A 
ENDBRANCH  17  18
ENDBRANCH  16  17
ENDBRANCH  12  16
BRANCH  13  24
ATOM     24  C   UNL     1       1.794   5.128  17.800  0.00  0.00    +0.000 C 
BRANCH  24  25
ATOM     25  C   UNL     1       1.771   4.305  19.069  0.00  0.00    +0.000 A 
ATOM     26  C   UNL     1       2.214   4.800  20.308  0.00  0.00    +0.000 A 
ATOM     27  C   UNL     1       2.036   4.059  21.478  0.00  0.00    +0.000 A 
ATOM     28  C   UNL     1       1.411   2.822  21.421  0.00  0.00    +0.000 A 
ATOM     29  F   UNL     1       1.211   2.128  22.550  0.00  0.00    +0.000 F 
ATOM     30  C   UNL     1       0.973   2.302  20.211  0.00  0.00    +0.000 A 
ATOM     31  C   UNL     1       1.148   3.040  19.038  0.00  0.00    +0.000 A 
ENDBRANCH  24  25
ENDBRANCH  13  24
TORSDOF 5
ENDMDL
MODEL 8
REMARK VINA RESULT:      -7.9      5.286      9.193
REMARK  Name = 
REMARK  6 active torsions:
REMARK  status: ('A' for Active; 'I' for Inactive)
REMARK    1  A    between atoms: C_1  and  N_2
REMARK    2  A    between atoms: N_12  and  C_13
REMARK    3  A    between atoms: C_13  and  C_14
REMARK    4  A    between atoms: C_14  and  C_15
REMARK    5  A    between atoms: N_21  and  C_22
REMARK    6  A    between atoms: C_22  and  C_23
REMARK                            x       y       z     vdW  Elec       q    Type
REMARK                         _______ _______ _______ _____ _____    ______ ____
ROOT
ATOM      1  C   UNL     1      -3.017   9.619  16.206  0.00  0.00    +0.000 C 
ATOM      2  N   UNL     1      -2.656  10.506  17.294  0.00  0.00    +0.000 N 
ATOM      3  C   UNL     1      -3.556  11.463  17.753  0.00  0.00    +0.000 A 
ATOM      4  O   UNL     1      -4.700  11.601  17.320  0.00  0.00    +0.000 OA
ATOM      5  N   UNL     1      -3.113  12.319  18.744  0.00  0.00    +0.000 N 
ATOM      6  C   UNL     1      -1.823  12.444  19.205  0.00  0.00    +0.000 A 
ATOM      7  O   UNL     1      -1.469  13.391  19.898  0.00  0.00    +0.000 OA
ATOM      8  C   UNL     1      -0.979  11.395  18.752  0.00  0.00    +0.000 A 
ATOM      9  C   UNL     1      -1.390  10.471  17.839  0.00  0.00    +0.000 A 
ATOM     10  N   UNL     1      -0.408   9.582  17.545  0.00  0.00    +0.000 NA
ATOM     11  C   UNL     1       0.640   9.967  18.246  0.00  0.00    +0.000 A 
ATOM     12  N   UNL     1       1.883   9.432  18.214  0.00  0.00    +0.000 N 
ATOM     13  N   UNL     1       0.319  11.056  19.045  0.00  0.00    +0.000 N 
ATOM     14  H   UNL     1      -3.761  13.041  19.015  0.00  0.00    +0.000 HD
ATOM     15  H   UNL     1       2.639   9.869  18.730  0.00  0.00    +0.000 HD
ENDROOT
BRANCH  12  16
ATOM     16  C   UNL     1       2.063   7.992  18.020  0.00  0.00    +0.000 C 
BRANCH  16  17
ATOM     17  C   UNL     1       2.526   7.234  19.271  0.00  0.00    +0.000 C 
BRANCH  17  18
ATOM     18  C   UNL     1       2.048   5.794  19.268  0.00  0.00    +0.000 A 
ATOM     19  C   UNL     1       2.035   5.052  18.078  0.00  0.00    +0.000 A 
ATOM     20  C   UNL     1       1.590   3.725  18.069  0.00  0.00    +0.000 A 
ATOM     21  C   UNL     1       1.149   3.129  19.253  0.00  0.00    +0.000 A 
ATOM     22  C   UNL     1       1.150   3.862  20.439  0.00  0.00    +0.000 A 
ATOM     23  C   UNL     1       1.597   5.188  20.447  0.00  0.00    +0.000 A 
ENDBRANCH  17  18
ENDBRANCH  16  17
ENDBRANCH  12  16
BRANCH  13  24
ATOM     24  C   UNL     1       1.088  11.582  20.165  0.00  0.00    +0.000 C 
BRANCH  24  25
ATOM     25  C   UNL     1       1.930  12.803  19.866  0.00  0.00    +0.000 A 
ATOM     26  C   UNL     1       2.505  13.043  18.606  0.00  0.00    +0.000 A 
ATOM     27  C   UNL     1       3.147  14.253  18.333  0.00  0.00    +0.000 A 
ATOM     28  C   UNL     1       3.217  15.232  19.313  0.00  0.00    +0.000 A 
ATOM     29  F   UNL     1       3.804  16.404  19.037  0.00  0.00    +0.000 F 
ATOM     30  C   UNL     1       2.668  15.019  20.570  0.00  0.00    +0.000 A 
ATOM     31  C   UNL     1       2.024  13.811  20.847  0.00  0.00    +0.000 A 
ENDBRANCH  24  25
ENDBRANCH  13  24
TORSDOF 5
ENDMDL
MODEL 9
REMARK VINA RESULT:      -7.9      2.840      4.821
REMARK  Name = 
REMARK  6 active torsions:
REMARK  status: ('A' for Active; 'I' for Inactive)
REMARK    1  A    between atoms: C_1  and  N_2
REMARK    2  A    between atoms: N_12  and  C_13
REMARK    3  A    between atoms: C_13  and  C_14
REMARK    4  A    between atoms: C_14  and  C_15
REMARK    5  A    between atoms: N_21  and  C_22
REMARK    6  A    between atoms: C_22  and  C_23
REMARK                            x       y       z     vdW  Elec       q    Type
REMARK                         _______ _______ _______ _____ _____    ______ ____
ROOT
ATOM      1  C   UNL     1       1.922   3.895  21.084  0.00  0.00    +0.000 C 
ATOM      2  N   UNL     1       3.137   3.917  20.294  0.00  0.00    +0.000 N 
ATOM      3  C   UNL     1       4.063   2.883  20.392  0.00  0.00    +0.000 A 
ATOM      4  O   UNL     1       3.915   1.886  21.097  0.00  0.00    +0.000 OA
ATOM      5  N   UNL     1       5.229   3.011  19.661  0.00  0.00    +0.000 N 
ATOM      6  C   UNL     1       5.655   4.130  18.982  0.00  0.00    +0.000 A 
ATOM      7  O   UNL     1       6.804   4.246  18.574  0.00  0.00    +0.000 OA
ATOM      8  C   UNL     1       4.635   5.113  18.860  0.00  0.00    +0.000 A 
ATOM      9  C   UNL     1       3.433   4.998  19.491  0.00  0.00    +0.000 A 
ATOM     10  N   UNL     1       2.631   6.065  19.244  0.00  0.00    +0.000 NA
ATOM     11  C   UNL     1       3.344   6.876  18.486  0.00  0.00    +0.000 A 
ATOM     12  N   UNL     1       2.989   8.108  18.055  0.00  0.00    +0.000 N 
ATOM     13  N   UNL     1       4.572   6.305  18.182  0.00  0.00    +0.000 N 
ATOM     14  H   UNL     1       5.909   2.281  19.797  0.00  0.00    +0.000 HD
ATOM     15  H   UNL     1       3.657   8.682  17.549  0.00  0.00    +0.000 HD
ENDROOT
BRANCH  12  16
ATOM     16  C   UNL     1       1.594   8.402  17.720  0.00  0.00    +0.000 C 
BRANCH  16  17
ATOM     17  C   UNL     1       1.146   9.830  18.056  0.00  0.00    +0.000 C 
BRANCH  17  18
ATOM     18  C   UNL     1       0.597   9.934  19.466  0.00  0.00    +0.000 A 
ATOM     19  C   UNL     1      -0.240  11.000  19.825  0.00  0.00    +0.000 A 
ATOM     20  C   UNL     1      -0.745  11.103  21.127  0.00  0.00    +0.000 A 
ATOM     21  C   UNL     1      -0.411  10.141  22.083  0.00  0.00    +0.000 A 
ATOM     22  C   UNL     1       0.430   9.084  21.737  0.00  0.00    +0.000 A 
ATOM     23  C   UNL     1       0.931   8.981  20.435  0.00  0.00    +0.000 A 
ENDBRANCH  17  18
ENDBRANCH  16  17
ENDBRANCH  12  16
BRANCH  13  24
ATOM     24  C   UNL     1       5.508   6.731  17.151  0.00  0.00    +0.000 C 
BRANCH  24  25
ATOM     25  C   UNL     1       5.787   5.721  16.060  0.00  0.00    +0.000 A 
ATOM     26  C   UNL     1       4.776   4.959  15.450  0.00  0.00    +0.000 A 
ATOM     27  C   UNL     1       5.058   4.149  14.347  0.00  0.00    +0.000 A 
ATOM     28  C   UNL     1       6.349   4.098  13.843  0.00  0.00    +0.000 A 
ATOM     29  F   UNL     1       6.610   3.347  12.765  0.00  0.00    +0.000 F 
ATOM     30  C   UNL     1       7.371   4.831  14.431  0.00  0.00    +0.000 A 
ATOM     31  C   UNL     1       7.093   5.643  15.534  0.00  0.00    +0.000 A 
ENDBRANCH  24  25
ENDBRANCH  13  24
TORSDOF 5
ENDMDL
