MODEL 1
REMARK VINA RESULT:      -8.5      0.000      0.000
REMARK  Name = 
REMARK  3 active torsions:
REMARK  status: ('A' for Active; 'I' for Inactive)
REMARK    1  A    between atoms: C_8  and  C_9
REMARK    2  A    between atoms: C_9  and  C_10
REMARK    3  A    between atoms: C_18  and  C_19
REMARK                            x       y       z     vdW  Elec       q    Type
REMARK                         _______ _______ _______ _____ _____    ______ ____
ROOT
ATOM      1  O   UNL     1       0.692   8.975  21.781  0.00  0.00    +0.000 OA
ATOM      2  C   UNL     1       1.117   8.166  20.966  0.00  0.00    +0.000 C 
ATOM      3  N   UNL     1       1.293   6.850  21.321  0.00  0.00    +0.000 N 
ATOM      4  C   UNL     1       1.942   5.946  20.480  0.00  0.00    +0.000 A 
ATOM      5  C   UNL     1       2.021   4.611  20.879  0.00  0.00    +0.000 A 
ATOM      6  C   UNL     1       2.738   3.756  20.077  0.00  0.00    +0.000 A 
ATOM      7  C   UNL     1       3.388   4.190  18.943  0.00  0.00    +0.000 A 
ATOM      8  C   UNL     1       3.343   5.511  18.510  0.00  0.00    +0.000 A 
ATOM      9  C   UNL     1       2.565   6.397  19.285  0.00  0.00    +0.000 A 
ATOM     10  O   UNL     1       2.480   7.715  18.890  0.00  0.00    +0.000 OA
ATOM     11  C   UNL     1       1.379   8.432  19.467  0.00  0.00    +0.000 C 
ATOM     12  O   UNL     1       4.062   3.171  18.331  0.00  0.00    +0.000 OA
ATOM     13  C   UNL     1       3.664   2.048  19.139  0.00  0.00    +0.000 C 
ATOM     14  O   UNL     1       2.910   2.425  20.307  0.00  0.00    +0.000 OA
ATOM     15  H   UNL     1       1.019   6.590  22.259  0.00  0.00    +0.000 HD
ENDROOT
BRANCH  11  16
ATOM     16  C   UNL     1       1.541   9.916  19.163  0.00  0.00    +0.000 A 
ATOM     17  C   UNL     1       2.369  10.348  18.112  0.00  0.00    +0.000 A 
ATOM     18  C   UNL     1       2.495  11.708  17.817  0.00  0.00    +0.000 A 
ATOM     19  C   UNL     1       1.796  12.654  18.565  0.00  0.00    +0.000 A 
ATOM     20  C   UNL     1       0.971  12.239  19.607  0.00  0.00    +0.000 A 
ATOM     21  C   UNL     1       0.844  10.880  19.906  0.00  0.00    +0.000 A 
ENDBRANCH  11  16
BRANCH   8  22
ATOM     22  C   UNL     1       4.151   5.927  17.301  0.00  0.00    +0.000 C 
BRANCH  22  23
ATOM     23  C   UNL     1       5.588   6.267  17.640  0.00  0.00    +0.000 A 
ATOM     24  C   UNL     1       6.310   5.515  18.581  0.00  0.00    +0.000 A 
ATOM     25  C   UNL     1       7.580   5.924  18.996  0.00  0.00    +0.000 A 
ATOM     26  C   UNL     1       8.144   7.083  18.469  0.00  0.00    +0.000 A 
ATOM     27  C   UNL     1       7.462   7.807  17.493  0.00  0.00    +0.000 A 
ATOM     28  C   UNL     1       6.193   7.397  17.075  0.00  0.00    +0.000 A 
ENDBRANCH  22  23
ENDBRANCH   8  22
TORSDOF 3
ENDMDL
MODEL 2
REMARK VINA RESULT:      -8.3      2.393      5.650
REMARK  Name = 
REMARK  3 active torsions:
REMARK  status: ('A' for Active; 'I' for Inactive)
REMARK    1  A    between atoms: C_8  and  C_9
REMARK    2  A    between atoms: C_9  and  C_10
REMARK    3  A    between atoms: C_18  and  C_19
REMARK                            x       y       z     vdW  Elec       q    Type
REMARK                         _______ _______ _______ _____ _____    ______ ____
ROOT
ATOM      1  O   UNL     1       7.299   5.072  15.895  0.00  0.00    +0.000 OA
ATOM      2  C   UNL     1       6.450   4.902  16.760  0.00  0.00    +0.000 C 
ATOM      3  N   UNL     1       5.478   3.943  16.601  0.00  0.00    +0.000 N 
ATOM      4  C   UNL     1       4.396   3.846  17.475  0.00  0.00    +0.000 A 
ATOM      5  C   UNL     1       3.488   2.803  17.288  0.00  0.00    +0.000 A 
ATOM      6  C   UNL     1       2.384   2.776  18.107  0.00  0.00    +0.000 A 
ATOM      7  C   UNL     1       2.151   3.750  19.052  0.00  0.00    +0.000 A 
ATOM      8  C   UNL     1       3.024   4.811  19.268  0.00  0.00    +0.000 A 
ATOM      9  C   UNL     1       4.194   4.829  18.480  0.00  0.00    +0.000 A 
ATOM     10  O   UNL     1       5.096   5.855  18.666  0.00  0.00    +0.000 OA
ATOM     11  C   UNL     1       6.406   5.587  18.144  0.00  0.00    +0.000 C 
ATOM     12  O   UNL     1       0.978   3.532  19.717  0.00  0.00    +0.000 OA
ATOM     13  C   UNL     1       0.575   2.265  19.166  0.00  0.00    +0.000 C 
ATOM     14  O   UNL     1       1.405   1.830  18.072  0.00  0.00    +0.000 OA
ATOM     15  H   UNL     1       5.531   3.375  15.765  0.00  0.00    +0.000 HD
ENDROOT
BRANCH  11  16
ATOM     16  C   UNL     1       7.225   6.872  18.179  0.00  0.00    +0.000 A 
ATOM     17  C   UNL     1       6.917   7.944  17.322  0.00  0.00    +0.000 A 
ATOM     18  C   UNL     1       7.652   9.132  17.375  0.00  0.00    +0.000 A 
ATOM     19  C   UNL     1       8.701   9.266  18.282  0.00  0.00    +0.000 A 
ATOM     20  C   UNL     1       9.014   8.213  19.138  0.00  0.00    +0.000 A 
ATOM     21  C   UNL     1       8.283   7.023  19.087  0.00  0.00    +0.000 A 
ENDBRANCH  11  16
BRANCH   8  22
ATOM     22  C   UNL     1       2.656   5.887  20.267  0.00  0.00    +0.000 C 
BRANCH  22  23
ATOM     23  C   UNL     1       2.107   7.137  19.611  0.00  0.00    +0.000 A 
ATOM     24  C   UNL     1       2.313   7.392  18.246  0.00  0.00    +0.000 A 
ATOM     25  C   UNL     1       1.934   8.614  17.685  0.00  0.00    +0.000 A 
ATOM     26  C   UNL     1       1.335   9.589  18.480  0.00  0.00    +0.000 A 
ATOM     27  C   UNL     1       1.073   9.326  19.823  0.00  0.00    +0.000 A 
ATOM     28  C   UNL     1       1.450   8.104  20.385  0.00  0.00    +0.000 A 
ENDBRANCH  22  23
ENDBRANCH   8  22
TORSDOF 3
ENDMDL
MODEL 3
REMARK VINA RESULT:      -8.0      2.423      5.606
REMARK  Name = 
REMARK  3 active torsions:
REMARK  status: ('A' for Active; 'I' for Inactive)
REMARK    1  A    between atoms: C_8  and  C_9
REMARK    2  A    between atoms: C_9  and  C_10
REMARK    3  A    between atoms: C_18  and  C_19
REMARK                            x       y       z     vdW  Elec       q    Type
REMARK                         _______ _______ _______ _____ _____    ______ ____
ROOT
ATOM      1  O   UNL     1       7.356   5.490  15.753  0.00  0.00    +0.000 OA
ATOM      2  C   UNL     1       6.515   5.249  16.609  0.00  0.00    +0.000 C 
ATOM      3  N   UNL     1       5.574   4.268  16.401  0.00  0.00    +0.000 N 
ATOM      4  C   UNL     1       4.498   4.092  17.270  0.00  0.00    +0.000 A 
ATOM      5  C   UNL     1       3.623   3.031  17.031  0.00  0.00    +0.000 A 
ATOM      6  C   UNL     1       2.523   2.927  17.848  0.00  0.00    +0.000 A 
ATOM      7  C   UNL     1       2.261   3.844  18.842  0.00  0.00    +0.000 A 
ATOM      8  C   UNL     1       3.100   4.920  19.112  0.00  0.00    +0.000 A 
ATOM      9  C   UNL     1       4.267   5.016  18.324  0.00  0.00    +0.000 A 
ATOM     10  O   UNL     1       5.136   6.059  18.561  0.00  0.00    +0.000 OA
ATOM     11  C   UNL     1       6.452   5.861  18.026  0.00  0.00    +0.000 C 
ATOM     12  O   UNL     1       1.097   3.554  19.496  0.00  0.00    +0.000 OA
ATOM     13  C   UNL     1       0.734   2.305  18.881  0.00  0.00    +0.000 C 
ATOM     14  O   UNL     1       1.575   1.953  17.767  0.00  0.00    +0.000 OA
ATOM     15  H   UNL     1       5.643   3.746  15.538  0.00  0.00    +0.000 HD
ENDROOT
BRANCH  11  16
ATOM     16  C   UNL     1       7.230   7.168  18.126  0.00  0.00    +0.000 A 
ATOM     17  C   UNL     1       8.335   7.283  18.987  0.00  0.00    +0.000 A 
ATOM     18  C   UNL     1       9.063   8.474  19.058  0.00  0.00    +0.000 A 
ATOM     19  C   UNL     1       8.699   9.564  18.270  0.00  0.00    +0.000 A 
ATOM     20  C   UNL     1       7.607   9.462  17.411  0.00  0.00    +0.000 A 
ATOM     21  C   UNL     1       6.876   8.274  17.339  0.00  0.00    +0.000 A 
ENDBRANCH  11  16
BRANCH   8  22
ATOM     22  C   UNL     1       2.701   5.931  20.164  0.00  0.00    +0.000 C 
BRANCH  22  23
ATOM     23  C   UNL     1       2.233   7.245  19.573  0.00  0.00    +0.000 A 
ATOM     24  C   UNL     1       1.651   8.237  20.378  0.00  0.00    +0.000 A 
ATOM     25  C   UNL     1       1.088   9.380  19.804  0.00  0.00    +0.000 A 
ATOM     26  C   UNL     1       1.111   9.547  18.421  0.00  0.00    +0.000 A 
ATOM     27  C   UNL     1       1.736   8.596  17.616  0.00  0.00    +0.000 A 
ATOM     28  C   UNL     1       2.300   7.455  18.189  0.00  0.00    +0.000 A 
ENDBRANCH  22  23
ENDBRANCH   8  22
TORSDOF 3
ENDMDL
MODEL 4
REMARK VINA RESULT:      -7.9      1.311      1.599
REMARK  Name = 
REMARK  3 active torsions:
REMARK  status: ('A' for Active; 'I' for Inactive)
REMARK    1  A    between atoms: C_8  and  C_9
REMARK    2  A    between atoms: C_9  and  C_10
REMARK    3  A    between atoms: C_18  and  C_19
REMARK                            x       y       z     vdW  Elec       q    Type
REMARK                         _______ _______ _______ _____ _____    ______ ____
ROOT
ATOM      1  O   UNL     1       0.689  10.034  21.771  0.00  0.00    +0.000 OA
ATOM      2  C   UNL     1       1.019   9.230  20.909  0.00  0.00    +0.000 C 
ATOM      3  N   UNL     1       1.329   7.935  21.251  0.00  0.00    +0.000 N 
ATOM      4  C   UNL     1       1.881   7.047  20.327  0.00  0.00    +0.000 A 
ATOM      5  C   UNL     1       2.104   5.729  20.730  0.00  0.00    +0.000 A 
ATOM      6  C   UNL     1       2.726   4.895  19.832  0.00  0.00    +0.000 A 
ATOM      7  C   UNL     1       3.150   5.334  18.598  0.00  0.00    +0.000 A 
ATOM      8  C   UNL     1       2.955   6.639  18.157  0.00  0.00    +0.000 A 
ATOM      9  C   UNL     1       2.266   7.501  19.037  0.00  0.00    +0.000 A 
ATOM     10  O   UNL     1       2.039   8.801  18.641  0.00  0.00    +0.000 OA
ATOM     11  C   UNL     1       1.009   9.470  19.383  0.00  0.00    +0.000 C 
ATOM     12  O   UNL     1       3.771   4.339  17.898  0.00  0.00    +0.000 OA
ATOM     13  C   UNL     1       3.581   3.217  18.780  0.00  0.00    +0.000 C 
ATOM     14  O   UNL     1       3.013   3.582  20.051  0.00  0.00    +0.000 OA
ATOM     15  H   UNL     1       1.232   7.685  22.226  0.00  0.00    +0.000 HD
ENDROOT
BRANCH  11  16
ATOM     16  C   UNL     1       1.029  10.953  19.031  0.00  0.00    +0.000 A 
ATOM     17  C   UNL     1       2.211  11.569  18.582  0.00  0.00    +0.000 A 
ATOM     18  C   UNL     1       2.221  12.922  18.234  0.00  0.00    +0.000 A 
ATOM     19  C   UNL     1       1.054  13.677  18.329  0.00  0.00    +0.000 A 
ATOM     20  C   UNL     1      -0.123  13.079  18.771  0.00  0.00    +0.000 A 
ATOM     21  C   UNL     1      -0.137  11.727  19.122  0.00  0.00    +0.000 A 
ENDBRANCH  11  16
BRANCH   8  22
ATOM     22  C   UNL     1       3.523   7.067  16.822  0.00  0.00    +0.000 C 
BRANCH  22  23
ATOM     23  C   UNL     1       4.935   6.568  16.594  0.00  0.00    +0.000 A 
ATOM     24  C   UNL     1       5.234   5.688  15.542  0.00  0.00    +0.000 A 
ATOM     25  C   UNL     1       6.505   5.118  15.430  0.00  0.00    +0.000 A 
ATOM     26  C   UNL     1       7.492   5.429  16.362  0.00  0.00    +0.000 A 
ATOM     27  C   UNL     1       7.225   6.345  17.378  0.00  0.00    +0.000 A 
ATOM     28  C   UNL     1       5.955   6.918  17.489  0.00  0.00    +0.000 A 
ENDBRANCH  22  23
ENDBRANCH   8  22
TORSDOF 3
ENDMDL
MODEL 5
REMARK VINA RESULT:      -7.8      1.076      1.580
REMARK  Name = 
REMARK  3 active torsions:
REMARK  status: ('A' for Active; 'I' for Inactive)
REMARK    1  A    between atoms: C_8  and  C_9
REMARK    2  A    between atoms: C_9  and  C_10
REMARK    3  A    between atoms: C_18  and  C_19
REMARK                            x       y       z     vdW  Elec       q    Type
REMARK                         _______ _______ _______ _____ _____    ______ ____
ROOT
ATOM      1  O   UNL     1       0.775   9.635  21.807  0.00  0.00    +0.000 OA
ATOM      2  C   UNL     1       1.084   8.766  21.002  0.00  0.00    +0.000 C 
ATOM      3  N   UNL     1       1.326   7.481  21.426  0.00  0.00    +0.000 N 
ATOM      4  C   UNL     1       1.853   6.515  20.569  0.00  0.00    +0.000 A 
ATOM      5  C   UNL     1       2.005   5.215  21.053  0.00  0.00    +0.000 A 
ATOM      6  C   UNL     1       2.605   4.300  20.221  0.00  0.00    +0.000 A 
ATOM      7  C   UNL     1       3.074   4.645  18.973  0.00  0.00    +0.000 A 
ATOM      8  C   UNL     1       2.951   5.929  18.452  0.00  0.00    +0.000 A 
ATOM      9  C   UNL     1       2.286   6.872  19.264  0.00  0.00    +0.000 A 
ATOM     10  O   UNL     1       2.129   8.156  18.787  0.00  0.00    +0.000 OA
ATOM     11  C   UNL     1       1.118   8.915  19.465  0.00  0.00    +0.000 C 
ATOM     12  O   UNL     1       3.661   3.581  18.348  0.00  0.00    +0.000 OA
ATOM     13  C   UNL     1       3.400   2.524  19.289  0.00  0.00    +0.000 C 
ATOM     14  O   UNL     1       2.824   2.990  20.524  0.00  0.00    +0.000 OA
ATOM     15  H   UNL     1       1.197   7.294  22.412  0.00  0.00    +0.000 HD
ENDROOT
BRANCH  11  16
ATOM     16  C   UNL     1       1.216  10.371  19.027  0.00  0.00    +0.000 A 
ATOM     17  C   UNL     1       0.175  11.276  19.301  0.00  0.00    +0.000 A 
ATOM     18  C   UNL     1       0.278  12.617  18.924  0.00  0.00    +0.000 A 
ATOM     19  C   UNL     1       1.420  13.074  18.269  0.00  0.00    +0.000 A 
ATOM     20  C   UNL     1       2.459  12.188  17.992  0.00  0.00    +0.000 A 
ATOM     21  C   UNL     1       2.359  10.846  18.367  0.00  0.00    +0.000 A 
ENDBRANCH  11  16
BRANCH   8  22
ATOM     22  C   UNL     1       3.566   6.250  17.108  0.00  0.00    +0.000 C 
BRANCH  22  23
ATOM     23  C   UNL     1       4.959   5.677  16.945  0.00  0.00    +0.000 A 
ATOM     24  C   UNL     1       5.986   5.997  17.848  0.00  0.00    +0.000 A 
ATOM     25  C   UNL     1       7.300   5.586  17.607  0.00  0.00    +0.000 A 
ATOM     26  C   UNL     1       7.598   4.844  16.467  0.00  0.00    +0.000 A 
ATOM     27  C   UNL     1       6.578   4.471  15.593  0.00  0.00    +0.000 A 
ATOM     28  C   UNL     1       5.264   4.880  15.834  0.00  0.00    +0.000 A 
ENDBRANCH  22  23
ENDBRANCH   8  22
TORSDOF 3
ENDMDL
MODEL 6
REMARK VINA RESULT:      -7.7      5.651      8.735
REMARK  Name = 
REMARK  3 active torsions:
REMARK  status: ('A' for Active; 'I' for Inactive)
REMARK    1  A    between atoms: C_8  and  C_9
REMARK    2  A    between atoms: C_9  and  C_10
REMARK    3  A    between atoms: C_18  and  C_19
REMARK                            x       y       z     vdW  Elec       q    Type
REMARK                         _______ _______ _______ _____ _____    ______ ____
ROOT
ATOM      1  O   UNL     1      -6.729  12.520  21.716  0.00  0.00    +0.000 OA
ATOM      2  C   UNL     1      -5.847  12.536  20.866  0.00  0.00    +0.000 C 
ATOM      3  N   UNL     1      -6.022  11.879  19.672  0.00  0.00    +0.000 N 
ATOM      4  C   UNL     1      -4.975  11.726  18.762  0.00  0.00    +0.000 A 
ATOM      5  C   UNL     1      -5.247  11.107  17.541  0.00  0.00    +0.000 A 
ATOM      6  C   UNL     1      -4.185  10.890  16.696  0.00  0.00    +0.000 A 
ATOM      7  C   UNL     1      -2.896  11.229  17.040  0.00  0.00    +0.000 A 
ATOM      8  C   UNL     1      -2.577  11.840  18.248  0.00  0.00    +0.000 A 
ATOM      9  C   UNL     1      -3.658  12.127  19.109  0.00  0.00    +0.000 A 
ATOM     10  O   UNL     1      -3.393  12.743  20.313  0.00  0.00    +0.000 OA
ATOM     11  C   UNL     1      -4.538  13.355  20.924  0.00  0.00    +0.000 C 
ATOM     12  O   UNL     1      -2.009  10.885  16.060  0.00  0.00    +0.000 OA
ATOM     13  C   UNL     1      -2.898  10.408  15.033  0.00  0.00    +0.000 C 
ATOM     14  O   UNL     1      -4.268  10.311  15.466  0.00  0.00    +0.000 OA
ATOM     15  H   UNL     1      -6.915  11.427  19.526  0.00  0.00    +0.000 HD
ENDROOT
BRANCH  11  16
ATOM     16  C   UNL     1      -4.179  13.770  22.346  0.00  0.00    +0.000 A 
ATOM     17  C   UNL     1      -3.708  12.823  23.274  0.00  0.00    +0.000 A 
ATOM     18  C   UNL     1      -3.353  13.210  24.568  0.00  0.00    +0.000 A 
ATOM     19  C   UNL     1      -3.462  14.545  24.954  0.00  0.00    +0.000 A 
ATOM     20  C   UNL     1      -3.925  15.492  24.044  0.00  0.00    +0.000 A 
ATOM     21  C   UNL     1      -4.282  15.109  22.750  0.00  0.00    +0.000 A 
ENDBRANCH  11  16
BRANCH   8  22
ATOM     22  C   UNL     1      -1.127  12.106  18.589  0.00  0.00    +0.000 C 
BRANCH  22  23
ATOM     23  C   UNL     1      -0.442  10.913  19.224  0.00  0.00    +0.000 A 
ATOM     24  C   UNL     1      -0.666  10.577  20.568  0.00  0.00    +0.000 A 
ATOM     25  C   UNL     1       0.080   9.569  21.185  0.00  0.00    +0.000 A 
ATOM     26  C   UNL     1       1.050   8.881  20.461  0.00  0.00    +0.000 A 
ATOM     27  C   UNL     1       1.243   9.166  19.110  0.00  0.00    +0.000 A 
ATOM     28  C   UNL     1       0.496  10.171  18.493  0.00  0.00    +0.000 A 
ENDBRANCH  22  23
ENDBRANCH   8  22
TORSDOF 3
ENDMDL
MODEL 7
REMARK VINA RESULT:      -7.7      7.013     10.153
REMARK  Name = 
REMARK  3 active torsions:
REMARK  status: ('A' for Active; 'I' for Inactive)
REMARK    1  A    between atoms: C_8  and  C_9
REMARK    2  A    between atoms: C_9  and  C_10
REMARK    3  A    between atoms: C_18  and  C_19
REMARK                            x       y       z     vdW  Elec       q    Type
REMARK                         _______ _______ _______ _____ _____    ______ ____
ROOT
ATOM      1  O   UNL     1      -0.102  13.033  22.171  0.00  0.00    +0.000 OA
ATOM      2  C   UNL     1      -0.980  12.604  21.434  0.00  0.00    +0.000 C 
ATOM      3  N   UNL     1      -0.652  11.902  20.298  0.00  0.00    +0.000 N 
ATOM      4  C   UNL     1      -1.614  11.558  19.349  0.00  0.00    +0.000 A 
ATOM      5  C   UNL     1      -1.217  10.786  18.256  0.00  0.00    +0.000 A 
ATOM      6  C   UNL     1      -2.160  10.531  17.290  0.00  0.00    +0.000 A 
ATOM      7  C   UNL     1      -3.438  11.039  17.363  0.00  0.00    +0.000 A 
ATOM      8  C   UNL     1      -3.876  11.818  18.429  0.00  0.00    +0.000 A 
ATOM      9  C   UNL     1      -2.943  12.046  19.463  0.00  0.00    +0.000 A 
ATOM     10  O   UNL     1      -3.334  12.804  20.546  0.00  0.00    +0.000 OA
ATOM     11  C   UNL     1      -2.501  12.648  21.704  0.00  0.00    +0.000 C 
ATOM     12  O   UNL     1      -4.182  10.682  16.275  0.00  0.00    +0.000 OA
ATOM     13  C   UNL     1      -3.269   9.809  15.586  0.00  0.00    +0.000 C 
ATOM     14  O   UNL     1      -1.951   9.790  16.166  0.00  0.00    +0.000 OA
ATOM     15  H   UNL     1       0.331  11.733  20.135  0.00  0.00    +0.000 HD
ENDROOT
BRANCH  11  16
ATOM     16  C   UNL     1      -2.875  13.711  22.730  0.00  0.00    +0.000 A 
ATOM     17  C   UNL     1      -3.089  13.367  24.076  0.00  0.00    +0.000 A 
ATOM     18  C   UNL     1      -3.405  14.346  25.021  0.00  0.00    +0.000 A 
ATOM     19  C   UNL     1      -3.512  15.681  24.635  0.00  0.00    +0.000 A 
ATOM     20  C   UNL     1      -3.301  16.036  23.305  0.00  0.00    +0.000 A 
ATOM     21  C   UNL     1      -2.986  15.059  22.357  0.00  0.00    +0.000 A 
ENDBRANCH  11  16
BRANCH   8  22
ATOM     22  C   UNL     1      -5.269  12.409  18.397  0.00  0.00    +0.000 C 
BRANCH  22  23
ATOM     23  C   UNL     1      -6.260  11.629  19.235  0.00  0.00    +0.000 A 
ATOM     24  C   UNL     1      -6.841  12.192  20.383  0.00  0.00    +0.000 A 
ATOM     25  C   UNL     1      -7.638  11.417  21.230  0.00  0.00    +0.000 A 
ATOM     26  C   UNL     1      -7.869  10.076  20.934  0.00  0.00    +0.000 A 
ATOM     27  C   UNL     1      -7.344   9.521  19.768  0.00  0.00    +0.000 A 
ATOM     28  C   UNL     1      -6.550  10.296  18.919  0.00  0.00    +0.000 A 
ENDBRANCH  22  23
ENDBRANCH   8  22
TORSDOF 3
ENDMDL
MODEL 8
REMARK VINA RESULT:      -7.7      6.193      9.132
REMARK  Name = 
REMARK  3 active torsions:
REMARK  status: ('A' for Active; 'I' for Inactive)
REMARK    1  A    between atoms: C_8  and  C_9
REMARK    2  A    between atoms: C_9  and  C_10
REMARK    3  A    between atoms: C_18  and  C_19
REMARK                            x       y       z     vdW  Elec       q    Type
REMARK                         _______ _______ _______ _____ _____    ______ ____
ROOT
ATOM      1  O   UNL     1      -6.773  13.713  21.735  0.00  0.00    +0.000 OA
ATOM      2  C   UNL     1      -5.819  13.459  21.011  0.00  0.00    +0.000 C 
ATOM      3  N   UNL     1      -5.986  12.684  19.888  0.00  0.00    +0.000 N 
ATOM      4  C   UNL     1      -4.897  12.228  19.146  0.00  0.00    +0.000 A 
ATOM      5  C   UNL     1      -5.149  11.503  17.980  0.00  0.00    +0.000 A 
ATOM      6  C   UNL     1      -4.063  10.991  17.311  0.00  0.00    +0.000 A 
ATOM      7  C   UNL     1      -2.777  11.145  17.778  0.00  0.00    +0.000 A 
ATOM      8  C   UNL     1      -2.479  11.852  18.938  0.00  0.00    +0.000 A 
ATOM      9  C   UNL     1      -3.572  12.438  19.612  0.00  0.00    +0.000 A 
ATOM     10  O   UNL     1      -3.325  13.158  20.761  0.00  0.00    +0.000 OA
ATOM     11  C   UNL     1      -4.393  14.038  21.143  0.00  0.00    +0.000 C 
ATOM     12  O   UNL     1      -1.872  10.521  16.967  0.00  0.00    +0.000 OA
ATOM     13  C   UNL     1      -2.721  10.069  15.896  0.00  0.00    +0.000 C 
ATOM     14  O   UNL     1      -4.122  10.272  16.156  0.00  0.00    +0.000 OA
ATOM     15  H   UNL     1      -6.928  12.378  19.681  0.00  0.00    +0.000 HD
ENDROOT
BRANCH  11  16
ATOM     16  C   UNL     1      -4.114  14.576  22.542  0.00  0.00    +0.000 A 
ATOM     17  C   UNL     1      -4.449  15.898  22.884  0.00  0.00    +0.000 A 
ATOM     18  C   UNL     1      -4.218  16.381  24.174  0.00  0.00    +0.000 A 
ATOM     19  C   UNL     1      -3.652  15.552  25.140  0.00  0.00    +0.000 A 
ATOM     20  C   UNL     1      -3.317  14.240  24.815  0.00  0.00    +0.000 A 
ATOM     21  C   UNL     1      -3.545  13.754  23.526  0.00  0.00    +0.000 A 
ENDBRANCH  11  16
BRANCH   8  22
ATOM     22  C   UNL     1      -1.050  11.906  19.431  0.00  0.00    +0.000 C 
BRANCH  22  23
ATOM     23  C   UNL     1      -0.785  10.952  20.578  0.00  0.00    +0.000 A 
ATOM     24  C   UNL     1      -0.986  11.346  21.911  0.00  0.00    +0.000 A 
ATOM     25  C   UNL     1      -0.599  10.514  22.965  0.00  0.00    +0.000 A 
ATOM     26  C   UNL     1      -0.016   9.278  22.697  0.00  0.00    +0.000 A 
ATOM     27  C   UNL     1       0.137   8.852  21.379  0.00  0.00    +0.000 A 
ATOM     28  C   UNL     1      -0.252   9.682  20.325  0.00  0.00    +0.000 A 
ENDBRANCH  22  23
ENDBRANCH   8  22
TORSDOF 3
ENDMDL
MODEL 9
REMARK VINA RESULT:      -7.6      7.189     10.192
REMARK  Name = 
REMARK  3 active torsions:
REMARK  status: ('A' for Active; 'I' for Inactive)
REMARK    1  A    between atoms: C_8  and  C_9
REMARK    2  A    between atoms: C_9  and  C_10
REMARK    3  A    between atoms: C_18  and  C_19
REMARK                            x       y       z     vdW  Elec       q    Type
REMARK                         _______ _______ _______ _____ _____    ______ ____
ROOT
ATOM      1  O   UNL     1       0.013  12.378  21.899  0.00  0.00    +0.000 OA
ATOM      2  C   UNL     1      -0.921  12.085  21.163  0.00  0.00    +0.000 C 
ATOM      3  N   UNL     1      -0.684  11.552  19.919  0.00  0.00    +0.000 N 
ATOM      4  C   UNL     1      -1.710  11.377  18.990  0.00  0.00    +0.000 A 
ATOM      5  C   UNL     1      -1.403  10.766  17.774  0.00  0.00    +0.000 A 
ATOM      6  C   UNL     1      -2.409  10.681  16.841  0.00  0.00    +0.000 A 
ATOM      7  C   UNL     1      -3.662  11.205  17.068  0.00  0.00    +0.000 A 
ATOM      8  C   UNL     1      -4.011  11.828  18.262  0.00  0.00    +0.000 A 
ATOM      9  C   UNL     1      -3.012  11.876  19.258  0.00  0.00    +0.000 A 
ATOM     10  O   UNL     1      -3.314  12.475  20.462  0.00  0.00    +0.000 OA
ATOM     11  C   UNL     1      -2.421  12.128  21.530  0.00  0.00    +0.000 C 
ATOM     12  O   UNL     1      -4.480  11.033  15.987  0.00  0.00    +0.000 OA
ATOM     13  C   UNL     1      -3.638  10.249  15.122  0.00  0.00    +0.000 C 
ATOM     14  O   UNL     1      -2.291  10.110  15.611  0.00  0.00    +0.000 OA
ATOM     15  H   UNL     1       0.283  11.384  19.671  0.00  0.00    +0.000 HD
ENDROOT
BRANCH  11  16
ATOM     16  C   UNL     1      -2.699  13.036  22.723  0.00  0.00    +0.000 A 
ATOM     17  C   UNL     1      -2.259  14.371  22.727  0.00  0.00    +0.000 A 
ATOM     18  C   UNL     1      -2.538  15.210  23.809  0.00  0.00    +0.000 A 
ATOM     19  C   UNL     1      -3.259  14.729  24.899  0.00  0.00    +0.000 A 
ATOM     20  C   UNL     1      -3.702  13.408  24.907  0.00  0.00    +0.000 A 
ATOM     21  C   UNL     1      -3.424  12.566  23.828  0.00  0.00    +0.000 A 
ENDBRANCH  11  16
BRANCH   8  22
ATOM     22  C   UNL     1      -5.382  12.452  18.403  0.00  0.00    +0.000 C 
BRANCH  22  23
ATOM     23  C   UNL     1      -6.187  11.858  19.541  0.00  0.00    +0.000 A 
ATOM     24  C   UNL     1      -6.708  10.557  19.459  0.00  0.00    +0.000 A 
ATOM     25  C   UNL     1      -7.571  10.073  20.446  0.00  0.00    +0.000 A 
ATOM     26  C   UNL     1      -7.914  10.880  21.527  0.00  0.00    +0.000 A 
ATOM     27  C   UNL     1      -7.359  12.153  21.648  0.00  0.00    +0.000 A 
ATOM     28  C   UNL     1      -6.493  12.637  20.664  0.00  0.00    +0.000 A 
ENDBRANCH  22  23
ENDBRANCH   8  22
TORSDOF 3
ENDMDL
