MODEL 1
REMARK VINA RESULT:      -9.2      0.000      0.000
REMARK  Name = 
REMARK  4 active torsions:
REMARK  status: ('A' for Active; 'I' for Inactive)
REMARK    1  A    between atoms: C_2  and  O_3
REMARK    2  A    between atoms: C_2  and  C_4
REMARK    3  A    between atoms: C_6  and  C_7
REMARK    4  A    between atoms: C_7  and  N_8
REMARK                            x       y       z     vdW  Elec       q    Type
REMARK                         _______ _______ _______ _____ _____    ______ ____
ROOT
ATOM      1  C   UNL     1       2.125   4.018  18.445  0.00  0.00    +0.000 A 
ATOM      2  C   UNL     1       2.174   5.361  18.466  0.00  0.00    +0.000 A 
ATOM      3  C   UNL     1       3.215   6.129  17.793  0.00  0.00    +0.000 A 
ATOM      4  C   UNL     1       4.144   5.458  17.063  0.00  0.00    +0.000 A 
ATOM      5  C   UNL     1       5.204   6.147  16.324  0.00  0.00    +0.000 A 
ATOM      6  C   UNL     1       6.170   5.474  15.685  0.00  0.00    +0.000 A 
ATOM      7  C   UNL     1       6.136   4.042  15.692  0.00  0.00    +0.000 A 
ATOM      8  C   UNL     1       5.144   3.406  16.328  0.00  0.00    +0.000 A 
ATOM      9  N   UNL     1       4.125   4.049  17.024  0.00  0.00    +0.000 N 
ATOM     10  C   UNL     1       3.155   3.284  17.676  0.00  0.00    +0.000 A 
ATOM     11  O   UNL     1       3.099   2.051  17.648  0.00  0.00    +0.000 OA
ENDROOT
BRANCH   1  13
ATOM     12  O   UNL     1       0.762   3.606  20.353  0.00  0.00    +0.000 OA
ATOM     13  C   UNL     1       1.044   3.337  19.193  0.00  0.00    +0.000 C 
BRANCH  13  14
ATOM     14  O   UNL     1       0.376   2.385  18.505  0.00  0.00    +0.000 OA
ATOM     15  H   UNL     1       0.543   1.462  18.818  0.00  0.00    +0.000 HD
ENDBRANCH  13  14
ENDBRANCH   1  13
BRANCH   3  16
ATOM     16  C   UNL     1       3.117   7.653  17.935  0.00  0.00    +0.000 C 
BRANCH  16  17
ATOM     17  N   UNL     1       1.906   8.213  18.568  0.00  0.00    +0.000 NA
ATOM     18  C   UNL     1       1.529   9.531  18.055  0.00  0.00    +0.000 C 
ATOM     19  C   UNL     1       0.205  10.051  18.623  0.00  0.00    +0.000 C 
ATOM     20  C   UNL     1       0.158   9.953  20.120  0.00  0.00    +0.000 A 
ATOM     21  C   UNL     1      -0.712  10.770  20.856  0.00  0.00    +0.000 A 
ATOM     22  C   UNL     1      -0.773  10.651  22.243  0.00  0.00    +0.000 A 
ATOM     23 CL   UNL     1      -1.837  11.663  23.141  0.00  0.00    +0.000 Cl
ATOM     24  C   UNL     1       0.019   9.720  22.907  0.00  0.00    +0.000 A 
ATOM     25  C   UNL     1       0.878   8.899  22.177  0.00  0.00    +0.000 A 
ATOM     26  C   UNL     1       0.952   9.002  20.778  0.00  0.00    +0.000 A 
ATOM     27  C   UNL     1       1.943   8.132  20.033  0.00  0.00    +0.000 C 
ENDBRANCH  16  17
ENDBRANCH   3  16
TORSDOF 4
ENDMDL
MODEL 2
REMARK VINA RESULT:      -9.1      0.985      1.002
REMARK  Name = 
REMARK  4 active torsions:
REMARK  status: ('A' for Active; 'I' for Inactive)
REMARK    1  A    between atoms: C_2  and  O_3
REMARK    2  A    between atoms: C_2  and  C_4
REMARK    3  A    between atoms: C_6  and  C_7
REMARK    4  A    between atoms: C_7  and  N_8
REMARK                            x       y       z     vdW  Elec       q    Type
REMARK                         _______ _______ _______ _____ _____    ______ ____
ROOT
ATOM      1  C   UNL     1       2.559   4.357  18.554  0.00  0.00    +0.000 A 
ATOM      2  C   UNL     1       2.347   5.660  18.300  0.00  0.00    +0.000 A 
ATOM      3  C   UNL     1       3.413   6.578  17.916  0.00  0.00    +0.000 A 
ATOM      4  C   UNL     1       4.666   6.083  17.752  0.00  0.00    +0.000 A 
ATOM      5  C   UNL     1       5.791   6.923  17.334  0.00  0.00    +0.000 A 
ATOM      6  C   UNL     1       7.040   6.446  17.265  0.00  0.00    +0.000 A 
ATOM      7  C   UNL     1       7.271   5.064  17.570  0.00  0.00    +0.000 A 
ATOM      8  C   UNL     1       6.240   4.280  17.909  0.00  0.00    +0.000 A 
ATOM      9  N   UNL     1       4.925   4.723  18.016  0.00  0.00    +0.000 N 
ATOM     10  C   UNL     1       3.931   3.821  18.405  0.00  0.00    +0.000 A 
ATOM     11  O   UNL     1       4.120   2.622  18.627  0.00  0.00    +0.000 OA
ENDROOT
BRANCH   1  13
ATOM     12  O   UNL     1       0.762   3.734  19.985  0.00  0.00    +0.000 OA
ATOM     13  C   UNL     1       1.411   3.521  18.970  0.00  0.00    +0.000 C 
BRANCH  13  14
ATOM     14  O   UNL     1       1.119   2.489  18.147  0.00  0.00    +0.000 OA
ATOM     15  H   UNL     1       1.168   2.709  17.185  0.00  0.00    +0.000 HD
ENDBRANCH  13  14
ENDBRANCH   1  13
BRANCH   3  16
ATOM     16  C   UNL     1       2.985   8.032  17.677  0.00  0.00    +0.000 C 
BRANCH  16  17
ATOM     17  N   UNL     1       1.790   8.529  18.388  0.00  0.00    +0.000 NA
ATOM     18  C   UNL     1       1.384   9.877  17.987  0.00  0.00    +0.000 C 
ATOM     19  C   UNL     1       0.074  10.338  18.633  0.00  0.00    +0.000 C 
ATOM     20  C   UNL     1       0.077  10.128  20.119  0.00  0.00    +0.000 A 
ATOM     21  C   UNL     1      -0.777  10.878  20.942  0.00  0.00    +0.000 A 
ATOM     22  C   UNL     1      -0.792  10.655  22.317  0.00  0.00    +0.000 A 
ATOM     23 CL   UNL     1      -1.836  11.585  23.321  0.00  0.00    +0.000 Cl
ATOM     24  C   UNL     1       0.030   9.687  22.884  0.00  0.00    +0.000 A 
ATOM     25  C   UNL     1       0.873   8.933  22.068  0.00  0.00    +0.000 A 
ATOM     26  C   UNL     1       0.901   9.141  20.680  0.00  0.00    +0.000 A 
ATOM     27  C   UNL     1       1.875   8.341  19.840  0.00  0.00    +0.000 C 
ENDBRANCH  16  17
ENDBRANCH   3  16
TORSDOF 4
ENDMDL
MODEL 3
REMARK VINA RESULT:      -8.8      2.370      3.878
REMARK  Name = 
REMARK  4 active torsions:
REMARK  status: ('A' for Active; 'I' for Inactive)
REMARK    1  A    between atoms: C_2  and  O_3
REMARK    2  A    between atoms: C_2  and  C_4
REMARK    3  A    between atoms: C_6  and  C_7
REMARK    4  A    between atoms: C_7  and  N_8
REMARK                            x       y       z     vdW  Elec       q    Type
REMARK                         _______ _______ _______ _____ _____    ______ ____
ROOT
ATOM      1  C   UNL     1       6.015   6.223  17.855  0.00  0.00    +0.000 A 
ATOM      2  C   UNL     1       4.971   7.064  17.756  0.00  0.00    +0.000 A 
ATOM      3  C   UNL     1       3.585   6.612  17.748  0.00  0.00    +0.000 A 
ATOM      4  C   UNL     1       3.336   5.287  17.907  0.00  0.00    +0.000 A 
ATOM      5  C   UNL     1       1.975   4.746  17.947  0.00  0.00    +0.000 A 
ATOM      6  C   UNL     1       1.741   3.429  18.010  0.00  0.00    +0.000 A 
ATOM      7  C   UNL     1       2.856   2.531  18.081  0.00  0.00    +0.000 A 
ATOM      8  C   UNL     1       4.102   3.021  18.090  0.00  0.00    +0.000 A 
ATOM      9  N   UNL     1       4.407   4.377  18.007  0.00  0.00    +0.000 N 
ATOM     10  C   UNL     1       5.747   4.775  17.997  0.00  0.00    +0.000 A 
ATOM     11  O   UNL     1       6.707   4.007  18.101  0.00  0.00    +0.000 OA
ENDROOT
BRANCH   1  13
ATOM     12  O   UNL     1       7.835   7.382  16.849  0.00  0.00    +0.000 OA
ATOM     13  C   UNL     1       7.384   6.787  17.817  0.00  0.00    +0.000 C 
BRANCH  13  14
ATOM     14  O   UNL     1       8.117   6.598  18.938  0.00  0.00    +0.000 OA
ATOM     15  H   UNL     1       7.764   7.057  19.738  0.00  0.00    +0.000 HD
ENDBRANCH  13  14
ENDBRANCH   1  13
BRANCH   3  16
ATOM     16  C   UNL     1       2.526   7.714  17.616  0.00  0.00    +0.000 C 
BRANCH  16  17
ATOM     17  N   UNL     1       2.148   8.462  18.832  0.00  0.00    +0.000 NA
ATOM     18  C   UNL     1       1.791   7.605  19.963  0.00  0.00    +0.000 C 
ATOM     19  C   UNL     1       1.523   8.381  21.256  0.00  0.00    +0.000 C 
ATOM     20  C   UNL     1       0.570   9.520  21.040  0.00  0.00    +0.000 A 
ATOM     21  C   UNL     1      -0.160  10.047  22.116  0.00  0.00    +0.000 A 
ATOM     22  C   UNL     1      -1.019  11.125  21.915  0.00  0.00    +0.000 A 
ATOM     23 CL   UNL     1      -1.918  11.760  23.238  0.00  0.00    +0.000 Cl
ATOM     24  C   UNL     1      -1.155  11.692  20.652  0.00  0.00    +0.000 A 
ATOM     25  C   UNL     1      -0.423  11.178  19.581  0.00  0.00    +0.000 A 
ATOM     26  C   UNL     1       0.449  10.093  19.765  0.00  0.00    +0.000 A 
ATOM     27  C   UNL     1       1.178   9.529  18.563  0.00  0.00    +0.000 C 
ENDBRANCH  16  17
ENDBRANCH   3  16
TORSDOF 4
ENDMDL
MODEL 4
REMARK VINA RESULT:      -8.7      2.283      3.469
REMARK  Name = 
REMARK  4 active torsions:
REMARK  status: ('A' for Active; 'I' for Inactive)
REMARK    1  A    between atoms: C_2  and  O_3
REMARK    2  A    between atoms: C_2  and  C_4
REMARK    3  A    between atoms: C_6  and  C_7
REMARK    4  A    between atoms: C_7  and  N_8
REMARK                            x       y       z     vdW  Elec       q    Type
REMARK                         _______ _______ _______ _____ _____    ______ ____
ROOT
ATOM      1  C   UNL     1       5.815   5.509  18.884  0.00  0.00    +0.000 A 
ATOM      2  C   UNL     1       5.071   6.514  18.391  0.00  0.00    +0.000 A 
ATOM      3  C   UNL     1       3.677   6.350  17.995  0.00  0.00    +0.000 A 
ATOM      4  C   UNL     1       3.087   5.142  18.188  0.00  0.00    +0.000 A 
ATOM      5  C   UNL     1       1.683   4.895  17.853  0.00  0.00    +0.000 A 
ATOM      6  C   UNL     1       1.136   3.677  17.959  0.00  0.00    +0.000 A 
ATOM      7  C   UNL     1       1.941   2.598  18.452  0.00  0.00    +0.000 A 
ATOM      8  C   UNL     1       3.213   2.827  18.803  0.00  0.00    +0.000 A 
ATOM      9  N   UNL     1       3.840   4.065  18.697  0.00  0.00    +0.000 N 
ATOM     10  C   UNL     1       5.183   4.183  19.066  0.00  0.00    +0.000 A 
ATOM     11  O   UNL     1       5.866   3.267  19.531  0.00  0.00    +0.000 OA
ENDROOT
BRANCH   1  13
ATOM     12  O   UNL     1       7.996   6.368  18.471  0.00  0.00    +0.000 OA
ATOM     13  C   UNL     1       7.232   5.777  19.221  0.00  0.00    +0.000 C 
BRANCH  13  14
ATOM     14  O   UNL     1       7.634   5.320  20.428  0.00  0.00    +0.000 OA
ATOM     15  H   UNL     1       7.443   4.364  20.587  0.00  0.00    +0.000 HD
ENDBRANCH  13  14
ENDBRANCH   1  13
BRANCH   3  16
ATOM     16  C   UNL     1       2.989   7.605  17.442  0.00  0.00    +0.000 C 
BRANCH  16  17
ATOM     17  N   UNL     1       1.849   8.160  18.198  0.00  0.00    +0.000 NA
ATOM     18  C   UNL     1       1.477   9.517  17.791  0.00  0.00    +0.000 C 
ATOM     19  C   UNL     1       0.217  10.039  18.488  0.00  0.00    +0.000 C 
ATOM     20  C   UNL     1       0.281   9.854  19.976  0.00  0.00    +0.000 A 
ATOM     21  C   UNL     1      -0.504  10.650  20.823  0.00  0.00    +0.000 A 
ATOM     22  C   UNL     1      -0.465  10.452  22.201  0.00  0.00    +0.000 A 
ATOM     23 CL   UNL     1      -1.424  11.439  23.235  0.00  0.00    +0.000 Cl
ATOM     24  C   UNL     1       0.345   9.461  22.748  0.00  0.00    +0.000 A 
ATOM     25  C   UNL     1       1.120   8.661  21.908  0.00  0.00    +0.000 A 
ATOM     26  C   UNL     1       1.091   8.845  20.516  0.00  0.00    +0.000 A 
ATOM     27  C   UNL     1       1.994   7.993  19.648  0.00  0.00    +0.000 C 
ENDBRANCH  16  17
ENDBRANCH   3  16
TORSDOF 4
ENDMDL
MODEL 5
REMARK VINA RESULT:      -8.6      2.468      4.030
REMARK  Name = 
REMARK  4 active torsions:
REMARK  status: ('A' for Active; 'I' for Inactive)
REMARK    1  A    between atoms: C_2  and  O_3
REMARK    2  A    between atoms: C_2  and  C_4
REMARK    3  A    between atoms: C_6  and  C_7
REMARK    4  A    between atoms: C_7  and  N_8
REMARK                            x       y       z     vdW  Elec       q    Type
REMARK                         _______ _______ _______ _____ _____    ______ ____
ROOT
ATOM      1  C   UNL     1       5.774   6.250  17.670  0.00  0.00    +0.000 A 
ATOM      2  C   UNL     1       4.621   6.941  17.665  0.00  0.00    +0.000 A 
ATOM      3  C   UNL     1       3.387   6.434  18.254  0.00  0.00    +0.000 A 
ATOM      4  C   UNL     1       3.419   5.233  18.887  0.00  0.00    +0.000 A 
ATOM      5  C   UNL     1       2.238   4.660  19.538  0.00  0.00    +0.000 A 
ATOM      6  C   UNL     1       2.255   3.435  20.078  0.00  0.00    +0.000 A 
ATOM      7  C   UNL     1       3.475   2.684  20.052  0.00  0.00    +0.000 A 
ATOM      8  C   UNL     1       4.571   3.220  19.498  0.00  0.00    +0.000 A 
ATOM      9  N   UNL     1       4.609   4.479  18.906  0.00  0.00    +0.000 N 
ATOM     10  C   UNL     1       5.802   4.927  18.333  0.00  0.00    +0.000 A 
ATOM     11  O   UNL     1       6.866   4.301  18.347  0.00  0.00    +0.000 OA
ENDROOT
BRANCH   1  13
ATOM     12  O   UNL     1       7.396   7.952  17.298  0.00  0.00    +0.000 OA
ATOM     13  C   UNL     1       6.959   6.846  17.012  0.00  0.00    +0.000 C 
BRANCH  13  14
ATOM     14  O   UNL     1       7.537   6.079  16.061  0.00  0.00    +0.000 OA
ATOM     15  H   UNL     1       7.208   6.248  15.144  0.00  0.00    +0.000 HD
ENDBRANCH  13  14
ENDBRANCH   1  13
BRANCH   3  16
ATOM     16  C   UNL     1       2.167   7.357  18.144  0.00  0.00    +0.000 C 
BRANCH  16  17
ATOM     17  N   UNL     1       1.916   8.308  19.245  0.00  0.00    +0.000 NA
ATOM     18  C   UNL     1       1.474   7.670  20.486  0.00  0.00    +0.000 C 
ATOM     19  C   UNL     1       1.337   8.645  21.659  0.00  0.00    +0.000 C 
ATOM     20  C   UNL     1       0.537   9.859  21.289  0.00  0.00    +0.000 A 
ATOM     21  C   UNL     1      -0.095  10.621  22.284  0.00  0.00    +0.000 A 
ATOM     22  C   UNL     1      -0.810  11.765  21.937  0.00  0.00    +0.000 A 
ATOM     23 CL   UNL     1      -1.591  12.689  23.161  0.00  0.00    +0.000 Cl
ATOM     24  C   UNL     1      -0.899  12.166  20.608  0.00  0.00    +0.000 A 
ATOM     25  C   UNL     1      -0.263  11.416  19.616  0.00  0.00    +0.000 A 
ATOM     26  C   UNL     1       0.464  10.262  19.947  0.00  0.00    +0.000 A 
ATOM     27  C   UNL     1       1.087   9.447  18.833  0.00  0.00    +0.000 C 
ENDBRANCH  16  17
ENDBRANCH   3  16
TORSDOF 4
ENDMDL
MODEL 6
REMARK VINA RESULT:      -8.5      0.901      1.010
REMARK  Name = 
REMARK  4 active torsions:
REMARK  status: ('A' for Active; 'I' for Inactive)
REMARK    1  A    between atoms: C_2  and  O_3
REMARK    2  A    between atoms: C_2  and  C_4
REMARK    3  A    between atoms: C_6  and  C_7
REMARK    4  A    between atoms: C_7  and  N_8
REMARK                            x       y       z     vdW  Elec       q    Type
REMARK                         _______ _______ _______ _____ _____    ______ ____
ROOT
ATOM      1  C   UNL     1       1.928   3.824  19.076  0.00  0.00    +0.000 A 
ATOM      2  C   UNL     1       2.070   5.119  19.404  0.00  0.00    +0.000 A 
ATOM      3  C   UNL     1       2.998   6.015  18.724  0.00  0.00    +0.000 A 
ATOM      4  C   UNL     1       3.709   5.531  17.673  0.00  0.00    +0.000 A 
ATOM      5  C   UNL     1       4.638   6.366  16.907  0.00  0.00    +0.000 A 
ATOM      6  C   UNL     1       5.404   5.858  15.933  0.00  0.00    +0.000 A 
ATOM      7  C   UNL     1       5.277   4.468  15.607  0.00  0.00    +0.000 A 
ATOM      8  C   UNL     1       4.397   3.710  16.273  0.00  0.00    +0.000 A 
ATOM      9  N   UNL     1       3.589   4.176  17.306  0.00  0.00    +0.000 N 
ATOM     10  C   UNL     1       2.725   3.287  17.951  0.00  0.00    +0.000 A 
ATOM     11  O   UNL     1       2.583   2.101  17.644  0.00  0.00    +0.000 OA
ENDROOT
BRANCH   1  13
ATOM     12  O   UNL     1       1.052   2.866  21.071  0.00  0.00    +0.000 OA
ATOM     13  C   UNL     1       0.981   2.996  19.857  0.00  0.00    +0.000 C 
BRANCH  13  14
ATOM     14  O   UNL     1       0.019   2.381  19.133  0.00  0.00    +0.000 OA
ATOM     15  H   UNL     1       0.169   1.415  18.992  0.00  0.00    +0.000 HD
ENDBRANCH  13  14
ENDBRANCH   1  13
BRANCH   3  16
ATOM     16  C   UNL     1       3.033   7.458  19.242  0.00  0.00    +0.000 C 
BRANCH  16  17
ATOM     17  N   UNL     1       1.752   8.181  19.366  0.00  0.00    +0.000 NA
ATOM     18  C   UNL     1       1.587   9.260  18.390  0.00  0.00    +0.000 C 
ATOM     19  C   UNL     1       0.207   9.923  18.440  0.00  0.00    +0.000 C 
ATOM     20  C   UNL     1      -0.179  10.312  19.837  0.00  0.00    +0.000 A 
ATOM     21  C   UNL     1      -1.135  11.315  20.054  0.00  0.00    +0.000 A 
ATOM     22  C   UNL     1      -1.512  11.649  21.353  0.00  0.00    +0.000 A 
ATOM     23 CL   UNL     1      -2.680  12.887  21.612  0.00  0.00    +0.000 Cl
ATOM     24  C   UNL     1      -0.952  10.989  22.442  0.00  0.00    +0.000 A 
ATOM     25  C   UNL     1      -0.008   9.984  22.230  0.00  0.00    +0.000 A 
ATOM     26  C   UNL     1       0.383   9.632  20.928  0.00  0.00    +0.000 A 
ATOM     27  C   UNL     1       1.455   8.578  20.747  0.00  0.00    +0.000 C 
ENDBRANCH  16  17
ENDBRANCH   3  16
TORSDOF 4
ENDMDL
MODEL 7
REMARK VINA RESULT:      -8.4      1.197      1.840
REMARK  Name = 
REMARK  4 active torsions:
REMARK  status: ('A' for Active; 'I' for Inactive)
REMARK    1  A    between atoms: C_2  and  O_3
REMARK    2  A    between atoms: C_2  and  C_4
REMARK    3  A    between atoms: C_6  and  C_7
REMARK    4  A    between atoms: C_7  and  N_8
REMARK                            x       y       z     vdW  Elec       q    Type
REMARK                         _______ _______ _______ _____ _____    ______ ____
ROOT
ATOM      1  C   UNL     1       2.608   3.918  18.809  0.00  0.00    +0.000 A 
ATOM      2  C   UNL     1       2.175   5.158  18.527  0.00  0.00    +0.000 A 
ATOM      3  C   UNL     1       3.064   6.233  18.102  0.00  0.00    +0.000 A 
ATOM      4  C   UNL     1       4.381   5.952  17.928  0.00  0.00    +0.000 A 
ATOM      5  C   UNL     1       5.341   6.959  17.469  0.00  0.00    +0.000 A 
ATOM      6  C   UNL     1       6.652   6.699  17.390  0.00  0.00    +0.000 A 
ATOM      7  C   UNL     1       7.118   5.385  17.725  0.00  0.00    +0.000 A 
ATOM      8  C   UNL     1       6.240   4.447  18.101  0.00  0.00    +0.000 A 
ATOM      9  N   UNL     1       4.870   4.664  18.220  0.00  0.00    +0.000 N 
ATOM     10  C   UNL     1       4.049   3.618  18.650  0.00  0.00    +0.000 A 
ATOM     11  O   UNL     1       4.441   2.474  18.897  0.00  0.00    +0.000 OA
ENDROOT
BRANCH   1  13
ATOM     12  O   UNL     1       0.868   3.096  20.210  0.00  0.00    +0.000 OA
ATOM     13  C   UNL     1       1.624   2.911  19.267  0.00  0.00    +0.000 C 
BRANCH  13  14
ATOM     14  O   UNL     1       1.613   1.754  18.566  0.00  0.00    +0.000 OA
ATOM     15  H   UNL     1       1.988   0.980  19.052  0.00  0.00    +0.000 HD
ENDBRANCH  13  14
ENDBRANCH   1  13
BRANCH   3  16
ATOM     16  C   UNL     1       2.392   7.586  17.835  0.00  0.00    +0.000 C 
BRANCH  16  17
ATOM     17  N   UNL     1       2.038   8.426  18.996  0.00  0.00    +0.000 NA
ATOM     18  C   UNL     1       1.710   7.659  20.199  0.00  0.00    +0.000 C 
ATOM     19  C   UNL     1       1.467   8.534  21.433  0.00  0.00    +0.000 C 
ATOM     20  C   UNL     1       0.505   9.649  21.150  0.00  0.00    +0.000 A 
ATOM     21  C   UNL     1      -0.204  10.257  22.198  0.00  0.00    +0.000 A 
ATOM     22  C   UNL     1      -1.072  11.313  21.932  0.00  0.00    +0.000 A 
ATOM     23 CL   UNL     1      -1.944  12.047  23.221  0.00  0.00    +0.000 Cl
ATOM     24  C   UNL     1      -1.238  11.780  20.632  0.00  0.00    +0.000 A 
ATOM     25  C   UNL     1      -0.528  11.185  19.588  0.00  0.00    +0.000 A 
ATOM     26  C   UNL     1       0.353  10.120  19.837  0.00  0.00    +0.000 A 
ATOM     27  C   UNL     1       1.057   9.466  18.667  0.00  0.00    +0.000 C 
ENDBRANCH  16  17
ENDBRANCH   3  16
TORSDOF 4
ENDMDL
MODEL 8
REMARK VINA RESULT:      -8.3      2.168      3.776
REMARK  Name = 
REMARK  4 active torsions:
REMARK  status: ('A' for Active; 'I' for Inactive)
REMARK    1  A    between atoms: C_2  and  O_3
REMARK    2  A    between atoms: C_2  and  C_4
REMARK    3  A    between atoms: C_6  and  C_7
REMARK    4  A    between atoms: C_7  and  N_8
REMARK                            x       y       z     vdW  Elec       q    Type
REMARK                         _______ _______ _______ _____ _____    ______ ____
ROOT
ATOM      1  C   UNL     1       5.464   4.751  19.001  0.00  0.00    +0.000 A 
ATOM      2  C   UNL     1       4.742   5.801  18.573  0.00  0.00    +0.000 A 
ATOM      3  C   UNL     1       3.309   5.729  18.317  0.00  0.00    +0.000 A 
ATOM      4  C   UNL     1       2.663   4.564  18.580  0.00  0.00    +0.000 A 
ATOM      5  C   UNL     1       1.219   4.409  18.387  0.00  0.00    +0.000 A 
ATOM      6  C   UNL     1       0.607   3.231  18.559  0.00  0.00    +0.000 A 
ATOM      7  C   UNL     1       1.383   2.103  18.982  0.00  0.00    +0.000 A 
ATOM      8  C   UNL     1       2.696   2.248  19.203  0.00  0.00    +0.000 A 
ATOM      9  N   UNL     1       3.390   3.441  19.024  0.00  0.00    +0.000 N 
ATOM     10  C   UNL     1       4.767   3.471  19.258  0.00  0.00    +0.000 A 
ATOM     11  O   UNL     1       5.430   2.513  19.664  0.00  0.00    +0.000 OA
ENDROOT
BRANCH   1  13
ATOM     12  O   UNL     1       7.400   5.565  20.122  0.00  0.00    +0.000 OA
ATOM     13  C   UNL     1       6.921   4.926  19.195  0.00  0.00    +0.000 C 
BRANCH  13  14
ATOM     14  O   UNL     1       7.703   4.327  18.270  0.00  0.00    +0.000 OA
ATOM     15  H   UNL     1       8.366   3.695  18.642  0.00  0.00    +0.000 HD
ENDBRANCH  13  14
ENDBRANCH   1  13
BRANCH   3  16
ATOM     16  C   UNL     1       2.654   7.025  17.822  0.00  0.00    +0.000 C 
BRANCH  16  17
ATOM     17  N   UNL     1       2.252   8.027  18.828  0.00  0.00    +0.000 NA
ATOM     18  C   UNL     1       1.799   7.444  20.092  0.00  0.00    +0.000 C 
ATOM     19  C   UNL     1       1.503   8.487  21.175  0.00  0.00    +0.000 C 
ATOM     20  C   UNL     1       0.616   9.586  20.668  0.00  0.00    +0.000 A 
ATOM     21  C   UNL     1      -0.141  10.355  21.564  0.00  0.00    +0.000 A 
ATOM     22  C   UNL     1      -0.938  11.395  21.090  0.00  0.00    +0.000 A 
ATOM     23 CL   UNL     1      -1.871  12.327  22.195  0.00  0.00    +0.000 Cl
ATOM     24  C   UNL     1      -0.985  11.684  19.731  0.00  0.00    +0.000 A 
ATOM     25  C   UNL     1      -0.225  10.928  18.837  0.00  0.00    +0.000 A 
ATOM     26  C   UNL     1       0.586   9.878  19.296  0.00  0.00    +0.000 A 
ATOM     27  C   UNL     1       1.346   9.045  18.284  0.00  0.00    +0.000 C 
ENDBRANCH  16  17
ENDBRANCH   3  16
TORSDOF 4
ENDMDL
MODEL 9
REMARK VINA RESULT:      -8.2      4.621      8.685
REMARK  Name = 
REMARK  4 active torsions:
REMARK  status: ('A' for Active; 'I' for Inactive)
REMARK    1  A    between atoms: C_2  and  O_3
REMARK    2  A    between atoms: C_2  and  C_4
REMARK    3  A    between atoms: C_6  and  C_7
REMARK    4  A    between atoms: C_7  and  N_8
REMARK                            x       y       z     vdW  Elec       q    Type
REMARK                         _______ _______ _______ _____ _____    ______ ____
ROOT
ATOM      1  C   UNL     1      -2.606  10.979  17.323  0.00  0.00    +0.000 A 
ATOM      2  C   UNL     1      -1.378  10.711  17.798  0.00  0.00    +0.000 A 
ATOM      3  C   UNL     1      -0.932  11.119  19.125  0.00  0.00    +0.000 A 
ATOM      4  C   UNL     1      -1.818  11.748  19.940  0.00  0.00    +0.000 A 
ATOM      5  C   UNL     1      -1.470  12.163  21.301  0.00  0.00    +0.000 A 
ATOM      6  C   UNL     1      -2.319  12.865  22.063  0.00  0.00    +0.000 A 
ATOM      7  C   UNL     1      -3.616  13.180  21.542  0.00  0.00    +0.000 A 
ATOM      8  C   UNL     1      -3.957  12.765  20.316  0.00  0.00    +0.000 A 
ATOM      9  N   UNL     1      -3.112  12.050  19.471  0.00  0.00    +0.000 N 
ATOM     10  C   UNL     1      -3.563  11.692  18.198  0.00  0.00    +0.000 A 
ATOM     11  O   UNL     1      -4.694  11.925  17.764  0.00  0.00    +0.000 OA
ENDROOT
BRANCH   1  13
ATOM     12  O   UNL     1      -2.824   9.394  15.561  0.00  0.00    +0.000 OA
ATOM     13  C   UNL     1      -2.943  10.548  15.947  0.00  0.00    +0.000 C 
BRANCH  13  14
ATOM     14  O   UNL     1      -3.396  11.526  15.131  0.00  0.00    +0.000 OA
ATOM     15  H   UNL     1      -3.672  11.214  14.235  0.00  0.00    +0.000 HD
ENDBRANCH  13  14
ENDBRANCH   1  13
BRANCH   3  16
ATOM     16  C   UNL     1       0.508  10.735  19.492  0.00  0.00    +0.000 C 
BRANCH  16  17
ATOM     17  N   UNL     1       0.879   9.307  19.440  0.00  0.00    +0.000 NA
ATOM     18  C   UNL     1       1.203   8.736  20.749  0.00  0.00    +0.000 C 
ATOM     19  C   UNL     1       1.464   7.227  20.708  0.00  0.00    +0.000 C 
ATOM     20  C   UNL     1       2.440   6.854  19.630  0.00  0.00    +0.000 A 
ATOM     21  C   UNL     1       3.161   5.654  19.712  0.00  0.00    +0.000 A 
ATOM     22  C   UNL     1       4.042   5.299  18.693  0.00  0.00    +0.000 A 
ATOM     23 CL   UNL     1       4.930   3.830  18.804  0.00  0.00    +0.000 Cl
ATOM     24  C   UNL     1       4.208   6.124  17.585  0.00  0.00    +0.000 A 
ATOM     25  C   UNL     1       3.484   7.314  17.495  0.00  0.00    +0.000 A 
ATOM     26  C   UNL     1       2.590   7.687  18.512  0.00  0.00    +0.000 A 
ATOM     27  C   UNL     1       1.872   9.016  18.401  0.00  0.00    +0.000 C 
ENDBRANCH  16  17
ENDBRANCH   3  16
TORSDOF 4
ENDMDL
