MODEL 1
REMARK VINA RESULT:      -7.9      0.000      0.000
REMARK  Name = 
REMARK  8 active torsions:
REMARK  status: ('A' for Active; 'I' for Inactive)
REMARK    1  A    between atoms: C_1  and  C_2
REMARK    2  A    between atoms: C_2  and  C_3
REMARK    3  A    between atoms: N_10  and  O_11
REMARK    4  A    between atoms: O_11  and  C_12
REMARK    5  A    between atoms: C_12  and  C_13
REMARK    6  A    between atoms: C_13  and  C_14
REMARK    7  A    between atoms: C_14  and  N_15
REMARK    8  A    between atoms: C_16  and  C_18
REMARK                            x       y       z     vdW  Elec       q    Type
REMARK                         _______ _______ _______ _____ _____    ______ ____
ROOT
ATOM      1  C   UNL     1       1.652   4.523  17.809  0.00  0.00    +0.000 C 
ATOM      2  C   UNL     1       2.473   4.651  19.099  0.00  0.00    +0.000 C 
ATOM      3  C   UNL     1       2.734   6.148  19.367  0.00  0.00    +0.000 C 
ATOM      4  N   UNL     1       1.654   4.164  20.203  0.00  0.00    +0.000 NA
ATOM      5  C   UNL     1       1.997   3.218  21.000  0.00  0.00    +0.000 C 
ATOM      6  N   UNL     1       1.135   2.808  22.041  0.00  0.00    +0.000 N 
ATOM      7  N   UNL     1       3.212   2.540  20.822  0.00  0.00    +0.000 NA
ATOM      8  C   UNL     1       4.045   2.812  19.888  0.00  0.00    +0.000 C 
ATOM      9  N   UNL     1       5.167   1.923  19.826  0.00  0.00    +0.000 N 
ATOM     10  N   UNL     1       3.756   3.916  18.961  0.00  0.00    +0.000 N 
ATOM     11  H   UNL     1       0.224   3.262  22.185  0.00  0.00    +0.000 HD
ATOM     12  H   UNL     1       1.414   2.026  22.653  0.00  0.00    +0.000 HD
ATOM     13  H   UNL     1       5.289   1.242  20.579  0.00  0.00    +0.000 HD
ATOM     14  H   UNL     1       5.706   1.702  18.989  0.00  0.00    +0.000 HD
ENDROOT
BRANCH  10  15
ATOM     15  O   UNL     1       4.689   4.533  18.175  0.00  0.00    +0.000 OA
BRANCH  15  16
ATOM     16  C   UNL     1       5.887   4.801  18.856  0.00  0.00    +0.000 C 
BRANCH  16  17
ATOM     17  C   UNL     1       7.086   4.785  17.911  0.00  0.00    +0.000 C 
BRANCH  17  18
ATOM     18  C   UNL     1       6.784   5.652  16.678  0.00  0.00    +0.000 C 
BRANCH  18  19
ATOM     19  N   UNL     1       6.242   4.864  15.595  0.00  0.00    +0.000 N 
ATOM     20  C   UNL     1       6.841   4.847  14.370  0.00  0.00    +0.000 C 
ATOM     21  O   UNL     1       7.863   5.498  14.187  0.00  0.00    +0.000 OA
ATOM     22  H   UNL     1       5.428   4.264  15.790  0.00  0.00    +0.000 HD
BRANCH  20  23
ATOM     23  C   UNL     1       6.307   4.014  13.261  0.00  0.00    +0.000 A 
ATOM     24  C   UNL     1       4.927   3.953  12.976  0.00  0.00    +0.000 A 
ATOM     25  C   UNL     1       4.455   3.152  11.936  0.00  0.00    +0.000 A 
ATOM     26  C   UNL     1       5.346   2.396  11.174  0.00  0.00    +0.000 A 
ATOM     27  C   UNL     1       6.714   2.449  11.442  0.00  0.00    +0.000 A 
ATOM     28  C   UNL     1       7.197   3.260  12.472  0.00  0.00    +0.000 A 
ENDBRANCH  20  23
ENDBRANCH  18  19
ENDBRANCH  17  18
ENDBRANCH  16  17
ENDBRANCH  15  16
ENDBRANCH  10  15
TORSDOF 6
ENDMDL
MODEL 2
REMARK VINA RESULT:      -7.8      1.331      1.522
REMARK  Name = 
REMARK  8 active torsions:
REMARK  status: ('A' for Active; 'I' for Inactive)
REMARK    1  A    between atoms: C_1  and  C_2
REMARK    2  A    between atoms: C_2  and  C_3
REMARK    3  A    between atoms: N_10  and  O_11
REMARK    4  A    between atoms: O_11  and  C_12
REMARK    5  A    between atoms: C_12  and  C_13
REMARK    6  A    between atoms: C_13  and  C_14
REMARK    7  A    between atoms: C_14  and  N_15
REMARK    8  A    between atoms: C_16  and  C_18
REMARK                            x       y       z     vdW  Elec       q    Type
REMARK                         _______ _______ _______ _____ _____    ______ ____
ROOT
ATOM      1  C   UNL     1       3.213   3.516  16.735  0.00  0.00    +0.000 C 
ATOM      2  C   UNL     1       3.283   4.041  18.176  0.00  0.00    +0.000 C 
ATOM      3  C   UNL     1       3.415   5.578  18.131  0.00  0.00    +0.000 C 
ATOM      4  N   UNL     1       2.010   3.749  18.822  0.00  0.00    +0.000 NA
ATOM      5  C   UNL     1       1.883   3.067  19.903  0.00  0.00    +0.000 C 
ATOM      6  N   UNL     1       0.605   2.829  20.456  0.00  0.00    +0.000 N 
ATOM      7  N   UNL     1       3.005   2.503  20.527  0.00  0.00    +0.000 NA
ATOM      8  C   UNL     1       4.200   2.631  20.085  0.00  0.00    +0.000 C 
ATOM      9  N   UNL     1       5.179   1.881  20.815  0.00  0.00    +0.000 N 
ATOM     10  N   UNL     1       4.443   3.440  18.880  0.00  0.00    +0.000 N 
ATOM     11  H   UNL     1      -0.244   3.202  20.011  0.00  0.00    +0.000 HD
ATOM     12  H   UNL     1       0.520   2.254  21.308  0.00  0.00    +0.000 HD
ATOM     13  H   UNL     1       4.890   1.421  21.681  0.00  0.00    +0.000 HD
ATOM     14  H   UNL     1       6.058   1.525  20.440  0.00  0.00    +0.000 HD
ENDROOT
BRANCH  10  15
ATOM     15  O   UNL     1       5.660   3.946  18.519  0.00  0.00    +0.000 OA
BRANCH  15  16
ATOM     16  C   UNL     1       6.095   4.980  19.365  0.00  0.00    +0.000 C 
BRANCH  16  17
ATOM     17  C   UNL     1       7.506   5.439  19.010  0.00  0.00    +0.000 C 
BRANCH  17  18
ATOM     18  C   UNL     1       7.463   6.317  17.749  0.00  0.00    +0.000 C 
BRANCH  18  19
ATOM     19  N   UNL     1       7.416   5.517  16.546  0.00  0.00    +0.000 N 
ATOM     20  C   UNL     1       6.491   5.762  15.575  0.00  0.00    +0.000 C 
ATOM     21  O   UNL     1       5.696   6.683  15.715  0.00  0.00    +0.000 OA
ATOM     22  H   UNL     1       8.141   4.798  16.412  0.00  0.00    +0.000 HD
BRANCH  20  23
ATOM     23  C   UNL     1       6.457   4.964  14.321  0.00  0.00    +0.000 A 
ATOM     24  C   UNL     1       5.395   4.081  14.032  0.00  0.00    +0.000 A 
ATOM     25  C   UNL     1       5.398   3.336  12.853  0.00  0.00    +0.000 A 
ATOM     26  C   UNL     1       6.458   3.450  11.953  0.00  0.00    +0.000 A 
ATOM     27  C   UNL     1       7.514   4.321  12.226  0.00  0.00    +0.000 A 
ATOM     28  C   UNL     1       7.512   5.083  13.396  0.00  0.00    +0.000 A 
ENDBRANCH  20  23
ENDBRANCH  18  19
ENDBRANCH  17  18
ENDBRANCH  16  17
ENDBRANCH  15  16
ENDBRANCH  10  15
TORSDOF 6
ENDMDL
MODEL 3
REMARK VINA RESULT:      -7.7      1.479      2.485
REMARK  Name = 
REMARK  8 active torsions:
REMARK  status: ('A' for Active; 'I' for Inactive)
REMARK    1  A    between atoms: C_1  and  C_2
REMARK    2  A    between atoms: C_2  and  C_3
REMARK    3  A    between atoms: N_10  and  O_11
REMARK    4  A    between atoms: O_11  and  C_12
REMARK    5  A    between atoms: C_12  and  C_13
REMARK    6  A    between atoms: C_13  and  C_14
REMARK    7  A    between atoms: C_14  and  N_15
REMARK    8  A    between atoms: C_16  and  C_18
REMARK                            x       y       z     vdW  Elec       q    Type
REMARK                         _______ _______ _______ _____ _____    ______ ____
ROOT
ATOM      1  C   UNL     1       4.298   2.558  18.976  0.00  0.00    +0.000 C 
ATOM      2  C   UNL     1       2.851   3.067  19.019  0.00  0.00    +0.000 C 
ATOM      3  C   UNL     1       2.113   2.555  17.764  0.00  0.00    +0.000 C 
ATOM      4  N   UNL     1       2.195   2.458  20.169  0.00  0.00    +0.000 NA
ATOM      5  C   UNL     1       1.633   3.116  21.118  0.00  0.00    +0.000 C 
ATOM      6  N   UNL     1       1.024   2.439  22.199  0.00  0.00    +0.000 N 
ATOM      7  N   UNL     1       1.656   4.518  21.126  0.00  0.00    +0.000 NA
ATOM      8  C   UNL     1       2.213   5.222  20.212  0.00  0.00    +0.000 C 
ATOM      9  N   UNL     1       2.215   6.631  20.477  0.00  0.00    +0.000 N 
ATOM     10  N   UNL     1       2.836   4.552  19.061  0.00  0.00    +0.000 N 
ATOM     11  H   UNL     1       1.012   1.412  22.242  0.00  0.00    +0.000 HD
ATOM     12  H   UNL     1       0.604   2.984  22.966  0.00  0.00    +0.000 HD
ATOM     13  H   UNL     1       1.679   6.975  21.277  0.00  0.00    +0.000 HD
ATOM     14  H   UNL     1       2.901   7.301  20.130  0.00  0.00    +0.000 HD
ENDROOT
BRANCH  10  15
ATOM     15  O   UNL     1       3.133   5.162  17.875  0.00  0.00    +0.000 OA
BRANCH  15  16
ATOM     16  C   UNL     1       3.998   6.258  18.026  0.00  0.00    +0.000 C 
BRANCH  16  17
ATOM     17  C   UNL     1       5.416   5.811  18.371  0.00  0.00    +0.000 C 
BRANCH  17  18
ATOM     18  C   UNL     1       6.426   6.574  17.500  0.00  0.00    +0.000 C 
BRANCH  18  19
ATOM     19  N   UNL     1       6.337   6.178  16.113  0.00  0.00    +0.000 N 
ATOM     20  C   UNL     1       7.073   5.137  15.631  0.00  0.00    +0.000 C 
ATOM     21  O   UNL     1       7.811   4.516  16.387  0.00  0.00    +0.000 OA
ATOM     22  H   UNL     1       5.655   6.662  15.512  0.00  0.00    +0.000 HD
BRANCH  20  23
ATOM     23  C   UNL     1       6.964   4.704  14.213  0.00  0.00    +0.000 A 
ATOM     24  C   UNL     1       7.778   5.258  13.203  0.00  0.00    +0.000 A 
ATOM     25  C   UNL     1       7.643   4.841  11.879  0.00  0.00    +0.000 A 
ATOM     26  C   UNL     1       6.692   3.878  11.541  0.00  0.00    +0.000 A 
ATOM     27  C   UNL     1       5.882   3.319  12.530  0.00  0.00    +0.000 A 
ATOM     28  C   UNL     1       6.021   3.720  13.861  0.00  0.00    +0.000 A 
ENDBRANCH  20  23
ENDBRANCH  18  19
ENDBRANCH  17  18
ENDBRANCH  16  17
ENDBRANCH  15  16
ENDBRANCH  10  15
TORSDOF 6
ENDMDL
MODEL 4
REMARK VINA RESULT:      -7.6      1.007      1.503
REMARK  Name = 
REMARK  8 active torsions:
REMARK  status: ('A' for Active; 'I' for Inactive)
REMARK    1  A    between atoms: C_1  and  C_2
REMARK    2  A    between atoms: C_2  and  C_3
REMARK    3  A    between atoms: N_10  and  O_11
REMARK    4  A    between atoms: O_11  and  C_12
REMARK    5  A    between atoms: C_12  and  C_13
REMARK    6  A    between atoms: C_13  and  C_14
REMARK    7  A    between atoms: C_14  and  N_15
REMARK    8  A    between atoms: C_16  and  C_18
REMARK                            x       y       z     vdW  Elec       q    Type
REMARK                         _______ _______ _______ _____ _____    ______ ____
ROOT
ATOM      1  C   UNL     1       1.532   3.948  17.974  0.00  0.00    +0.000 C 
ATOM      2  C   UNL     1       2.305   4.228  19.270  0.00  0.00    +0.000 C 
ATOM      3  C   UNL     1       2.460   5.755  19.428  0.00  0.00    +0.000 C 
ATOM      4  N   UNL     1       1.489   3.771  20.388  0.00  0.00    +0.000 NA
ATOM      5  C   UNL     1       1.870   2.913  21.264  0.00  0.00    +0.000 C 
ATOM      6  N   UNL     1       1.007   2.525  22.313  0.00  0.00    +0.000 N 
ATOM      7  N   UNL     1       3.131   2.307  21.167  0.00  0.00    +0.000 NA
ATOM      8  C   UNL     1       3.971   2.563  20.235  0.00  0.00    +0.000 C 
ATOM      9  N   UNL     1       5.150   1.749  20.267  0.00  0.00    +0.000 N 
ATOM     10  N   UNL     1       3.637   3.573  19.218  0.00  0.00    +0.000 N 
ATOM     11  H   UNL     1       0.065   2.927  22.400  0.00  0.00    +0.000 HD
ATOM     12  H   UNL     1       1.319   1.813  22.989  0.00  0.00    +0.000 HD
ATOM     13  H   UNL     1       5.295   1.138  21.073  0.00  0.00    +0.000 HD
ATOM     14  H   UNL     1       5.726   1.503  19.462  0.00  0.00    +0.000 HD
ENDROOT
BRANCH  10  15
ATOM     15  O   UNL     1       4.549   4.190  18.409  0.00  0.00    +0.000 OA
BRANCH  15  16
ATOM     16  C   UNL     1       5.642   4.715  19.118  0.00  0.00    +0.000 C 
BRANCH  16  17
ATOM     17  C   UNL     1       6.196   5.969  18.448  0.00  0.00    +0.000 C 
BRANCH  17  18
ATOM     18  C   UNL     1       7.589   5.676  17.871  0.00  0.00    +0.000 C 
BRANCH  18  19
ATOM     19  N   UNL     1       7.505   5.005  16.594  0.00  0.00    +0.000 N 
ATOM     20  C   UNL     1       6.688   5.471  15.607  0.00  0.00    +0.000 C 
ATOM     21  O   UNL     1       6.025   6.483  15.799  0.00  0.00    +0.000 OA
ATOM     22  H   UNL     1       8.127   4.202  16.426  0.00  0.00    +0.000 HD
BRANCH  20  23
ATOM     23  C   UNL     1       6.620   4.804  14.281  0.00  0.00    +0.000 A 
ATOM     24  C   UNL     1       7.600   5.022  13.290  0.00  0.00    +0.000 A 
ATOM     25  C   UNL     1       7.502   4.391  12.049  0.00  0.00    +0.000 A 
ATOM     26  C   UNL     1       6.426   3.546  11.775  0.00  0.00    +0.000 A 
ATOM     27  C   UNL     1       5.451   3.319  12.748  0.00  0.00    +0.000 A 
ATOM     28  C   UNL     1       5.550   3.935  13.998  0.00  0.00    +0.000 A 
ENDBRANCH  20  23
ENDBRANCH  18  19
ENDBRANCH  17  18
ENDBRANCH  16  17
ENDBRANCH  15  16
ENDBRANCH  10  15
TORSDOF 6
ENDMDL
MODEL 5
REMARK VINA RESULT:      -7.6      1.491      1.880
REMARK  Name = 
REMARK  8 active torsions:
REMARK  status: ('A' for Active; 'I' for Inactive)
REMARK    1  A    between atoms: C_1  and  C_2
REMARK    2  A    between atoms: C_2  and  C_3
REMARK    3  A    between atoms: N_10  and  O_11
REMARK    4  A    between atoms: O_11  and  C_12
REMARK    5  A    between atoms: C_12  and  C_13
REMARK    6  A    between atoms: C_13  and  C_14
REMARK    7  A    between atoms: C_14  and  N_15
REMARK    8  A    between atoms: C_16  and  C_18
REMARK                            x       y       z     vdW  Elec       q    Type
REMARK                         _______ _______ _______ _____ _____    ______ ____
ROOT
ATOM      1  C   UNL     1       3.700   4.858  17.091  0.00  0.00    +0.000 C 
ATOM      2  C   UNL     1       3.316   4.502  18.534  0.00  0.00    +0.000 C 
ATOM      3  C   UNL     1       2.971   5.806  19.285  0.00  0.00    +0.000 C 
ATOM      4  N   UNL     1       2.096   3.707  18.491  0.00  0.00    +0.000 NA
ATOM      5  C   UNL     1       1.975   2.532  18.994  0.00  0.00    +0.000 C 
ATOM      6  N   UNL     1       0.752   1.832  18.899  0.00  0.00    +0.000 N 
ATOM      7  N   UNL     1       3.070   1.900  19.601  0.00  0.00    +0.000 NA
ATOM      8  C   UNL     1       4.229   2.435  19.704  0.00  0.00    +0.000 C 
ATOM      9  N   UNL     1       5.227   1.570  20.259  0.00  0.00    +0.000 N 
ATOM     10  N   UNL     1       4.443   3.801  19.201  0.00  0.00    +0.000 N 
ATOM     11  H   UNL     1      -0.065   2.252  18.437  0.00  0.00    +0.000 HD
ATOM     12  H   UNL     1       0.683   0.878  19.282  0.00  0.00    +0.000 HD
ATOM     13  H   UNL     1       4.931   0.669  20.641  0.00  0.00    +0.000 HD
ATOM     14  H   UNL     1       6.230   1.622  20.077  0.00  0.00    +0.000 HD
ENDROOT
BRANCH  10  15
ATOM     15  O   UNL     1       5.488   4.605  19.560  0.00  0.00    +0.000 OA
BRANCH  15  16
ATOM     16  C   UNL     1       6.514   4.629  18.601  0.00  0.00    +0.000 C 
BRANCH  16  17
ATOM     17  C   UNL     1       7.413   5.850  18.771  0.00  0.00    +0.000 C 
BRANCH  17  18
ATOM     18  C   UNL     1       7.456   6.648  17.459  0.00  0.00    +0.000 C 
BRANCH  18  19
ATOM     19  N   UNL     1       7.462   5.776  16.306  0.00  0.00    +0.000 N 
ATOM     20  C   UNL     1       6.512   5.889  15.334  0.00  0.00    +0.000 C 
ATOM     21  O   UNL     1       5.648   6.752  15.431  0.00  0.00    +0.000 OA
ATOM     22  H   UNL     1       8.240   5.109  16.205  0.00  0.00    +0.000 HD
BRANCH  20  23
ATOM     23  C   UNL     1       6.530   5.017  14.131  0.00  0.00    +0.000 A 
ATOM     24  C   UNL     1       7.552   5.109  13.163  0.00  0.00    +0.000 A 
ATOM     25  C   UNL     1       7.535   4.286  12.037  0.00  0.00    +0.000 A 
ATOM     26  C   UNL     1       6.499   3.370  11.855  0.00  0.00    +0.000 A 
ATOM     27  C   UNL     1       5.482   3.266  12.805  0.00  0.00    +0.000 A 
ATOM     28  C   UNL     1       5.501   4.076  13.943  0.00  0.00    +0.000 A 
ENDBRANCH  20  23
ENDBRANCH  18  19
ENDBRANCH  17  18
ENDBRANCH  16  17
ENDBRANCH  15  16
ENDBRANCH  10  15
TORSDOF 6
ENDMDL
MODEL 6
REMARK VINA RESULT:      -7.6      2.707      6.827
REMARK  Name = 
REMARK  8 active torsions:
REMARK  status: ('A' for Active; 'I' for Inactive)
REMARK    1  A    between atoms: C_1  and  C_2
REMARK    2  A    between atoms: C_2  and  C_3
REMARK    3  A    between atoms: N_10  and  O_11
REMARK    4  A    between atoms: O_11  and  C_12
REMARK    5  A    between atoms: C_12  and  C_13
REMARK    6  A    between atoms: C_13  and  C_14
REMARK    7  A    between atoms: C_14  and  N_15
REMARK    8  A    between atoms: C_16  and  C_18
REMARK                            x       y       z     vdW  Elec       q    Type
REMARK                         _______ _______ _______ _____ _____    ______ ____
ROOT
ATOM      1  C   UNL     1       4.972   6.614  16.128  0.00  0.00    +0.000 C 
ATOM      2  C   UNL     1       6.052   5.613  16.561  0.00  0.00    +0.000 C 
ATOM      3  C   UNL     1       6.729   5.045  15.295  0.00  0.00    +0.000 C 
ATOM      4  N   UNL     1       7.078   6.346  17.291  0.00  0.00    +0.000 NA
ATOM      5  C   UNL     1       7.450   6.076  18.490  0.00  0.00    +0.000 C 
ATOM      6  N   UNL     1       8.451   6.847  19.123  0.00  0.00    +0.000 N 
ATOM      7  N   UNL     1       6.833   5.044  19.213  0.00  0.00    +0.000 NA
ATOM      8  C   UNL     1       5.893   4.313  18.743  0.00  0.00    +0.000 C 
ATOM      9  N   UNL     1       5.335   3.395  19.690  0.00  0.00    +0.000 N 
ATOM     10  N   UNL     1       5.441   4.519  17.358  0.00  0.00    +0.000 N 
ATOM     11  H   UNL     1       8.905   7.629  18.634  0.00  0.00    +0.000 HD
ATOM     12  H   UNL     1       8.715   6.635  20.096  0.00  0.00    +0.000 HD
ATOM     13  H   UNL     1       5.792   3.297  20.599  0.00  0.00    +0.000 HD
ATOM     14  H   UNL     1       4.383   3.027  19.674  0.00  0.00    +0.000 HD
ENDROOT
BRANCH  10  15
ATOM     15  O   UNL     1       4.729   3.607  16.632  0.00  0.00    +0.000 OA
BRANCH  15  16
ATOM     16  C   UNL     1       3.344   3.837  16.670  0.00  0.00    +0.000 C 
BRANCH  16  17
ATOM     17  C   UNL     1       2.617   2.755  17.463  0.00  0.00    +0.000 C 
BRANCH  17  18
ATOM     18  C   UNL     1       2.141   3.328  18.807  0.00  0.00    +0.000 C 
BRANCH  18  19
ATOM     19  N   UNL     1       1.785   4.724  18.693  0.00  0.00    +0.000 N 
ATOM     20  C   UNL     1       2.327   5.658  19.526  0.00  0.00    +0.000 C 
ATOM     21  O   UNL     1       3.139   5.312  20.376  0.00  0.00    +0.000 OA
ATOM     22  H   UNL     1       1.161   5.005  17.923  0.00  0.00    +0.000 HD
BRANCH  20  23
ATOM     23  C   UNL     1       1.990   7.099  19.394  0.00  0.00    +0.000 A 
ATOM     24  C   UNL     1       1.456   7.838  20.471  0.00  0.00    +0.000 A 
ATOM     25  C   UNL     1       1.137   9.187  20.312  0.00  0.00    +0.000 A 
ATOM     26  C   UNL     1       1.335   9.815  19.082  0.00  0.00    +0.000 A 
ATOM     27  C   UNL     1       1.865   9.097  18.009  0.00  0.00    +0.000 A 
ATOM     28  C   UNL     1       2.201   7.750  18.164  0.00  0.00    +0.000 A 
ENDBRANCH  20  23
ENDBRANCH  18  19
ENDBRANCH  17  18
ENDBRANCH  16  17
ENDBRANCH  15  16
ENDBRANCH  10  15
TORSDOF 6
ENDMDL
MODEL 7
REMARK VINA RESULT:      -7.6      4.829      7.882
REMARK  Name = 
REMARK  8 active torsions:
REMARK  status: ('A' for Active; 'I' for Inactive)
REMARK    1  A    between atoms: C_1  and  C_2
REMARK    2  A    between atoms: C_2  and  C_3
REMARK    3  A    between atoms: N_10  and  O_11
REMARK    4  A    between atoms: O_11  and  C_12
REMARK    5  A    between atoms: C_12  and  C_13
REMARK    6  A    between atoms: C_13  and  C_14
REMARK    7  A    between atoms: C_14  and  N_15
REMARK    8  A    between atoms: C_16  and  C_18
REMARK                            x       y       z     vdW  Elec       q    Type
REMARK                         _______ _______ _______ _____ _____    ______ ____
ROOT
ATOM      1  C   UNL     1       1.313   3.826  18.830  0.00  0.00    +0.000 C 
ATOM      2  C   UNL     1       2.476   4.164  19.772  0.00  0.00    +0.000 C 
ATOM      3  C   UNL     1       1.893   4.588  21.137  0.00  0.00    +0.000 C 
ATOM      4  N   UNL     1       3.237   2.942  20.002  0.00  0.00    +0.000 NA
ATOM      5  C   UNL     1       4.491   2.811  19.763  0.00  0.00    +0.000 C 
ATOM      6  N   UNL     1       5.146   1.584  20.013  0.00  0.00    +0.000 N 
ATOM      7  N   UNL     1       5.225   3.867  19.202  0.00  0.00    +0.000 NA
ATOM      8  C   UNL     1       4.716   5.004  18.906  0.00  0.00    +0.000 C 
ATOM      9  N   UNL     1       5.620   5.896  18.242  0.00  0.00    +0.000 N 
ATOM     10  N   UNL     1       3.297   5.259  19.195  0.00  0.00    +0.000 N 
ATOM     11  H   UNL     1       4.635   0.779  20.397  0.00  0.00    +0.000 HD
ATOM     12  H   UNL     1       6.147   1.488  19.786  0.00  0.00    +0.000 HD
ATOM     13  H   UNL     1       6.603   5.625  18.170  0.00  0.00    +0.000 HD
ATOM     14  H   UNL     1       5.356   6.639  17.595  0.00  0.00    +0.000 HD
ENDROOT
BRANCH  10  15
ATOM     15  O   UNL     1       2.731   6.500  19.268  0.00  0.00    +0.000 OA
BRANCH  15  16
ATOM     16  C   UNL     1       2.325   6.992  18.017  0.00  0.00    +0.000 C 
BRANCH  16  17
ATOM     17  C   UNL     1       2.728   8.451  17.829  0.00  0.00    +0.000 C 
BRANCH  17  18
ATOM     18  C   UNL     1       1.761   9.359  18.606  0.00  0.00    +0.000 C 
BRANCH  18  19
ATOM     19  N   UNL     1       0.538   9.586  17.871  0.00  0.00    +0.000 N 
ATOM     20  C   UNL     1      -0.541  10.171  18.465  0.00  0.00    +0.000 C 
ATOM     21  O   UNL     1      -0.469  10.524  19.636  0.00  0.00    +0.000 OA
ATOM     22  H   UNL     1       0.523   9.353  16.868  0.00  0.00    +0.000 HD
BRANCH  20  23
ATOM     23  C   UNL     1      -1.791  10.436  17.707  0.00  0.00    +0.000 A 
ATOM     24  C   UNL     1      -2.066   9.793  16.481  0.00  0.00    +0.000 A 
ATOM     25  C   UNL     1      -3.243  10.072  15.786  0.00  0.00    +0.000 A 
ATOM     26  C   UNL     1      -4.154  10.999  16.293  0.00  0.00    +0.000 A 
ATOM     27  C   UNL     1      -3.896  11.640  17.505  0.00  0.00    +0.000 A 
ATOM     28  C   UNL     1      -2.728  11.355  18.215  0.00  0.00    +0.000 A 
ENDBRANCH  20  23
ENDBRANCH  18  19
ENDBRANCH  17  18
ENDBRANCH  16  17
ENDBRANCH  15  16
ENDBRANCH  10  15
TORSDOF 6
ENDMDL
MODEL 8
REMARK VINA RESULT:      -7.6      4.808      7.971
REMARK  Name = 
REMARK  8 active torsions:
REMARK  status: ('A' for Active; 'I' for Inactive)
REMARK    1  A    between atoms: C_1  and  C_2
REMARK    2  A    between atoms: C_2  and  C_3
REMARK    3  A    between atoms: N_10  and  O_11
REMARK    4  A    between atoms: O_11  and  C_12
REMARK    5  A    between atoms: C_12  and  C_13
REMARK    6  A    between atoms: C_13  and  C_14
REMARK    7  A    between atoms: C_14  and  N_15
REMARK    8  A    between atoms: C_16  and  C_18
REMARK                            x       y       z     vdW  Elec       q    Type
REMARK                         _______ _______ _______ _____ _____    ______ ____
ROOT
ATOM      1  C   UNL     1       5.432   5.690  18.481  0.00  0.00    +0.000 C 
ATOM      2  C   UNL     1       4.449   4.523  18.319  0.00  0.00    +0.000 C 
ATOM      3  C   UNL     1       4.317   4.199  16.816  0.00  0.00    +0.000 C 
ATOM      4  N   UNL     1       5.038   3.348  18.950  0.00  0.00    +0.000 NA
ATOM      5  C   UNL     1       4.480   2.669  19.886  0.00  0.00    +0.000 C 
ATOM      6  N   UNL     1       5.129   1.545  20.443  0.00  0.00    +0.000 N 
ATOM      7  N   UNL     1       3.237   3.060  20.407  0.00  0.00    +0.000 NA
ATOM      8  C   UNL     1       2.586   4.083  19.995  0.00  0.00    +0.000 C 
ATOM      9  N   UNL     1       1.395   4.359  20.742  0.00  0.00    +0.000 N 
ATOM     10  N   UNL     1       3.128   4.888  18.890  0.00  0.00    +0.000 N 
ATOM     11  H   UNL     1       6.053   1.246  20.106  0.00  0.00    +0.000 HD
ATOM     12  H   UNL     1       4.679   1.030  21.214  0.00  0.00    +0.000 HD
ATOM     13  H   UNL     1       1.089   3.676  21.438  0.00  0.00    +0.000 HD
ATOM     14  H   UNL     1       0.964   5.277  20.858  0.00  0.00    +0.000 HD
ENDROOT
BRANCH  10  15
ATOM     15  O   UNL     1       2.395   5.756  18.131  0.00  0.00    +0.000 OA
BRANCH  15  16
ATOM     16  C   UNL     1       2.255   7.020  18.728  0.00  0.00    +0.000 C 
BRANCH  16  17
ATOM     17  C   UNL     1       2.538   8.144  17.736  0.00  0.00    +0.000 C 
BRANCH  17  18
ATOM     18  C   UNL     1       1.899   9.449  18.236  0.00  0.00    +0.000 C 
BRANCH  18  19
ATOM     19  N   UNL     1       0.592   9.658  17.656  0.00  0.00    +0.000 N 
ATOM     20  C   UNL     1      -0.407  10.252  18.370  0.00  0.00    +0.000 C 
ATOM     21  O   UNL     1      -0.191  10.628  19.515  0.00  0.00    +0.000 OA
ATOM     22  H   UNL     1       0.453   9.406  16.668  0.00  0.00    +0.000 HD
BRANCH  20  23
ATOM     23  C   UNL     1      -1.744  10.498  17.769  0.00  0.00    +0.000 A 
ATOM     24  C   UNL     1      -2.100   9.971  16.510  0.00  0.00    +0.000 A 
ATOM     25  C   UNL     1      -3.359  10.231  15.967  0.00  0.00    +0.000 A 
ATOM     26  C   UNL     1      -4.273  11.024  16.662  0.00  0.00    +0.000 A 
ATOM     27  C   UNL     1      -3.934  11.549  17.909  0.00  0.00    +0.000 A 
ATOM     28  C   UNL     1      -2.682  11.282  18.467  0.00  0.00    +0.000 A 
ENDBRANCH  20  23
ENDBRANCH  18  19
ENDBRANCH  17  18
ENDBRANCH  16  17
ENDBRANCH  15  16
ENDBRANCH  10  15
TORSDOF 6
ENDMDL
MODEL 9
REMARK VINA RESULT:      -7.5      1.112      1.306
REMARK  Name = 
REMARK  8 active torsions:
REMARK  status: ('A' for Active; 'I' for Inactive)
REMARK    1  A    between atoms: C_1  and  C_2
REMARK    2  A    between atoms: C_2  and  C_3
REMARK    3  A    between atoms: N_10  and  O_11
REMARK    4  A    between atoms: O_11  and  C_12
REMARK    5  A    between atoms: C_12  and  C_13
REMARK    6  A    between atoms: C_13  and  C_14
REMARK    7  A    between atoms: C_14  and  N_15
REMARK    8  A    between atoms: C_16  and  C_18
REMARK                            x       y       z     vdW  Elec       q    Type
REMARK                         _______ _______ _______ _____ _____    ______ ____
ROOT
ATOM      1  C   UNL     1       1.951   5.380  17.666  0.00  0.00    +0.000 C 
ATOM      2  C   UNL     1       2.556   5.225  19.067  0.00  0.00    +0.000 C 
ATOM      3  C   UNL     1       2.717   6.628  19.690  0.00  0.00    +0.000 C 
ATOM      4  N   UNL     1       1.596   4.506  19.895  0.00  0.00    +0.000 NA
ATOM      5  C   UNL     1       1.846   3.410  20.514  0.00  0.00    +0.000 C 
ATOM      6  N   UNL     1       0.848   2.780  21.292  0.00  0.00    +0.000 N 
ATOM      7  N   UNL     1       3.098   2.790  20.390  0.00  0.00    +0.000 NA
ATOM      8  C   UNL     1       4.055   3.262  19.681  0.00  0.00    +0.000 C 
ATOM      9  N   UNL     1       5.205   2.410  19.608  0.00  0.00    +0.000 N 
ATOM     10  N   UNL     1       3.872   4.542  18.980  0.00  0.00    +0.000 N 
ATOM     11  H   UNL     1      -0.090   3.190  21.383  0.00  0.00    +0.000 HD
ATOM     12  H   UNL     1       1.058   1.884  21.757  0.00  0.00    +0.000 HD
ATOM     13  H   UNL     1       5.235   1.582  20.207  0.00  0.00    +0.000 HD
ATOM     14  H   UNL     1       5.875   2.379  18.840  0.00  0.00    +0.000 HD
ENDROOT
BRANCH  10  15
ATOM     15  O   UNL     1       4.891   5.317  18.504  0.00  0.00    +0.000 OA
BRANCH  15  16
ATOM     16  C   UNL     1       5.944   5.461  19.422  0.00  0.00    +0.000 C 
BRANCH  16  17
ATOM     17  C   UNL     1       7.294   5.562  18.718  0.00  0.00    +0.000 C 
BRANCH  17  18
ATOM     18  C   UNL     1       7.265   6.720  17.708  0.00  0.00    +0.000 C 
BRANCH  18  19
ATOM     19  N   UNL     1       6.826   6.279  16.405  0.00  0.00    +0.000 N 
ATOM     20  C   UNL     1       7.264   5.100  15.877  0.00  0.00    +0.000 C 
ATOM     21  O   UNL     1       8.031   4.396  16.522  0.00  0.00    +0.000 OA
ATOM     22  H   UNL     1       6.122   6.846  15.911  0.00  0.00    +0.000 HD
BRANCH  20  23
ATOM     23  C   UNL     1       6.791   4.624  14.550  0.00  0.00    +0.000 A 
ATOM     24  C   UNL     1       5.583   3.912  14.405  0.00  0.00    +0.000 A 
ATOM     25  C   UNL     1       5.172   3.467  13.148  0.00  0.00    +0.000 A 
ATOM     26  C   UNL     1       5.960   3.715  12.024  0.00  0.00    +0.000 A 
ATOM     27  C   UNL     1       7.157   4.421  12.153  0.00  0.00    +0.000 A 
ATOM     28  C   UNL     1       7.568   4.883  13.405  0.00  0.00    +0.000 A 
ENDBRANCH  20  23
ENDBRANCH  18  19
ENDBRANCH  17  18
ENDBRANCH  16  17
ENDBRANCH  15  16
ENDBRANCH  10  15
TORSDOF 6
ENDMDL
