MODEL 1
REMARK VINA RESULT:      -7.0      0.000      0.000
REMARK  Name = 
REMARK  4 active torsions:
REMARK  status: ('A' for Active; 'I' for Inactive)
REMARK    1  A    between atoms: C_1  and  C_2
REMARK    2  A    between atoms: C_2  and  N_3
REMARK    3  A    between atoms: C_11  and  C_12
REMARK    4  A    between atoms: C_21  and  C_22
REMARK                            x       y       z     vdW  Elec       q    Type
REMARK                         _______ _______ _______ _____ _____    ______ ____
ROOT
ATOM      1  N   UNL     1      -2.238  10.624  18.201  0.00  0.00    +0.000 NA
ATOM      2  C   UNL     1      -2.933  11.788  18.786  0.00  0.00    +0.000 C 
ATOM      3  C   UNL     1      -2.082  12.641  19.699  0.00  0.00    +0.000 C 
ATOM      4  C   UNL     1      -0.849  12.267  20.086  0.00  0.00    +0.000 C 
ATOM      5  N   UNL     1      -0.143  13.070  20.941  0.00  0.00    +0.000 N 
ATOM      6  C   UNL     1      -0.581  14.261  21.423  0.00  0.00    +0.000 C 
ATOM      7  S   UNL     1       0.347  15.173  22.457  0.00  0.00    +0.000 S 
ATOM      8  N   UNL     1      -1.809  14.675  21.038  0.00  0.00    +0.000 N 
ATOM      9  C   UNL     1      -2.720  13.919  20.195  0.00  0.00    +0.000 C 
ATOM     10  C   UNL     1      -0.300  10.978  19.668  0.00  0.00    +0.000 C 
ATOM     11  C   UNL     1       1.020  10.688  19.666  0.00  0.00    +0.000 C 
ATOM     12  C   UNL     1      -1.380  10.004  19.224  0.00  0.00    +0.000 C 
ATOM     13  H   UNL     1       0.767  12.773  21.271  0.00  0.00    +0.000 HD
ATOM     14  H   UNL     1      -2.119  15.568  21.401  0.00  0.00    +0.000 HD
ENDROOT
BRANCH   9  15
ATOM     15  C   UNL     1      -4.017  13.657  20.953  0.00  0.00    +0.000 A 
ATOM     16  C   UNL     1      -5.220  14.209  20.462  0.00  0.00    +0.000 A 
ATOM     17  C   UNL     1      -6.418  14.070  21.164  0.00  0.00    +0.000 A 
ATOM     18  C   UNL     1      -6.435  13.368  22.363  0.00  0.00    +0.000 A 
ATOM     19 CL   UNL     1      -7.906  13.211  23.242  0.00  0.00    +0.000 Cl
ATOM     20  C   UNL     1      -5.268  12.800  22.865  0.00  0.00    +0.000 A 
ATOM     21  C   UNL     1      -4.064  12.945  22.165  0.00  0.00    +0.000 A 
ATOM     22 CL   UNL     1      -2.656  12.243  22.880  0.00  0.00    +0.000 Cl
ENDBRANCH   9  15
BRANCH  11  23
ATOM     23  C   UNL     1       1.593   9.401  19.238  0.00  0.00    +0.000 A 
ATOM     24  C   UNL     1       2.047   9.287  17.915  0.00  0.00    +0.000 A 
ATOM     25  C   UNL     1       2.577   8.080  17.448  0.00  0.00    +0.000 A 
ATOM     26  C   UNL     1       2.657   6.983  18.303  0.00  0.00    +0.000 A 
ATOM     27 CL   UNL     1       3.305   5.497  17.725  0.00  0.00    +0.000 Cl
ATOM     28  C   UNL     1       2.211   7.077  19.619  0.00  0.00    +0.000 A 
ATOM     29  C   UNL     1       1.679   8.286  20.084  0.00  0.00    +0.000 A 
ATOM     30 CL   UNL     1       1.128   8.342  21.724  0.00  0.00    +0.000 Cl
ENDBRANCH  11  23
BRANCH   1  32
ATOM     31  C   UNL     1      -3.321   9.670  16.128  0.00  0.00    +0.000 C 
ATOM     32  C   UNL     1      -3.233   9.685  17.652  0.00  0.00    +0.000 C 
ENDBRANCH   1  32
TORSDOF 3
ENDMDL
MODEL 2
REMARK VINA RESULT:      -7.0      1.038      1.340
REMARK  Name = 
REMARK  4 active torsions:
REMARK  status: ('A' for Active; 'I' for Inactive)
REMARK    1  A    between atoms: C_1  and  C_2
REMARK    2  A    between atoms: C_2  and  N_3
REMARK    3  A    between atoms: C_11  and  C_12
REMARK    4  A    between atoms: C_21  and  C_22
REMARK                            x       y       z     vdW  Elec       q    Type
REMARK                         _______ _______ _______ _____ _____    ______ ____
ROOT
ATOM      1  N   UNL     1      -2.381  10.649  18.313  0.00  0.00    +0.000 NA
ATOM      2  C   UNL     1      -3.113  11.777  18.922  0.00  0.00    +0.000 C 
ATOM      3  C   UNL     1      -2.286  12.646  19.842  0.00  0.00    +0.000 C 
ATOM      4  C   UNL     1      -1.036  12.312  20.212  0.00  0.00    +0.000 C 
ATOM      5  N   UNL     1      -0.352  13.128  21.074  0.00  0.00    +0.000 N 
ATOM      6  C   UNL     1      -0.829  14.294  21.579  0.00  0.00    +0.000 C 
ATOM      7  S   UNL     1       0.074  15.222  22.619  0.00  0.00    +0.000 S 
ATOM      8  N   UNL     1      -2.076  14.667  21.211  0.00  0.00    +0.000 N 
ATOM      9  C   UNL     1      -2.966  13.892  20.364  0.00  0.00    +0.000 C 
ATOM     10  C   UNL     1      -0.444  11.052  19.767  0.00  0.00    +0.000 C 
ATOM     11  C   UNL     1       0.886  10.811  19.750  0.00  0.00    +0.000 C 
ATOM     12  C   UNL     1      -1.491  10.046  19.318  0.00  0.00    +0.000 C 
ATOM     13  H   UNL     1       0.572  12.859  21.390  0.00  0.00    +0.000 HD
ATOM     14  H   UNL     1      -2.415  15.542  21.591  0.00  0.00    +0.000 HD
ENDROOT
BRANCH   9  15
ATOM     15  C   UNL     1      -4.245  13.569  21.129  0.00  0.00    +0.000 A 
ATOM     16  C   UNL     1      -4.160  13.248  22.501  0.00  0.00    +0.000 A 
ATOM     17  C   UNL     1      -5.289  12.863  23.225  0.00  0.00    +0.000 A 
ATOM     18  C   UNL     1      -6.525  12.803  22.591  0.00  0.00    +0.000 A 
ATOM     19 CL   UNL     1      -7.916  12.310  23.474  0.00  0.00    +0.000 Cl
ATOM     20  C   UNL     1      -6.642  13.128  21.242  0.00  0.00    +0.000 A 
ATOM     21  C   UNL     1      -5.508  13.507  20.514  0.00  0.00    +0.000 A 
ATOM     22 CL   UNL     1      -5.738  13.855  18.838  0.00  0.00    +0.000 Cl
ENDBRANCH   9  15
BRANCH  11  23
ATOM     23  C   UNL     1       1.502   9.553  19.295  0.00  0.00    +0.000 A 
ATOM     24  C   UNL     1       1.897   9.457  17.952  0.00  0.00    +0.000 A 
ATOM     25  C   UNL     1       2.465   8.278  17.462  0.00  0.00    +0.000 A 
ATOM     26  C   UNL     1       2.641   7.188  18.312  0.00  0.00    +0.000 A 
ATOM     27 CL   UNL     1       3.335   5.736  17.705  0.00  0.00    +0.000 Cl
ATOM     28  C   UNL     1       2.255   7.264  19.648  0.00  0.00    +0.000 A 
ATOM     29  C   UNL     1       1.685   8.446  20.137  0.00  0.00    +0.000 A 
ATOM     30 CL   UNL     1       1.210   8.480  21.801  0.00  0.00    +0.000 Cl
ENDBRANCH  11  23
BRANCH   1  32
ATOM     31  C   UNL     1      -3.412   9.653  16.233  0.00  0.00    +0.000 C 
ATOM     32  C   UNL     1      -3.345   9.683  17.757  0.00  0.00    +0.000 C 
ENDBRANCH   1  32
TORSDOF 3
ENDMDL
MODEL 3
REMARK VINA RESULT:      -6.6      2.746      4.415
REMARK  Name = 
REMARK  4 active torsions:
REMARK  status: ('A' for Active; 'I' for Inactive)
REMARK    1  A    between atoms: C_1  and  C_2
REMARK    2  A    between atoms: C_2  and  N_3
REMARK    3  A    between atoms: C_11  and  C_12
REMARK    4  A    between atoms: C_21  and  C_22
REMARK                            x       y       z     vdW  Elec       q    Type
REMARK                         _______ _______ _______ _____ _____    ______ ____
ROOT
ATOM      1  N   UNL     1       0.574   9.376  21.161  0.00  0.00    +0.000 NA
ATOM      2  C   UNL     1      -0.537  10.329  20.968  0.00  0.00    +0.000 C 
ATOM      3  C   UNL     1      -1.074  10.400  19.556  0.00  0.00    +0.000 C 
ATOM      4  C   UNL     1      -0.469   9.778  18.528  0.00  0.00    +0.000 C 
ATOM      5  N   UNL     1      -0.988   9.909  17.267  0.00  0.00    +0.000 N 
ATOM      6  C   UNL     1      -2.111  10.608  16.961  0.00  0.00    +0.000 C 
ATOM      7  S   UNL     1      -2.670  10.711  15.401  0.00  0.00    +0.000 S 
ATOM      8  N   UNL     1      -2.753  11.230  17.976  0.00  0.00    +0.000 N 
ATOM      9  C   UNL     1      -2.305  11.255  19.358  0.00  0.00    +0.000 C 
ATOM     10  C   UNL     1       0.776   9.040  18.736  0.00  0.00    +0.000 C 
ATOM     11  C   UNL     1       1.235   8.088  17.894  0.00  0.00    +0.000 C 
ATOM     12  C   UNL     1       1.490   9.457  20.012  0.00  0.00    +0.000 C 
ATOM     13  H   UNL     1      -0.513   9.480  16.482  0.00  0.00    +0.000 HD
ATOM     14  H   UNL     1      -3.592  11.741  17.733  0.00  0.00    +0.000 HD
ENDROOT
BRANCH   9  15
ATOM     15  C   UNL     1      -2.078  12.698  19.794  0.00  0.00    +0.000 A 
ATOM     16  C   UNL     1      -0.942  13.387  19.316  0.00  0.00    +0.000 A 
ATOM     17  C   UNL     1      -0.644  14.679  19.752  0.00  0.00    +0.000 A 
ATOM     18  C   UNL     1      -1.482  15.307  20.666  0.00  0.00    +0.000 A 
ATOM     19 CL   UNL     1      -1.108  16.892  21.220  0.00  0.00    +0.000 Cl
ATOM     20  C   UNL     1      -2.617  14.658  21.144  0.00  0.00    +0.000 A 
ATOM     21  C   UNL     1      -2.913  13.360  20.713  0.00  0.00    +0.000 A 
ATOM     22 CL   UNL     1      -4.318  12.615  21.387  0.00  0.00    +0.000 Cl
ENDBRANCH   9  15
BRANCH  11  23
ATOM     23  C   UNL     1       2.480   7.327  18.092  0.00  0.00    +0.000 A 
ATOM     24  C   UNL     1       3.551   7.571  17.219  0.00  0.00    +0.000 A 
ATOM     25  C   UNL     1       4.747   6.858  17.347  0.00  0.00    +0.000 A 
ATOM     26  C   UNL     1       4.878   5.899  18.349  0.00  0.00    +0.000 A 
ATOM     27 CL   UNL     1       6.349   5.020  18.501  0.00  0.00    +0.000 Cl
ATOM     28  C   UNL     1       3.826   5.643  19.225  0.00  0.00    +0.000 A 
ATOM     29  C   UNL     1       2.629   6.357  19.094  0.00  0.00    +0.000 A 
ATOM     30 CL   UNL     1       1.350   5.987  20.201  0.00  0.00    +0.000 Cl
ENDBRANCH  11  23
BRANCH   1  32
ATOM     31  C   UNL     1       0.358   9.504  23.674  0.00  0.00    +0.000 C 
ATOM     32  C   UNL     1       1.245   9.659  22.442  0.00  0.00    +0.000 C 
ENDBRANCH   1  32
TORSDOF 3
ENDMDL
MODEL 4
REMARK VINA RESULT:      -6.6      4.585      6.594
REMARK  Name = 
REMARK  4 active torsions:
REMARK  status: ('A' for Active; 'I' for Inactive)
REMARK    1  A    between atoms: C_1  and  C_2
REMARK    2  A    between atoms: C_2  and  N_3
REMARK    3  A    between atoms: C_11  and  C_12
REMARK    4  A    between atoms: C_21  and  C_22
REMARK                            x       y       z     vdW  Elec       q    Type
REMARK                         _______ _______ _______ _____ _____    ______ ____
ROOT
ATOM      1  N   UNL     1       0.061  15.196  19.491  0.00  0.00    +0.000 NA
ATOM      2  C   UNL     1      -0.914  14.087  19.505  0.00  0.00    +0.000 C 
ATOM      3  C   UNL     1      -0.393  12.791  20.085  0.00  0.00    +0.000 C 
ATOM      4  C   UNL     1       0.904  12.616  20.397  0.00  0.00    +0.000 C 
ATOM      5  N   UNL     1       1.319  11.407  20.889  0.00  0.00    +0.000 N 
ATOM      6  C   UNL     1       0.503  10.348  21.124  0.00  0.00    +0.000 C 
ATOM      7  S   UNL     1       1.093   8.917  21.727  0.00  0.00    +0.000 S 
ATOM      8  N   UNL     1      -0.810  10.498  20.840  0.00  0.00    +0.000 N 
ATOM      9  C   UNL     1      -1.408  11.683  20.249  0.00  0.00    +0.000 C 
ATOM     10  C   UNL     1       1.879  13.674  20.135  0.00  0.00    +0.000 C 
ATOM     11  C   UNL     1       3.081  13.757  20.745  0.00  0.00    +0.000 C 
ATOM     12  C   UNL     1       1.383  14.677  19.105  0.00  0.00    +0.000 C 
ATOM     13  H   UNL     1       2.300  11.255  21.083  0.00  0.00    +0.000 HD
ATOM     14  H   UNL     1      -1.407   9.702  21.027  0.00  0.00    +0.000 HD
ENDROOT
BRANCH   9  15
ATOM     15  C   UNL     1      -2.072  11.314  18.927  0.00  0.00    +0.000 A 
ATOM     16  C   UNL     1      -1.329  10.595  17.964  0.00  0.00    +0.000 A 
ATOM     17  C   UNL     1      -1.863  10.308  16.707  0.00  0.00    +0.000 A 
ATOM     18  C   UNL     1      -3.151  10.725  16.395  0.00  0.00    +0.000 A 
ATOM     19 CL   UNL     1      -3.805  10.390  14.840  0.00  0.00    +0.000 Cl
ATOM     20  C   UNL     1      -3.912  11.423  17.328  0.00  0.00    +0.000 A 
ATOM     21  C   UNL     1      -3.376  11.718  18.587  0.00  0.00    +0.000 A 
ATOM     22 CL   UNL     1      -4.375  12.622  19.668  0.00  0.00    +0.000 Cl
ENDBRANCH   9  15
BRANCH  11  23
ATOM     23  C   UNL     1       4.071  14.821  20.504  0.00  0.00    +0.000 A 
ATOM     24  C   UNL     1       4.962  14.664  19.431  0.00  0.00    +0.000 A 
ATOM     25  C   UNL     1       5.937  15.631  19.171  0.00  0.00    +0.000 A 
ATOM     26  C   UNL     1       6.025  16.761  19.982  0.00  0.00    +0.000 A 
ATOM     27 CL   UNL     1       7.230  17.947  19.663  0.00  0.00    +0.000 Cl
ATOM     28  C   UNL     1       5.150  16.934  21.052  0.00  0.00    +0.000 A 
ATOM     29  C   UNL     1       4.175  15.963  21.311  0.00  0.00    +0.000 A 
ATOM     30 CL   UNL     1       3.124  16.222  22.661  0.00  0.00    +0.000 Cl
ENDBRANCH  11  23
BRANCH   1  32
ATOM     31  C   UNL     1       0.648  17.266  18.170  0.00  0.00    +0.000 C 
ATOM     32  C   UNL     1      -0.418  16.257  18.588  0.00  0.00    +0.000 C 
ENDBRANCH   1  32
TORSDOF 3
ENDMDL
MODEL 5
REMARK VINA RESULT:      -6.5      3.745      8.306
REMARK  Name = 
REMARK  4 active torsions:
REMARK  status: ('A' for Active; 'I' for Inactive)
REMARK    1  A    between atoms: C_1  and  C_2
REMARK    2  A    between atoms: C_2  and  N_3
REMARK    3  A    between atoms: C_11  and  C_12
REMARK    4  A    between atoms: C_21  and  C_22
REMARK                            x       y       z     vdW  Elec       q    Type
REMARK                         _______ _______ _______ _____ _____    ______ ____
ROOT
ATOM      1  N   UNL     1      -1.306  15.791  19.986  0.00  0.00    +0.000 NA
ATOM      2  C   UNL     1       0.033  15.474  19.452  0.00  0.00    +0.000 C 
ATOM      3  C   UNL     1       0.282  14.005  19.194  0.00  0.00    +0.000 C 
ATOM      4  C   UNL     1      -0.582  13.052  19.588  0.00  0.00    +0.000 C 
ATOM      5  N   UNL     1      -0.283  11.736  19.353  0.00  0.00    +0.000 N 
ATOM      6  C   UNL     1       0.831  11.300  18.710  0.00  0.00    +0.000 C 
ATOM      7  S   UNL     1       1.112   9.681  18.465  0.00  0.00    +0.000 S 
ATOM      8  N   UNL     1       1.710  12.234  18.284  0.00  0.00    +0.000 N 
ATOM      9  C   UNL     1       1.586  13.664  18.510  0.00  0.00    +0.000 C 
ATOM     10  C   UNL     1      -1.788  13.408  20.335  0.00  0.00    +0.000 C 
ATOM     11  C   UNL     1      -2.876  12.612  20.429  0.00  0.00    +0.000 C 
ATOM     12  C   UNL     1      -1.684  14.778  20.985  0.00  0.00    +0.000 C 
ATOM     13  H   UNL     1      -0.907  11.013  19.686  0.00  0.00    +0.000 HD
ATOM     14  H   UNL     1       2.532  11.893  17.801  0.00  0.00    +0.000 HD
ENDROOT
BRANCH   9  15
ATOM     15  C   UNL     1       2.794  14.163  19.296  0.00  0.00    +0.000 A 
ATOM     16  C   UNL     1       2.966  13.735  20.631  0.00  0.00    +0.000 A 
ATOM     17  C   UNL     1       4.006  14.229  21.419  0.00  0.00    +0.000 A 
ATOM     18  C   UNL     1       4.898  15.150  20.883  0.00  0.00    +0.000 A 
ATOM     19 CL   UNL     1       6.170  15.776  21.858  0.00  0.00    +0.000 Cl
ATOM     20  C   UNL     1       4.762  15.580  19.566  0.00  0.00    +0.000 A 
ATOM     21  C   UNL     1       3.714  15.091  18.777  0.00  0.00    +0.000 A 
ATOM     22 CL   UNL     1       3.597  15.707  17.167  0.00  0.00    +0.000 Cl
ENDBRANCH   9  15
BRANCH  11  23
ATOM     23  C   UNL     1      -4.103  12.957  21.166  0.00  0.00    +0.000 A 
ATOM     24  C   UNL     1      -5.164  13.533  20.451  0.00  0.00    +0.000 A 
ATOM     25  C   UNL     1      -6.343  13.903  21.105  0.00  0.00    +0.000 A 
ATOM     26  C   UNL     1      -6.467  13.697  22.478  0.00  0.00    +0.000 A 
ATOM     27 CL   UNL     1      -7.917  14.158  23.281  0.00  0.00    +0.000 Cl
ATOM     28  C   UNL     1      -5.425  13.127  23.204  0.00  0.00    +0.000 A 
ATOM     29  C   UNL     1      -4.245  12.759  22.547  0.00  0.00    +0.000 A 
ATOM     30 CL   UNL     1      -2.977  12.068  23.501  0.00  0.00    +0.000 Cl
ENDBRANCH  11  23
BRANCH   1  32
ATOM     31  C   UNL     1      -2.353  17.413  21.615  0.00  0.00    +0.000 C 
ATOM     32  C   UNL     1      -1.302  17.157  20.538  0.00  0.00    +0.000 C 
ENDBRANCH   1  32
TORSDOF 3
ENDMDL
MODEL 6
REMARK VINA RESULT:      -6.5      3.971      6.034
REMARK  Name = 
REMARK  4 active torsions:
REMARK  status: ('A' for Active; 'I' for Inactive)
REMARK    1  A    between atoms: C_1  and  C_2
REMARK    2  A    between atoms: C_2  and  N_3
REMARK    3  A    between atoms: C_11  and  C_12
REMARK    4  A    between atoms: C_21  and  C_22
REMARK                            x       y       z     vdW  Elec       q    Type
REMARK                         _______ _______ _______ _____ _____    ______ ____
ROOT
ATOM      1  N   UNL     1      -1.642  12.078  21.212  0.00  0.00    +0.000 NA
ATOM      2  C   UNL     1      -2.006  12.680  22.510  0.00  0.00    +0.000 C 
ATOM      3  C   UNL     1      -3.491  12.844  22.740  0.00  0.00    +0.000 C 
ATOM      4  C   UNL     1      -4.395  12.624  21.767  0.00  0.00    +0.000 C 
ATOM      5  N   UNL     1      -5.725  12.822  22.031  0.00  0.00    +0.000 N 
ATOM      6  C   UNL     1      -6.227  13.203  23.233  0.00  0.00    +0.000 C 
ATOM      7  S   UNL     1      -7.857  13.417  23.464  0.00  0.00    +0.000 S 
ATOM      8  N   UNL     1      -5.345  13.413  24.237  0.00  0.00    +0.000 N 
ATOM      9  C   UNL     1      -3.900  13.318  24.115  0.00  0.00    +0.000 C 
ATOM     10  C   UNL     1      -3.960  12.261  20.420  0.00  0.00    +0.000 C 
ATOM     11  C   UNL     1      -4.756  11.655  19.511  0.00  0.00    +0.000 C 
ATOM     12  C   UNL     1      -2.508  12.632  20.159  0.00  0.00    +0.000 C 
ATOM     13  H   UNL     1      -6.405  12.702  21.291  0.00  0.00    +0.000 HD
ATOM     14  H   UNL     1      -5.735  13.690  25.129  0.00  0.00    +0.000 HD
ENDROOT
BRANCH   9  15
ATOM     15  C   UNL     1      -3.270  14.661  24.470  0.00  0.00    +0.000 A 
ATOM     16  C   UNL     1      -2.383  14.733  25.566  0.00  0.00    +0.000 A 
ATOM     17  C   UNL     1      -1.847  15.952  25.983  0.00  0.00    +0.000 A 
ATOM     18  C   UNL     1      -2.182  17.118  25.305  0.00  0.00    +0.000 A 
ATOM     19 CL   UNL     1      -1.539  18.626  25.828  0.00  0.00    +0.000 Cl
ATOM     20  C   UNL     1      -3.043  17.077  24.213  0.00  0.00    +0.000 A 
ATOM     21  C   UNL     1      -3.587  15.855  23.798  0.00  0.00    +0.000 A 
ATOM     22 CL   UNL     1      -4.677  15.901  22.459  0.00  0.00    +0.000 Cl
ENDBRANCH   9  15
BRANCH  11  23
ATOM     23  C   UNL     1      -4.333  11.271  18.153  0.00  0.00    +0.000 A 
ATOM     24  C   UNL     1      -3.289  10.342  18.023  0.00  0.00    +0.000 A 
ATOM     25  C   UNL     1      -2.831   9.961  16.759  0.00  0.00    +0.000 A 
ATOM     26  C   UNL     1      -3.416  10.506  15.618  0.00  0.00    +0.000 A 
ATOM     27 CL   UNL     1      -2.848  10.039  14.062  0.00  0.00    +0.000 Cl
ATOM     28  C   UNL     1      -4.453  11.430  15.726  0.00  0.00    +0.000 A 
ATOM     29  C   UNL     1      -4.909  11.811  16.994  0.00  0.00    +0.000 A 
ATOM     30 CL   UNL     1      -6.190  12.973  17.070  0.00  0.00    +0.000 Cl
ENDBRANCH  11  23
BRANCH   1  32
ATOM     31  C   UNL     1       0.124  12.640  19.497  0.00  0.00    +0.000 C 
ATOM     32  C   UNL     1      -0.211  12.310  20.949  0.00  0.00    +0.000 C 
ENDBRANCH   1  32
TORSDOF 3
ENDMDL
MODEL 7
REMARK VINA RESULT:      -6.5      2.700      8.273
REMARK  Name = 
REMARK  4 active torsions:
REMARK  status: ('A' for Active; 'I' for Inactive)
REMARK    1  A    between atoms: C_1  and  C_2
REMARK    2  A    between atoms: C_2  and  N_3
REMARK    3  A    between atoms: C_11  and  C_12
REMARK    4  A    between atoms: C_21  and  C_22
REMARK                            x       y       z     vdW  Elec       q    Type
REMARK                         _______ _______ _______ _____ _____    ______ ____
ROOT
ATOM      1  N   UNL     1       1.373  13.404  20.526  0.00  0.00    +0.000 NA
ATOM      2  C   UNL     1       1.542  12.259  19.609  0.00  0.00    +0.000 C 
ATOM      3  C   UNL     1       0.251  11.666  19.090  0.00  0.00    +0.000 C 
ATOM      4  C   UNL     1      -0.951  12.038  19.567  0.00  0.00    +0.000 C 
ATOM      5  N   UNL     1      -2.081  11.439  19.078  0.00  0.00    +0.000 N 
ATOM      6  C   UNL     1      -2.096  10.495  18.102  0.00  0.00    +0.000 C 
ATOM      7  S   UNL     1      -3.517   9.823  17.566  0.00  0.00    +0.000 S 
ATOM      8  N   UNL     1      -0.904  10.113  17.588  0.00  0.00    +0.000 N 
ATOM      9  C   UNL     1       0.392  10.591  18.037  0.00  0.00    +0.000 C 
ATOM     10  C   UNL     1      -1.048  13.009  20.656  0.00  0.00    +0.000 C 
ATOM     11  C   UNL     1      -2.163  13.722  20.930  0.00  0.00    +0.000 C 
ATOM     12  C   UNL     1       0.249  13.135  21.438  0.00  0.00    +0.000 C 
ATOM     13  H   UNL     1      -2.985  11.682  19.464  0.00  0.00    +0.000 HD
ATOM     14  H   UNL     1      -0.932   9.414  16.857  0.00  0.00    +0.000 HD
ENDROOT
BRANCH   9  15
ATOM     15  C   UNL     1       1.228   9.414  18.527  0.00  0.00    +0.000 A 
ATOM     16  C   UNL     1       2.202   8.860  17.667  0.00  0.00    +0.000 A 
ATOM     17  C   UNL     1       2.932   7.730  18.036  0.00  0.00    +0.000 A 
ATOM     18  C   UNL     1       2.709   7.140  19.274  0.00  0.00    +0.000 A 
ATOM     19 CL   UNL     1       3.594   5.735  19.724  0.00  0.00    +0.000 Cl
ATOM     20  C   UNL     1       1.766   7.672  20.149  0.00  0.00    +0.000 A 
ATOM     21  C   UNL     1       1.027   8.802  19.777  0.00  0.00    +0.000 A 
ATOM     22 CL   UNL     1      -0.150   9.370  20.906  0.00  0.00    +0.000 Cl
ENDBRANCH   9  15
BRANCH  11  23
ATOM     23  C   UNL     1      -2.277  14.713  22.013  0.00  0.00    +0.000 A 
ATOM     24  C   UNL     1      -1.941  16.045  21.730  0.00  0.00    +0.000 A 
ATOM     25  C   UNL     1      -2.008  17.022  22.728  0.00  0.00    +0.000 A 
ATOM     26  C   UNL     1      -2.411  16.671  24.014  0.00  0.00    +0.000 A 
ATOM     27 CL   UNL     1      -2.487  17.874  25.242  0.00  0.00    +0.000 Cl
ATOM     28  C   UNL     1      -2.749  15.354  24.315  0.00  0.00    +0.000 A 
ATOM     29  C   UNL     1      -2.680  14.377  23.314  0.00  0.00    +0.000 A 
ATOM     30 CL   UNL     1      -3.096  12.754  23.747  0.00  0.00    +0.000 Cl
ENDBRANCH  11  23
BRANCH   1  32
ATOM     31  C   UNL     1       3.643  14.509  20.482  0.00  0.00    +0.000 C 
ATOM     32  C   UNL     1       2.637  13.649  21.242  0.00  0.00    +0.000 C 
ENDBRANCH   1  32
TORSDOF 3
ENDMDL
MODEL 8
REMARK VINA RESULT:      -6.5      3.853      8.371
REMARK  Name = 
REMARK  4 active torsions:
REMARK  status: ('A' for Active; 'I' for Inactive)
REMARK    1  A    between atoms: C_1  and  C_2
REMARK    2  A    between atoms: C_2  and  N_3
REMARK    3  A    between atoms: C_11  and  C_12
REMARK    4  A    between atoms: C_21  and  C_22
REMARK                            x       y       z     vdW  Elec       q    Type
REMARK                         _______ _______ _______ _____ _____    ______ ____
ROOT
ATOM      1  N   UNL     1      -1.354  15.679  20.264  0.00  0.00    +0.000 NA
ATOM      2  C   UNL     1      -0.046  15.424  19.630  0.00  0.00    +0.000 C 
ATOM      3  C   UNL     1       0.246  13.969  19.340  0.00  0.00    +0.000 C 
ATOM      4  C   UNL     1      -0.546  12.977  19.787  0.00  0.00    +0.000 C 
ATOM      5  N   UNL     1      -0.208  11.677  19.517  0.00  0.00    +0.000 N 
ATOM      6  C   UNL     1       0.872  11.293  18.791  0.00  0.00    +0.000 C 
ATOM      7  S   UNL     1       1.204   9.690  18.511  0.00  0.00    +0.000 S 
ATOM      8  N   UNL     1       1.678  12.268  18.311  0.00  0.00    +0.000 N 
ATOM      9  C   UNL     1       1.510  13.690  18.560  0.00  0.00    +0.000 C 
ATOM     10  C   UNL     1      -1.708  13.275  20.623  0.00  0.00    +0.000 C 
ATOM     11  C   UNL     1      -2.751  12.433  20.788  0.00  0.00    +0.000 C 
ATOM     12  C   UNL     1      -1.615  14.645  21.277  0.00  0.00    +0.000 C 
ATOM     13  H   UNL     1      -0.775  10.925  19.888  0.00  0.00    +0.000 HD
ATOM     14  H   UNL     1       2.476  11.966  17.766  0.00  0.00    +0.000 HD
ENDROOT
BRANCH   9  15
ATOM     15  C   UNL     1       2.750  14.235  19.261  0.00  0.00    +0.000 A 
ATOM     16  C   UNL     1       3.019  13.831  20.587  0.00  0.00    +0.000 A 
ATOM     17  C   UNL     1       4.092  14.367  21.301  0.00  0.00    +0.000 A 
ATOM     18  C   UNL     1       4.919  15.306  20.698  0.00  0.00    +0.000 A 
ATOM     19 CL   UNL     1       6.231  15.983  21.581  0.00  0.00    +0.000 Cl
ATOM     20  C   UNL     1       4.687  15.713  19.387  0.00  0.00    +0.000 A 
ATOM     21  C   UNL     1       3.607  15.182  18.672  0.00  0.00    +0.000 A 
ATOM     22 CL   UNL     1       3.369  15.771  17.066  0.00  0.00    +0.000 Cl
ENDBRANCH   9  15
BRANCH  11  23
ATOM     23  C   UNL     1      -3.935  12.719  21.616  0.00  0.00    +0.000 A 
ATOM     24  C   UNL     1      -3.786  12.701  23.011  0.00  0.00    +0.000 A 
ATOM     25  C   UNL     1      -4.883  12.942  23.845  0.00  0.00    +0.000 A 
ATOM     26  C   UNL     1      -6.132  13.204  23.287  0.00  0.00    +0.000 A 
ATOM     27 CL   UNL     1      -7.480  13.495  24.315  0.00  0.00    +0.000 Cl
ATOM     28  C   UNL     1      -6.299  13.226  21.904  0.00  0.00    +0.000 A 
ATOM     29  C   UNL     1      -5.200  12.983  21.072  0.00  0.00    +0.000 A 
ATOM     30 CL   UNL     1      -5.468  13.009  19.362  0.00  0.00    +0.000 Cl
ENDBRANCH  11  23
BRANCH   1  32
ATOM     31  C   UNL     1      -1.898  17.134  22.256  0.00  0.00    +0.000 C 
ATOM     32  C   UNL     1      -1.369  17.041  20.827  0.00  0.00    +0.000 C 
ENDBRANCH   1  32
TORSDOF 3
ENDMDL
MODEL 9
REMARK VINA RESULT:      -6.5      4.530      6.677
REMARK  Name = 
REMARK  4 active torsions:
REMARK  status: ('A' for Active; 'I' for Inactive)
REMARK    1  A    between atoms: C_1  and  C_2
REMARK    2  A    between atoms: C_2  and  N_3
REMARK    3  A    between atoms: C_11  and  C_12
REMARK    4  A    between atoms: C_21  and  C_22
REMARK                            x       y       z     vdW  Elec       q    Type
REMARK                         _______ _______ _______ _____ _____    ______ ____
ROOT
ATOM      1  N   UNL     1      -0.114  15.163  19.688  0.00  0.00    +0.000 NA
ATOM      2  C   UNL     1      -1.042  14.015  19.655  0.00  0.00    +0.000 C 
ATOM      3  C   UNL     1      -0.470  12.722  20.190  0.00  0.00    +0.000 C 
ATOM      4  C   UNL     1       0.831  12.589  20.502  0.00  0.00    +0.000 C 
ATOM      5  N   UNL     1       1.293  11.380  20.952  0.00  0.00    +0.000 N 
ATOM      6  C   UNL     1       0.521  10.280  21.144  0.00  0.00    +0.000 C 
ATOM      7  S   UNL     1       1.167   8.853  21.697  0.00  0.00    +0.000 S 
ATOM      8  N   UNL     1      -0.796  10.387  20.858  0.00  0.00    +0.000 N 
ATOM      9  C   UNL     1      -1.440  11.567  20.307  0.00  0.00    +0.000 C 
ATOM     10  C   UNL     1       1.762  13.695  20.285  0.00  0.00    +0.000 C 
ATOM     11  C   UNL     1       2.958  13.804  20.905  0.00  0.00    +0.000 C 
ATOM     12  C   UNL     1       1.229  14.714  19.290  0.00  0.00    +0.000 C 
ATOM     13  H   UNL     1       2.279  11.261  21.146  0.00  0.00    +0.000 HD
ATOM     14  H   UNL     1      -1.360   9.560  21.013  0.00  0.00    +0.000 HD
ENDROOT
BRANCH   9  15
ATOM     15  C   UNL     1      -2.083  11.220  18.969  0.00  0.00    +0.000 A 
ATOM     16  C   UNL     1      -1.335  10.491  18.019  0.00  0.00    +0.000 A 
ATOM     17  C   UNL     1      -1.846  10.222  16.748  0.00  0.00    +0.000 A 
ATOM     18  C   UNL     1      -3.118  10.669  16.410  0.00  0.00    +0.000 A 
ATOM     19 CL   UNL     1      -3.745  10.357  14.839  0.00  0.00    +0.000 Cl
ATOM     20  C   UNL     1      -3.885  11.378  17.331  0.00  0.00    +0.000 A 
ATOM     21  C   UNL     1      -3.369  11.655  18.603  0.00  0.00    +0.000 A 
ATOM     22 CL   UNL     1      -4.372  12.574  19.668  0.00  0.00    +0.000 Cl
ENDBRANCH   9  15
BRANCH  11  23
ATOM     23  C   UNL     1       3.904  14.916  20.708  0.00  0.00    +0.000 A 
ATOM     24  C   UNL     1       4.067  15.839  21.753  0.00  0.00    +0.000 A 
ATOM     25  C   UNL     1       4.933  16.927  21.610  0.00  0.00    +0.000 A 
ATOM     26  C   UNL     1       5.641  17.096  20.422  0.00  0.00    +0.000 A 
ATOM     27 CL   UNL     1       6.703  18.439  20.247  0.00  0.00    +0.000 Cl
ATOM     28  C   UNL     1       5.493  16.191  19.374  0.00  0.00    +0.000 A 
ATOM     29  C   UNL     1       4.623  15.103  19.519  0.00  0.00    +0.000 A 
ATOM     30 CL   UNL     1       4.466  14.018  18.180  0.00  0.00    +0.000 Cl
ENDBRANCH  11  23
BRANCH   1  32
ATOM     31  C   UNL     1       0.436  17.155  18.236  0.00  0.00    +0.000 C 
ATOM     32  C   UNL     1      -0.633  16.236  18.821  0.00  0.00    +0.000 C 
ENDBRANCH   1  32
TORSDOF 3
ENDMDL
