MODEL 1
REMARK VINA RESULT:      -7.1      0.000      0.000
REMARK  Name = 
REMARK  6 active torsions:
REMARK  status: ('A' for Active; 'I' for Inactive)
REMARK    1  A    between atoms: C_2  and  C_15
REMARK    2  A    between atoms: N_3  and  C_4
REMARK    3  A    between atoms: C_4  and  C_5
REMARK    4  A    between atoms: C_5  and  C_6
REMARK    5  A    between atoms: C_6  and  O_7
REMARK    6  A    between atoms: C_6  and  C_8
REMARK                            x       y       z     vdW  Elec       q    Type
REMARK                         _______ _______ _______ _____ _____    ______ ____
ROOT
ATOM      1  C   UNL     1       2.794   2.135  19.026  0.00  0.00    +0.000 C 
ENDROOT
BRANCH   1   2
ATOM      2  C   UNL     1       4.185   2.722  19.250  0.00  0.00    +0.000 C 
BRANCH   2   5
ATOM      3  O   UNL     1       5.688   5.009  18.893  0.00  0.00    +0.000 OA
ATOM      4  C   UNL     1       5.557   4.257  17.941  0.00  0.00    +0.000 C 
ATOM      5  N   UNL     1       4.835   3.080  18.013  0.00  0.00    +0.000 N 
ATOM      6  H   UNL     1       4.801   2.449  17.229  0.00  0.00    +0.000 HD
BRANCH   4   7
ATOM      7  C   UNL     1       6.156   4.546  16.661  0.00  0.00    +0.000 A 
ATOM      8  C   UNL     1       5.773   3.986  15.408  0.00  0.00    +0.000 A 
ATOM      9  C   UNL     1       6.604   4.536  14.465  0.00  0.00    +0.000 A 
ATOM     10  O   UNL     1       7.481   5.391  15.044  0.00  0.00    +0.000 OA
ATOM     11  C   UNL     1       7.212   5.386  16.375  0.00  0.00    +0.000 A 
ENDBRANCH   4   7
ENDBRANCH   2   5
ENDBRANCH   1   2
BRANCH   1  12
ATOM     12  C   UNL     1       1.900   3.185  18.356  0.00  0.00    +0.000 C 
BRANCH  12  13
ATOM     13  C   UNL     1       1.976   4.598  18.893  0.00  0.00    +0.000 A 
ATOM     14  C   UNL     1       1.664   4.811  20.250  0.00  0.00    +0.000 A 
ATOM     15  C   UNL     1       1.696   6.092  20.804  0.00  0.00    +0.000 A 
ATOM     16  C   UNL     1       2.038   7.182  20.008  0.00  0.00    +0.000 A 
ATOM     17  C   UNL     1       2.347   6.985  18.666  0.00  0.00    +0.000 A 
ATOM     18 CL   UNL     1       2.758   8.333  17.676  0.00  0.00    +0.000 Cl
ATOM     19  C   UNL     1       2.318   5.705  18.107  0.00  0.00    +0.000 A 
ENDBRANCH  12  13
BRANCH  12  20
ATOM     20  O   UNL     1       2.202   3.236  16.961  0.00  0.00    +0.000 OA
ATOM     21  H   UNL     1       2.598   4.107  16.780  0.00  0.00    +0.000 HD
ENDBRANCH  12  20
ENDBRANCH   1  12
TORSDOF 6
ENDMDL
MODEL 2
REMARK VINA RESULT:      -6.9      2.645      3.535
REMARK  Name = 
REMARK  6 active torsions:
REMARK  status: ('A' for Active; 'I' for Inactive)
REMARK    1  A    between atoms: C_2  and  C_15
REMARK    2  A    between atoms: N_3  and  C_4
REMARK    3  A    between atoms: C_4  and  C_5
REMARK    4  A    between atoms: C_5  and  C_6
REMARK    5  A    between atoms: C_6  and  O_7
REMARK    6  A    between atoms: C_6  and  C_8
REMARK                            x       y       z     vdW  Elec       q    Type
REMARK                         _______ _______ _______ _____ _____    ______ ____
ROOT
ATOM      1  C   UNL     1       5.759   4.559  18.864  0.00  0.00    +0.000 C 
ENDROOT
BRANCH   1   2
ATOM      2  C   UNL     1       7.042   4.621  18.040  0.00  0.00    +0.000 C 
BRANCH   2   5
ATOM      3  O   UNL     1       7.609   6.199  15.848  0.00  0.00    +0.000 OA
ATOM      4  C   UNL     1       7.146   5.087  15.648  0.00  0.00    +0.000 C 
ATOM      5  N   UNL     1       6.836   4.212  16.672  0.00  0.00    +0.000 N 
ATOM      6  H   UNL     1       6.518   3.279  16.472  0.00  0.00    +0.000 HD
BRANCH   4   7
ATOM      7  C   UNL     1       6.889   4.604  14.313  0.00  0.00    +0.000 A 
ATOM      8  C   UNL     1       5.867   3.688  13.933  0.00  0.00    +0.000 A 
ATOM      9  C   UNL     1       5.988   3.509  12.578  0.00  0.00    +0.000 A 
ATOM     10  O   UNL     1       7.019   4.242  12.092  0.00  0.00    +0.000 OA
ATOM     11  C   UNL     1       7.567   4.896  13.147  0.00  0.00    +0.000 A 
ENDBRANCH   4   7
ENDBRANCH   2   5
ENDBRANCH   1   2
BRANCH   1  12
ATOM     12  C   UNL     1       4.553   4.448  17.922  0.00  0.00    +0.000 C 
BRANCH  12  13
ATOM     13  C   UNL     1       3.272   3.896  18.507  0.00  0.00    +0.000 A 
ATOM     14  C   UNL     1       2.140   3.813  17.672  0.00  0.00    +0.000 A 
ATOM     15  C   UNL     1       0.922   3.332  18.155  0.00  0.00    +0.000 A 
ATOM     16  C   UNL     1       0.815   2.928  19.482  0.00  0.00    +0.000 A 
ATOM     17  C   UNL     1       1.925   3.006  20.318  0.00  0.00    +0.000 A 
ATOM     18 CL   UNL     1       1.791   2.518  21.964  0.00  0.00    +0.000 Cl
ATOM     19  C   UNL     1       3.146   3.485  19.840  0.00  0.00    +0.000 A 
ENDBRANCH  12  13
BRANCH  12  20
ATOM     20  O   UNL     1       4.262   5.738  17.381  0.00  0.00    +0.000 OA
ATOM     21  H   UNL     1       5.001   5.981  16.795  0.00  0.00    +0.000 HD
ENDBRANCH  12  20
ENDBRANCH   1  12
TORSDOF 6
ENDMDL
MODEL 3
REMARK VINA RESULT:      -6.8      2.622      3.851
REMARK  Name = 
REMARK  6 active torsions:
REMARK  status: ('A' for Active; 'I' for Inactive)
REMARK    1  A    between atoms: C_2  and  C_15
REMARK    2  A    between atoms: N_3  and  C_4
REMARK    3  A    between atoms: C_4  and  C_5
REMARK    4  A    between atoms: C_5  and  C_6
REMARK    5  A    between atoms: C_6  and  O_7
REMARK    6  A    between atoms: C_6  and  C_8
REMARK                            x       y       z     vdW  Elec       q    Type
REMARK                         _______ _______ _______ _____ _____    ______ ____
ROOT
ATOM      1  C   UNL     1       4.247   6.716  17.536  0.00  0.00    +0.000 C 
ENDROOT
BRANCH   1   2
ATOM      2  C   UNL     1       5.688   6.598  17.044  0.00  0.00    +0.000 C 
BRANCH   2   5
ATOM      3  O   UNL     1       7.584   4.759  16.246  0.00  0.00    +0.000 OA
ATOM      4  C   UNL     1       6.768   5.135  15.419  0.00  0.00    +0.000 C 
ATOM      5  N   UNL     1       5.770   6.044  15.714  0.00  0.00    +0.000 N 
ATOM      6  H   UNL     1       5.073   6.284  15.029  0.00  0.00    +0.000 HD
BRANCH   4   7
ATOM      7  C   UNL     1       6.789   4.648  14.062  0.00  0.00    +0.000 A 
ATOM      8  C   UNL     1       7.677   5.069  13.031  0.00  0.00    +0.000 A 
ATOM      9  C   UNL     1       7.342   4.351  11.910  0.00  0.00    +0.000 A 
ATOM     10  O   UNL     1       6.304   3.520  12.170  0.00  0.00    +0.000 OA
ATOM     11  C   UNL     1       5.966   3.710  13.471  0.00  0.00    +0.000 A 
ENDBRANCH   4   7
ENDBRANCH   2   5
ENDBRANCH   1   2
BRANCH   1  12
ATOM     12  C   UNL     1       4.115   6.021  18.897  0.00  0.00    +0.000 C 
BRANCH  12  13
ATOM     13  C   UNL     1       3.058   4.945  19.020  0.00  0.00    +0.000 A 
ATOM     14  C   UNL     1       2.353   4.569  17.860  0.00  0.00    +0.000 A 
ATOM     15  C   UNL     1       1.352   3.597  17.909  0.00  0.00    +0.000 A 
ATOM     16  C   UNL     1       1.039   2.986  19.119  0.00  0.00    +0.000 A 
ATOM     17  C   UNL     1       1.728   3.349  20.272  0.00  0.00    +0.000 A 
ATOM     18 CL   UNL     1       1.333   2.604  21.774  0.00  0.00    +0.000 Cl
ATOM     19  C   UNL     1       2.731   4.320  20.229  0.00  0.00    +0.000 A 
ENDBRANCH  12  13
BRANCH  12  20
ATOM     20  O   UNL     1       5.370   5.438  19.248  0.00  0.00    +0.000 OA
ATOM     21  H   UNL     1       5.296   4.477  19.103  0.00  0.00    +0.000 HD
ENDBRANCH  12  20
ENDBRANCH   1  12
TORSDOF 6
ENDMDL
MODEL 4
REMARK VINA RESULT:      -6.7      1.405      1.771
REMARK  Name = 
REMARK  6 active torsions:
REMARK  status: ('A' for Active; 'I' for Inactive)
REMARK    1  A    between atoms: C_2  and  C_15
REMARK    2  A    between atoms: N_3  and  C_4
REMARK    3  A    between atoms: C_4  and  C_5
REMARK    4  A    between atoms: C_5  and  C_6
REMARK    5  A    between atoms: C_6  and  O_7
REMARK    6  A    between atoms: C_6  and  C_8
REMARK                            x       y       z     vdW  Elec       q    Type
REMARK                         _______ _______ _______ _____ _____    ______ ____
ROOT
ATOM      1  C   UNL     1       2.466   2.176  19.335  0.00  0.00    +0.000 C 
ENDROOT
BRANCH   1   2
ATOM      2  C   UNL     1       3.907   2.522  19.698  0.00  0.00    +0.000 C 
BRANCH   2   5
ATOM      3  O   UNL     1       5.266   4.914  19.477  0.00  0.00    +0.000 OA
ATOM      4  C   UNL     1       5.320   4.137  18.537  0.00  0.00    +0.000 C 
ATOM      5  N   UNL     1       4.686   2.908  18.547  0.00  0.00    +0.000 N 
ATOM      6  H   UNL     1       4.803   2.263  17.784  0.00  0.00    +0.000 HD
BRANCH   4   7
ATOM      7  C   UNL     1       6.059   4.449  17.338  0.00  0.00    +0.000 A 
ATOM      8  C   UNL     1       5.505   4.691  16.048  0.00  0.00    +0.000 A 
ATOM      9  C   UNL     1       6.562   4.946  15.211  0.00  0.00    +0.000 A 
ATOM     10  O   UNL     1       7.733   4.871  15.889  0.00  0.00    +0.000 OA
ATOM     11  C   UNL     1       7.424   4.561  17.173  0.00  0.00    +0.000 A 
ENDBRANCH   4   7
ENDBRANCH   2   5
ENDBRANCH   1   2
BRANCH   1  12
ATOM     12  C   UNL     1       1.517   3.182  19.999  0.00  0.00    +0.000 C 
BRANCH  12  13
ATOM     13  C   UNL     1       1.725   4.644  19.669  0.00  0.00    +0.000 A 
ATOM     14  C   UNL     1       2.066   4.986  18.346  0.00  0.00    +0.000 A 
ATOM     15  C   UNL     1       2.291   6.314  17.981  0.00  0.00    +0.000 A 
ATOM     16  C   UNL     1       2.179   7.323  18.933  0.00  0.00    +0.000 A 
ATOM     17  C   UNL     1       1.843   6.998  20.244  0.00  0.00    +0.000 A 
ATOM     18 CL   UNL     1       1.718   8.243  21.428  0.00  0.00    +0.000 Cl
ATOM     19  C   UNL     1       1.617   5.671  20.615  0.00  0.00    +0.000 A 
ENDBRANCH  12  13
BRANCH  12  20
ATOM     20  O   UNL     1       0.170   2.849  19.661  0.00  0.00    +0.000 OA
ATOM     21  H   UNL     1      -0.150   2.217  20.329  0.00  0.00    +0.000 HD
ENDBRANCH  12  20
ENDBRANCH   1  12
TORSDOF 6
ENDMDL
MODEL 5
REMARK VINA RESULT:      -6.7      2.866      6.616
REMARK  Name = 
REMARK  6 active torsions:
REMARK  status: ('A' for Active; 'I' for Inactive)
REMARK    1  A    between atoms: C_2  and  C_15
REMARK    2  A    between atoms: N_3  and  C_4
REMARK    3  A    between atoms: C_4  and  C_5
REMARK    4  A    between atoms: C_5  and  C_6
REMARK    5  A    between atoms: C_6  and  O_7
REMARK    6  A    between atoms: C_6  and  C_8
REMARK                            x       y       z     vdW  Elec       q    Type
REMARK                         _______ _______ _______ _____ _____    ______ ____
ROOT
ATOM      1  C   UNL     1       5.551   6.022  16.499  0.00  0.00    +0.000 C 
ENDROOT
BRANCH   1   2
ATOM      2  C   UNL     1       5.624   6.019  18.024  0.00  0.00    +0.000 C 
BRANCH   2   5
ATOM      3  O   UNL     1       5.369   3.677  19.461  0.00  0.00    +0.000 OA
ATOM      4  C   UNL     1       4.376   4.374  19.323  0.00  0.00    +0.000 C 
ATOM      5  N   UNL     1       4.395   5.571  18.632  0.00  0.00    +0.000 N 
ATOM      6  H   UNL     1       3.576   6.155  18.591  0.00  0.00    +0.000 HD
BRANCH   4   7
ATOM      7  C   UNL     1       3.101   3.994  19.879  0.00  0.00    +0.000 A 
ATOM      8  C   UNL     1       1.858   4.653  19.661  0.00  0.00    +0.000 A 
ATOM      9  C   UNL     1       0.916   3.960  20.379  0.00  0.00    +0.000 A 
ATOM     10  O   UNL     1       1.489   2.922  21.034  0.00  0.00    +0.000 OA
ATOM     11  C   UNL     1       2.813   2.952  20.737  0.00  0.00    +0.000 A 
ENDBRANCH   4   7
ENDBRANCH   2   5
ENDBRANCH   1   2
BRANCH   1  12
ATOM     12  C   UNL     1       5.649   4.582  15.981  0.00  0.00    +0.000 C 
BRANCH  12  13
ATOM     13  C   UNL     1       6.132   4.394  14.559  0.00  0.00    +0.000 A 
ATOM     14  C   UNL     1       7.196   5.197  14.106  0.00  0.00    +0.000 A 
ATOM     15  C   UNL     1       7.675   5.088  12.800  0.00  0.00    +0.000 A 
ATOM     16  C   UNL     1       7.097   4.174  11.924  0.00  0.00    +0.000 A 
ATOM     17  C   UNL     1       6.043   3.375  12.359  0.00  0.00    +0.000 A 
ATOM     18 CL   UNL     1       5.316   2.253  11.274  0.00  0.00    +0.000 Cl
ATOM     19  C   UNL     1       5.560   3.480  13.665  0.00  0.00    +0.000 A 
ENDBRANCH  12  13
BRANCH  12  20
ATOM     20  O   UNL     1       6.517   3.835  16.835  0.00  0.00    +0.000 OA
ATOM     21  H   UNL     1       7.083   3.285  16.265  0.00  0.00    +0.000 HD
ENDBRANCH  12  20
ENDBRANCH   1  12
TORSDOF 6
ENDMDL
MODEL 6
REMARK VINA RESULT:      -6.7      2.576      4.347
REMARK  Name = 
REMARK  6 active torsions:
REMARK  status: ('A' for Active; 'I' for Inactive)
REMARK    1  A    between atoms: C_2  and  C_15
REMARK    2  A    between atoms: N_3  and  C_4
REMARK    3  A    between atoms: C_4  and  C_5
REMARK    4  A    between atoms: C_5  and  C_6
REMARK    5  A    between atoms: C_6  and  O_7
REMARK    6  A    between atoms: C_6  and  C_8
REMARK                            x       y       z     vdW  Elec       q    Type
REMARK                         _______ _______ _______ _____ _____    ______ ____
ROOT
ATOM      1  C   UNL     1       6.074   5.923  16.756  0.00  0.00    +0.000 C 
ENDROOT
BRANCH   1   2
ATOM      2  C   UNL     1       7.105   5.123  15.964  0.00  0.00    +0.000 C 
BRANCH   2   5
ATOM      3  O   UNL     1       7.579   5.363  13.256  0.00  0.00    +0.000 OA
ATOM      4  C   UNL     1       6.797   4.501  13.625  0.00  0.00    +0.000 C 
ATOM      5  N   UNL     1       6.495   4.288  14.958  0.00  0.00    +0.000 N 
ATOM      6  H   UNL     1       5.897   3.528  15.234  0.00  0.00    +0.000 HD
BRANCH   4   7
ATOM      7  C   UNL     1       6.128   3.635  12.686  0.00  0.00    +0.000 A 
ATOM      8  C   UNL     1       4.772   3.743  12.261  0.00  0.00    +0.000 A 
ATOM      9  C   UNL     1       4.559   2.720  11.372  0.00  0.00    +0.000 A 
ATOM     10  O   UNL     1       5.684   1.980  11.221  0.00  0.00    +0.000 OA
ATOM     11  C   UNL     1       6.628   2.532  12.026  0.00  0.00    +0.000 A 
ENDBRANCH   4   7
ENDBRANCH   2   5
ENDBRANCH   1   2
BRANCH   1  12
ATOM     12  C   UNL     1       5.722   5.169  18.044  0.00  0.00    +0.000 C 
BRANCH  12  13
ATOM     13  C   UNL     1       4.311   4.636  18.166  0.00  0.00    +0.000 A 
ATOM     14  C   UNL     1       3.816   3.819  17.131  0.00  0.00    +0.000 A 
ATOM     15  C   UNL     1       2.516   3.312  17.172  0.00  0.00    +0.000 A 
ATOM     16  C   UNL     1       1.689   3.616  18.249  0.00  0.00    +0.000 A 
ATOM     17  C   UNL     1       2.165   4.423  19.277  0.00  0.00    +0.000 A 
ATOM     18 CL   UNL     1       1.138   4.812  20.605  0.00  0.00    +0.000 Cl
ATOM     19  C   UNL     1       3.465   4.933  19.242  0.00  0.00    +0.000 A 
ENDBRANCH  12  13
BRANCH  12  20
ATOM     20  O   UNL     1       6.616   4.066  18.199  0.00  0.00    +0.000 OA
ATOM     21  H   UNL     1       6.957   3.840  17.315  0.00  0.00    +0.000 HD
ENDBRANCH  12  20
ENDBRANCH   1  12
TORSDOF 6
ENDMDL
MODEL 7
REMARK VINA RESULT:      -6.6      2.808      6.635
REMARK  Name = 
REMARK  6 active torsions:
REMARK  status: ('A' for Active; 'I' for Inactive)
REMARK    1  A    between atoms: C_2  and  C_15
REMARK    2  A    between atoms: N_3  and  C_4
REMARK    3  A    between atoms: C_4  and  C_5
REMARK    4  A    between atoms: C_5  and  C_6
REMARK    5  A    between atoms: C_6  and  O_7
REMARK    6  A    between atoms: C_6  and  C_8
REMARK                            x       y       z     vdW  Elec       q    Type
REMARK                         _______ _______ _______ _____ _____    ______ ____
ROOT
ATOM      1  C   UNL     1       5.466   6.189  16.405  0.00  0.00    +0.000 C 
ENDROOT
BRANCH   1   2
ATOM      2  C   UNL     1       5.176   6.260  17.903  0.00  0.00    +0.000 C 
BRANCH   2   5
ATOM      3  O   UNL     1       2.442   6.600  18.076  0.00  0.00    +0.000 OA
ATOM      4  C   UNL     1       2.905   5.515  18.392  0.00  0.00    +0.000 C 
ATOM      5  N   UNL     1       4.257   5.233  18.332  0.00  0.00    +0.000 N 
ATOM      6  H   UNL     1       4.600   4.310  18.537  0.00  0.00    +0.000 HD
BRANCH   4   7
ATOM      7  C   UNL     1       2.062   4.438  18.851  0.00  0.00    +0.000 A 
ATOM      8  C   UNL     1       1.529   3.387  18.051  0.00  0.00    +0.000 A 
ATOM      9  C   UNL     1       0.789   2.594  18.891  0.00  0.00    +0.000 A 
ATOM     10  O   UNL     1       0.818   3.082  20.154  0.00  0.00    +0.000 OA
ATOM     11  C   UNL     1       1.582   4.204  20.124  0.00  0.00    +0.000 A 
ENDBRANCH   4   7
ENDBRANCH   2   5
ENDBRANCH   1   2
BRANCH   1  12
ATOM     12  C   UNL     1       5.744   4.734  16.008  0.00  0.00    +0.000 C 
BRANCH  12  13
ATOM     13  C   UNL     1       6.225   4.487  14.595  0.00  0.00    +0.000 A 
ATOM     14  C   UNL     1       7.324   5.231  14.126  0.00  0.00    +0.000 A 
ATOM     15  C   UNL     1       7.804   5.066  12.826  0.00  0.00    +0.000 A 
ATOM     16  C   UNL     1       7.191   4.154  11.972  0.00  0.00    +0.000 A 
ATOM     17  C   UNL     1       6.103   3.413  12.423  0.00  0.00    +0.000 A 
ATOM     18 CL   UNL     1       5.333   2.294  11.364  0.00  0.00    +0.000 Cl
ATOM     19  C   UNL     1       5.619   3.574  13.723  0.00  0.00    +0.000 A 
ENDBRANCH  12  13
BRANCH  12  20
ATOM     20  O   UNL     1       6.716   4.184  16.898  0.00  0.00    +0.000 OA
ATOM     21  H   UNL     1       6.368   4.276  17.803  0.00  0.00    +0.000 HD
ENDBRANCH  12  20
ENDBRANCH   1  12
TORSDOF 6
ENDMDL
MODEL 8
REMARK VINA RESULT:      -6.6      2.757      6.532
REMARK  Name = 
REMARK  6 active torsions:
REMARK  status: ('A' for Active; 'I' for Inactive)
REMARK    1  A    between atoms: C_2  and  C_15
REMARK    2  A    between atoms: N_3  and  C_4
REMARK    3  A    between atoms: C_4  and  C_5
REMARK    4  A    between atoms: C_5  and  C_6
REMARK    5  A    between atoms: C_6  and  O_7
REMARK    6  A    between atoms: C_6  and  C_8
REMARK                            x       y       z     vdW  Elec       q    Type
REMARK                         _______ _______ _______ _____ _____    ______ ____
ROOT
ATOM      1  C   UNL     1       6.259   6.127  16.570  0.00  0.00    +0.000 C 
ENDROOT
BRANCH   1   2
ATOM      2  C   UNL     1       5.071   6.775  17.275  0.00  0.00    +0.000 C 
BRANCH   2   5
ATOM      3  O   UNL     1       4.492   5.398  19.596  0.00  0.00    +0.000 OA
ATOM      4  C   UNL     1       3.766   5.221  18.630  0.00  0.00    +0.000 C 
ATOM      5  N   UNL     1       3.959   5.868  17.423  0.00  0.00    +0.000 N 
ATOM      6  H   UNL     1       3.306   5.750  16.667  0.00  0.00    +0.000 HD
BRANCH   4   7
ATOM      7  C   UNL     1       2.644   4.317  18.683  0.00  0.00    +0.000 A 
ATOM      8  C   UNL     1       1.751   4.149  19.780  0.00  0.00    +0.000 A 
ATOM      9  C   UNL     1       0.842   3.194  19.401  0.00  0.00    +0.000 A 
ATOM     10  O   UNL     1       1.113   2.751  18.149  0.00  0.00    +0.000 OA
ATOM     11  C   UNL     1       2.210   3.426  17.723  0.00  0.00    +0.000 A 
ENDBRANCH   4   7
ENDBRANCH   2   5
ENDBRANCH   1   2
BRANCH   1  12
ATOM     12  C   UNL     1       5.816   4.801  15.939  0.00  0.00    +0.000 C 
BRANCH  12  13
ATOM     13  C   UNL     1       6.272   4.528  14.522  0.00  0.00    +0.000 A 
ATOM     14  C   UNL     1       7.336   5.294  14.005  0.00  0.00    +0.000 A 
ATOM     15  C   UNL     1       7.791   5.106  12.700  0.00  0.00    +0.000 A 
ATOM     16  C   UNL     1       7.188   4.150  11.887  0.00  0.00    +0.000 A 
ATOM     17  C   UNL     1       6.136   3.388  12.384  0.00  0.00    +0.000 A 
ATOM     18 CL   UNL     1       5.379   2.214  11.376  0.00  0.00    +0.000 Cl
ATOM     19  C   UNL     1       5.676   3.571  13.691  0.00  0.00    +0.000 A 
ENDBRANCH  12  13
BRANCH  12  20
ATOM     20  O   UNL     1       6.268   3.720  16.754  0.00  0.00    +0.000 OA
ATOM     21  H   UNL     1       6.806   4.100  17.471  0.00  0.00    +0.000 HD
ENDBRANCH  12  20
ENDBRANCH   1  12
TORSDOF 6
ENDMDL
MODEL 9
REMARK VINA RESULT:      -6.6      2.591      3.890
REMARK  Name = 
REMARK  6 active torsions:
REMARK  status: ('A' for Active; 'I' for Inactive)
REMARK    1  A    between atoms: C_2  and  C_15
REMARK    2  A    between atoms: N_3  and  C_4
REMARK    3  A    between atoms: C_4  and  C_5
REMARK    4  A    between atoms: C_5  and  C_6
REMARK    5  A    between atoms: C_6  and  O_7
REMARK    6  A    between atoms: C_6  and  C_8
REMARK                            x       y       z     vdW  Elec       q    Type
REMARK                         _______ _______ _______ _____ _____    ______ ____
ROOT
ATOM      1  C   UNL     1       5.319   6.054  18.232  0.00  0.00    +0.000 C 
ENDROOT
BRANCH   1   2
ATOM      2  C   UNL     1       6.141   6.717  17.130  0.00  0.00    +0.000 C 
BRANCH   2   5
ATOM      3  O   UNL     1       7.778   4.718  16.162  0.00  0.00    +0.000 OA
ATOM      4  C   UNL     1       6.850   5.087  15.459  0.00  0.00    +0.000 C 
ATOM      5  N   UNL     1       5.964   6.073  15.851  0.00  0.00    +0.000 N 
ATOM      6  H   UNL     1       5.171   6.309  15.278  0.00  0.00    +0.000 HD
BRANCH   4   7
ATOM      7  C   UNL     1       6.611   4.512  14.159  0.00  0.00    +0.000 A 
ATOM      8  C   UNL     1       7.475   4.599  13.030  0.00  0.00    +0.000 A 
ATOM      9  C   UNL     1       6.858   3.916  12.012  0.00  0.00    +0.000 A 
ATOM     10  O   UNL     1       5.668   3.418  12.428  0.00  0.00    +0.000 OA
ATOM     11  C   UNL     1       5.519   3.789  13.725  0.00  0.00    +0.000 A 
ENDBRANCH   4   7
ENDBRANCH   2   5
ENDBRANCH   1   2
BRANCH   1  12
ATOM     12  C   UNL     1       3.891   5.812  17.729  0.00  0.00    +0.000 C 
BRANCH  12  13
ATOM     13  C   UNL     1       3.207   4.541  18.183  0.00  0.00    +0.000 A 
ATOM     14  C   UNL     1       3.096   3.480  17.264  0.00  0.00    +0.000 A 
ATOM     15  C   UNL     1       2.459   2.288  17.612  0.00  0.00    +0.000 A 
ATOM     16  C   UNL     1       1.921   2.138  18.887  0.00  0.00    +0.000 A 
ATOM     17  C   UNL     1       2.022   3.180  19.804  0.00  0.00    +0.000 A 
ATOM     18 CL   UNL     1       1.344   3.003  21.377  0.00  0.00    +0.000 Cl
ATOM     19  C   UNL     1       2.659   4.374  19.461  0.00  0.00    +0.000 A 
ENDBRANCH  12  13
BRANCH  12  20
ATOM     20  O   UNL     1       3.065   6.911  18.117  0.00  0.00    +0.000 OA
ATOM     21  H   UNL     1       2.187   6.552  18.336  0.00  0.00    +0.000 HD
ENDBRANCH  12  20
ENDBRANCH   1  12
TORSDOF 6
ENDMDL
