MODEL 1
REMARK VINA RESULT:      -6.5      0.000      0.000
REMARK  Name = 
REMARK  4 active torsions:
REMARK  status: ('A' for Active; 'I' for Inactive)
REMARK    1  A    between atoms: C_1  and  N_2
REMARK    2  A    between atoms: N_2  and  C_3
REMARK    3  A    between atoms: C_10  and  C_11
REMARK    4  A    between atoms: C_12  and  O_13
REMARK                            x       y       z     vdW  Elec       q    Type
REMARK                         _______ _______ _______ _____ _____    ______ ____
ROOT
ATOM      1  C   UNL     1       3.266   2.552  18.084  0.00  0.00    +0.000 C 
ATOM      2  C   UNL     1       3.482   2.982  19.540  0.00  0.00    +0.000 C 
ATOM      3  C   UNL     1       4.868   3.620  19.683  0.00  0.00    +0.000 C 
ATOM      4  C   UNL     1       5.181   4.645  18.613  0.00  0.00    +0.000 A 
ATOM      5  C   UNL     1       4.405   4.725  17.444  0.00  0.00    +0.000 A 
ATOM      6  C   UNL     1       4.714   5.681  16.470  0.00  0.00    +0.000 A 
ATOM      7  C   UNL     1       5.808   6.525  16.627  0.00  0.00    +0.000 A 
ATOM      8  C   UNL     1       6.618   6.435  17.766  0.00  0.00    +0.000 A 
ATOM      9  C   UNL     1       7.804   7.352  17.883  0.00  0.00    +0.000 C 
ATOM     10  C   UNL     1       6.295   5.488  18.747  0.00  0.00    +0.000 A 
ATOM     11  C   UNL     1       3.219   3.827  17.224  0.00  0.00    +0.000 C 
ENDROOT
BRANCH   1  13
ATOM     12  C   UNL     1       0.946   2.304  18.753  0.00  0.00    +0.000 C 
ATOM     13  N   UNL     1       2.037   1.751  17.953  0.00  0.00    +0.000 NA
ATOM     14  H   UNL     1       1.751   1.744  16.976  0.00  0.00    +0.000 HD
ENDBRANCH   1  13
BRANCH  10  15
ATOM     15  O   UNL     1       7.054   5.338  19.881  0.00  0.00    +0.000 OA
ATOM     16  H   UNL     1       7.514   4.486  19.845  0.00  0.00    +0.000 HD
ENDBRANCH  10  15
TORSDOF 2
ENDMDL
MODEL 2
REMARK VINA RESULT:      -6.5      2.540      4.756
REMARK  Name = 
REMARK  4 active torsions:
REMARK  status: ('A' for Active; 'I' for Inactive)
REMARK    1  A    between atoms: C_1  and  N_2
REMARK    2  A    between atoms: N_2  and  C_3
REMARK    3  A    between atoms: C_10  and  C_11
REMARK    4  A    between atoms: C_12  and  O_13
REMARK                            x       y       z     vdW  Elec       q    Type
REMARK                         _______ _______ _______ _____ _____    ______ ____
ROOT
ATOM      1  C   UNL     1       6.033   5.476  16.570  0.00  0.00    +0.000 C 
ATOM      2  C   UNL     1       6.510   5.429  18.027  0.00  0.00    +0.000 C 
ATOM      3  C   UNL     1       5.313   5.624  18.963  0.00  0.00    +0.000 C 
ATOM      4  C   UNL     1       4.116   4.767  18.608  0.00  0.00    +0.000 A 
ATOM      5  C   UNL     1       4.030   4.134  17.356  0.00  0.00    +0.000 A 
ATOM      6  C   UNL     1       2.914   3.347  17.051  0.00  0.00    +0.000 A 
ATOM      7  C   UNL     1       1.867   3.218  17.958  0.00  0.00    +0.000 A 
ATOM      8  C   UNL     1       1.915   3.872  19.195  0.00  0.00    +0.000 A 
ATOM      9  C   UNL     1       0.752   3.724  20.136  0.00  0.00    +0.000 C 
ATOM     10  C   UNL     1       3.043   4.646  19.503  0.00  0.00    +0.000 A 
ATOM     11  C   UNL     1       5.130   4.251  16.337  0.00  0.00    +0.000 C 
ENDROOT
BRANCH   1  13
ATOM     12  C   UNL     1       6.900   4.753  14.421  0.00  0.00    +0.000 C 
ATOM     13  N   UNL     1       7.179   5.502  15.645  0.00  0.00    +0.000 NA
ATOM     14  H   UNL     1       7.379   6.468  15.396  0.00  0.00    +0.000 HD
ENDBRANCH   1  13
BRANCH  10  15
ATOM     15  O   UNL     1       3.148   5.324  20.693  0.00  0.00    +0.000 OA
ATOM     16  H   UNL     1       3.229   4.686  21.417  0.00  0.00    +0.000 HD
ENDBRANCH  10  15
TORSDOF 2
ENDMDL
MODEL 3
REMARK VINA RESULT:      -6.4      2.257      2.580
REMARK  Name = 
REMARK  4 active torsions:
REMARK  status: ('A' for Active; 'I' for Inactive)
REMARK    1  A    between atoms: C_1  and  N_2
REMARK    2  A    between atoms: N_2  and  C_3
REMARK    3  A    between atoms: C_10  and  C_11
REMARK    4  A    between atoms: C_12  and  O_13
REMARK                            x       y       z     vdW  Elec       q    Type
REMARK                         _______ _______ _______ _____ _____    ______ ____
ROOT
ATOM      1  C   UNL     1       1.601   3.337  19.200  0.00  0.00    +0.000 C 
ATOM      2  C   UNL     1       2.754   2.335  19.337  0.00  0.00    +0.000 C 
ATOM      3  C   UNL     1       3.620   2.377  18.074  0.00  0.00    +0.000 C 
ATOM      4  C   UNL     1       3.982   3.779  17.629  0.00  0.00    +0.000 A 
ATOM      5  C   UNL     1       3.299   4.895  18.142  0.00  0.00    +0.000 A 
ATOM      6  C   UNL     1       3.652   6.181  17.716  0.00  0.00    +0.000 A 
ATOM      7  C   UNL     1       4.643   6.364  16.758  0.00  0.00    +0.000 A 
ATOM      8  C   UNL     1       5.308   5.262  16.205  0.00  0.00    +0.000 A 
ATOM      9  C   UNL     1       6.356   5.505  15.155  0.00  0.00    +0.000 C 
ATOM     10  C   UNL     1       4.964   3.978  16.647  0.00  0.00    +0.000 A 
ATOM     11  C   UNL     1       2.213   4.749  19.173  0.00  0.00    +0.000 C 
ENDROOT
BRANCH   1  13
ATOM     12  C   UNL     1       1.295   2.787  21.544  0.00  0.00    +0.000 C 
ATOM     13  N   UNL     1       0.634   3.175  20.299  0.00  0.00    +0.000 NA
ATOM     14  H   UNL     1       0.155   4.061  20.449  0.00  0.00    +0.000 HD
ENDBRANCH   1  13
BRANCH  10  15
ATOM     15  O   UNL     1       5.567   2.854  16.137  0.00  0.00    +0.000 OA
ATOM     16  H   UNL     1       6.482   2.813  16.453  0.00  0.00    +0.000 HD
ENDBRANCH  10  15
TORSDOF 2
ENDMDL
MODEL 4
REMARK VINA RESULT:      -6.4      2.761      5.230
REMARK  Name = 
REMARK  4 active torsions:
REMARK  status: ('A' for Active; 'I' for Inactive)
REMARK    1  A    between atoms: C_1  and  N_2
REMARK    2  A    between atoms: N_2  and  C_3
REMARK    3  A    between atoms: C_10  and  C_11
REMARK    4  A    between atoms: C_12  and  O_13
REMARK                            x       y       z     vdW  Elec       q    Type
REMARK                         _______ _______ _______ _____ _____    ______ ____
ROOT
ATOM      1  C   UNL     1       6.200   6.598  17.292  0.00  0.00    +0.000 C 
ATOM      2  C   UNL     1       6.469   5.387  16.390  0.00  0.00    +0.000 C 
ATOM      3  C   UNL     1       5.810   4.143  16.997  0.00  0.00    +0.000 C 
ATOM      4  C   UNL     1       4.377   4.365  17.435  0.00  0.00    +0.000 A 
ATOM      5  C   UNL     1       3.859   5.663  17.571  0.00  0.00    +0.000 A 
ATOM      6  C   UNL     1       2.532   5.842  17.977  0.00  0.00    +0.000 A 
ATOM      7  C   UNL     1       1.732   4.748  18.290  0.00  0.00    +0.000 A 
ATOM      8  C   UNL     1       2.242   3.447  18.200  0.00  0.00    +0.000 A 
ATOM      9  C   UNL     1       1.350   2.295  18.570  0.00  0.00    +0.000 C 
ATOM     10  C   UNL     1       3.566   3.272  17.776  0.00  0.00    +0.000 A 
ATOM     11  C   UNL     1       4.687   6.879  17.254  0.00  0.00    +0.000 C 
ENDROOT
BRANCH   1  13
ATOM     12  C   UNL     1       7.993   8.137  17.846  0.00  0.00    +0.000 C 
ATOM     13  N   UNL     1       6.989   7.762  16.853  0.00  0.00    +0.000 NA
ATOM     14  H   UNL     1       7.464   7.528  15.983  0.00  0.00    +0.000 HD
ENDBRANCH   1  13
BRANCH  10  15
ATOM     15  O   UNL     1       4.133   2.024  17.678  0.00  0.00    +0.000 OA
ATOM     16  H   UNL     1       4.334   1.696  18.567  0.00  0.00    +0.000 HD
ENDBRANCH  10  15
TORSDOF 2
ENDMDL
MODEL 5
REMARK VINA RESULT:      -6.3      2.875      5.226
REMARK  Name = 
REMARK  4 active torsions:
REMARK  status: ('A' for Active; 'I' for Inactive)
REMARK    1  A    between atoms: C_1  and  N_2
REMARK    2  A    between atoms: N_2  and  C_3
REMARK    3  A    between atoms: C_10  and  C_11
REMARK    4  A    between atoms: C_12  and  O_13
REMARK                            x       y       z     vdW  Elec       q    Type
REMARK                         _______ _______ _______ _____ _____    ______ ____
ROOT
ATOM      1  C   UNL     1       6.294   5.625  17.061  0.00  0.00    +0.000 C 
ATOM      2  C   UNL     1       5.596   4.879  15.917  0.00  0.00    +0.000 C 
ATOM      3  C   UNL     1       4.677   3.800  16.499  0.00  0.00    +0.000 C 
ATOM      4  C   UNL     1       3.799   4.291  17.631  0.00  0.00    +0.000 A 
ATOM      5  C   UNL     1       4.070   5.511  18.274  0.00  0.00    +0.000 A 
ATOM      6  C   UNL     1       3.245   5.944  19.318  0.00  0.00    +0.000 A 
ATOM      7  C   UNL     1       2.183   5.160  19.754  0.00  0.00    +0.000 A 
ATOM      8  C   UNL     1       1.919   3.923  19.153  0.00  0.00    +0.000 A 
ATOM      9  C   UNL     1       0.775   3.097  19.672  0.00  0.00    +0.000 C 
ATOM     10  C   UNL     1       2.738   3.501  18.097  0.00  0.00    +0.000 A 
ATOM     11  C   UNL     1       5.214   6.390  17.846  0.00  0.00    +0.000 C 
ENDROOT
BRANCH   1  13
ATOM     12  C   UNL     1       7.613   7.624  17.461  0.00  0.00    +0.000 C 
ATOM     13  N   UNL     1       7.338   6.524  16.538  0.00  0.00    +0.000 NA
ATOM     14  H   UNL     1       8.194   5.991  16.404  0.00  0.00    +0.000 HD
ENDBRANCH   1  13
BRANCH  10  15
ATOM     15  O   UNL     1       2.543   2.293  17.472  0.00  0.00    +0.000 OA
ATOM     16  H   UNL     1       1.778   1.850  17.869  0.00  0.00    +0.000 HD
ENDBRANCH  10  15
TORSDOF 2
ENDMDL
MODEL 6
REMARK VINA RESULT:      -6.3      2.731      4.922
REMARK  Name = 
REMARK  4 active torsions:
REMARK  status: ('A' for Active; 'I' for Inactive)
REMARK    1  A    between atoms: C_1  and  N_2
REMARK    2  A    between atoms: N_2  and  C_3
REMARK    3  A    between atoms: C_10  and  C_11
REMARK    4  A    between atoms: C_12  and  O_13
REMARK                            x       y       z     vdW  Elec       q    Type
REMARK                         _______ _______ _______ _____ _____    ______ ____
ROOT
ATOM      1  C   UNL     1       5.401   5.396  15.494  0.00  0.00    +0.000 C 
ATOM      2  C   UNL     1       5.659   6.407  16.618  0.00  0.00    +0.000 C 
ATOM      3  C   UNL     1       4.378   6.598  17.437  0.00  0.00    +0.000 C 
ATOM      4  C   UNL     1       3.705   5.298  17.827  0.00  0.00    +0.000 A 
ATOM      5  C   UNL     1       4.056   4.090  17.201  0.00  0.00    +0.000 A 
ATOM      6  C   UNL     1       3.420   2.902  17.579  0.00  0.00    +0.000 A 
ATOM      7  C   UNL     1       2.414   2.910  18.539  0.00  0.00    +0.000 A 
ATOM      8  C   UNL     1       2.022   4.110  19.147  0.00  0.00    +0.000 A 
ATOM      9  C   UNL     1       0.913   4.076  20.162  0.00  0.00    +0.000 C 
ATOM     10  C   UNL     1       2.673   5.295  18.777  0.00  0.00    +0.000 A 
ATOM     11  C   UNL     1       5.130   4.031  16.150  0.00  0.00    +0.000 C 
ENDROOT
BRANCH   1  13
ATOM     12  C   UNL     1       6.527   4.126  13.759  0.00  0.00    +0.000 C 
ATOM     13  N   UNL     1       6.542   5.346  14.564  0.00  0.00    +0.000 NA
ATOM     14  H   UNL     1       6.493   6.148  13.939  0.00  0.00    +0.000 HD
ENDBRANCH   1  13
BRANCH  10  15
ATOM     15  O   UNL     1       2.328   6.507  19.324  0.00  0.00    +0.000 OA
ATOM     16  H   UNL     1       2.466   6.474  20.283  0.00  0.00    +0.000 HD
ENDBRANCH  10  15
TORSDOF 2
ENDMDL
MODEL 7
REMARK VINA RESULT:      -6.3      2.655      5.097
REMARK  Name = 
REMARK  4 active torsions:
REMARK  status: ('A' for Active; 'I' for Inactive)
REMARK    1  A    between atoms: C_1  and  N_2
REMARK    2  A    between atoms: N_2  and  C_3
REMARK    3  A    between atoms: C_10  and  C_11
REMARK    4  A    between atoms: C_12  and  O_13
REMARK                            x       y       z     vdW  Elec       q    Type
REMARK                         _______ _______ _______ _____ _____    ______ ____
ROOT
ATOM      1  C   UNL     1       6.737   6.862  17.684  0.00  0.00    +0.000 C 
ATOM      2  C   UNL     1       7.321   5.462  17.457  0.00  0.00    +0.000 C 
ATOM      3  C   UNL     1       6.613   4.460  18.375  0.00  0.00    +0.000 C 
ATOM      4  C   UNL     1       5.104   4.581  18.363  0.00  0.00    +0.000 A 
ATOM      5  C   UNL     1       4.478   5.718  17.824  0.00  0.00    +0.000 A 
ATOM      6  C   UNL     1       3.081   5.808  17.824  0.00  0.00    +0.000 A 
ATOM      7  C   UNL     1       2.306   4.801  18.390  0.00  0.00    +0.000 A 
ATOM      8  C   UNL     1       2.912   3.678  18.968  0.00  0.00    +0.000 A 
ATOM      9  C   UNL     1       2.036   2.626  19.589  0.00  0.00    +0.000 C 
ATOM     10  C   UNL     1       4.310   3.585  18.950  0.00  0.00    +0.000 A 
ATOM     11  C   UNL     1       5.273   6.838  17.210  0.00  0.00    +0.000 C 
ENDROOT
BRANCH   1  13
ATOM     12  C   UNL     1       8.090   8.866  17.899  0.00  0.00    +0.000 C 
ATOM     13  N   UNL     1       7.531   7.880  16.975  0.00  0.00    +0.000 NA
ATOM     14  H   UNL     1       8.297   7.420  16.488  0.00  0.00    +0.000 HD
ENDBRANCH   1  13
BRANCH  10  15
ATOM     15  O   UNL     1       4.968   2.517  19.511  0.00  0.00    +0.000 OA
ATOM     16  H   UNL     1       4.653   1.698  19.099  0.00  0.00    +0.000 HD
ENDBRANCH  10  15
TORSDOF 2
ENDMDL
MODEL 8
REMARK VINA RESULT:      -6.1      3.062      4.649
REMARK  Name = 
REMARK  4 active torsions:
REMARK  status: ('A' for Active; 'I' for Inactive)
REMARK    1  A    between atoms: C_1  and  N_2
REMARK    2  A    between atoms: N_2  and  C_3
REMARK    3  A    between atoms: C_10  and  C_11
REMARK    4  A    between atoms: C_12  and  O_13
REMARK                            x       y       z     vdW  Elec       q    Type
REMARK                         _______ _______ _______ _____ _____    ______ ____
ROOT
ATOM      1  C   UNL     1       6.321   5.275  15.991  0.00  0.00    +0.000 C 
ATOM      2  C   UNL     1       5.575   3.944  15.830  0.00  0.00    +0.000 C 
ATOM      3  C   UNL     1       4.855   3.602  17.138  0.00  0.00    +0.000 C 
ATOM      4  C   UNL     1       4.072   4.759  17.724  0.00  0.00    +0.000 A 
ATOM      5  C   UNL     1       4.285   6.073  17.275  0.00  0.00    +0.000 A 
ATOM      6  C   UNL     1       3.550   7.126  17.831  0.00  0.00    +0.000 A 
ATOM      7  C   UNL     1       2.639   6.891  18.856  0.00  0.00    +0.000 A 
ATOM      8  C   UNL     1       2.441   5.594  19.345  0.00  0.00    +0.000 A 
ATOM      9  C   UNL     1       1.463   5.389  20.470  0.00  0.00    +0.000 C 
ATOM     10  C   UNL     1       3.167   4.540  18.774  0.00  0.00    +0.000 A 
ATOM     11  C   UNL     1       5.267   6.380  16.176  0.00  0.00    +0.000 C 
ENDROOT
BRANCH   1  13
ATOM     12  C   UNL     1       6.920   4.594  13.739  0.00  0.00    +0.000 C 
ATOM     13  N   UNL     1       7.190   5.530  14.829  0.00  0.00    +0.000 NA
ATOM     14  H   UNL     1       7.022   6.476  14.494  0.00  0.00    +0.000 HD
ENDBRANCH   1  13
BRANCH  10  15
ATOM     15  O   UNL     1       3.030   3.247  19.216  0.00  0.00    +0.000 OA
ATOM     16  H   UNL     1       3.084   3.234  20.183  0.00  0.00    +0.000 HD
ENDBRANCH  10  15
TORSDOF 2
ENDMDL
MODEL 9
REMARK VINA RESULT:      -6.1      3.209      4.076
REMARK  Name = 
REMARK  4 active torsions:
REMARK  status: ('A' for Active; 'I' for Inactive)
REMARK    1  A    between atoms: C_1  and  N_2
REMARK    2  A    between atoms: N_2  and  C_3
REMARK    3  A    between atoms: C_10  and  C_11
REMARK    4  A    between atoms: C_12  and  O_13
REMARK                            x       y       z     vdW  Elec       q    Type
REMARK                         _______ _______ _______ _____ _____    ______ ____
ROOT
ATOM      1  C   UNL     1       2.639   6.659  19.735  0.00  0.00    +0.000 C 
ATOM      2  C   UNL     1       2.434   7.609  18.548  0.00  0.00    +0.000 C 
ATOM      3  C   UNL     1       3.627   7.497  17.593  0.00  0.00    +0.000 C 
ATOM      4  C   UNL     1       4.015   6.069  17.267  0.00  0.00    +0.000 A 
ATOM      5  C   UNL     1       3.534   4.999  18.039  0.00  0.00    +0.000 A 
ATOM      6  C   UNL     1       3.906   3.688  17.719  0.00  0.00    +0.000 A 
ATOM      7  C   UNL     1       4.783   3.437  16.668  0.00  0.00    +0.000 A 
ATOM      8  C   UNL     1       5.305   4.493  15.912  0.00  0.00    +0.000 A 
ATOM      9  C   UNL     1       6.268   4.178  14.800  0.00  0.00    +0.000 C 
ATOM     10  C   UNL     1       4.916   5.803  16.225  0.00  0.00    +0.000 A 
ATOM     11  C   UNL     1       2.592   5.220  19.191  0.00  0.00    +0.000 C 
ENDROOT
BRANCH   1  13
ATOM     12  C   UNL     1       1.332   8.316  20.935  0.00  0.00    +0.000 C 
ATOM     13  N   UNL     1       1.619   6.892  20.772  0.00  0.00    +0.000 NA
ATOM     14  H   UNL     1       0.760   6.416  20.502  0.00  0.00    +0.000 HD
ENDBRANCH   1  13
BRANCH  10  15
ATOM     15  O   UNL     1       5.401   6.884  15.532  0.00  0.00    +0.000 OA
ATOM     16  H   UNL     1       5.484   7.638  16.136  0.00  0.00    +0.000 HD
ENDBRANCH  10  15
TORSDOF 2
ENDMDL
