MODEL 1
REMARK VINA RESULT:      -8.8      0.000      0.000
REMARK  Name = 
REMARK  9 active torsions:
REMARK  status: ('A' for Active; 'I' for Inactive)
REMARK    1  A    between atoms: C_1  and  C_2
REMARK    2  A    between atoms: C_5  and  O_6
REMARK    3  A    between atoms: O_6  and  C_7
REMARK    4  A    between atoms: C_7  and  C_8
REMARK    5  A    between atoms: N_10  and  C_11
REMARK    6  A    between atoms: C_14  and  O_15
REMARK    7  A    between atoms: C_16  and  C_17
REMARK    8  A    between atoms: C_21  and  C_22
REMARK    9  A    between atoms: C_23  and  C_24
REMARK                            x       y       z     vdW  Elec       q    Type
REMARK                         _______ _______ _______ _____ _____    ______ ____
ROOT
ATOM      1  C   UNL     1       2.215   7.044  19.770  0.00  0.00    +0.000 A 
ATOM      2  C   UNL     1       2.518   7.314  18.435  0.00  0.00    +0.000 A 
ATOM      3  C   UNL     1       2.146   8.521  17.841  0.00  0.00    +0.000 A 
ATOM      4  C   UNL     1       1.479   9.491  18.587  0.00  0.00    +0.000 A 
ATOM      5  C   UNL     1       1.136   9.256  19.925  0.00  0.00    +0.000 A 
ATOM      6  C   UNL     1       1.471   7.997  20.488  0.00  0.00    +0.000 A 
ENDROOT
BRANCH   5   7
ATOM      7  C   UNL     1       0.469  10.255  20.771  0.00  0.00    +0.000 A 
ATOM      8  N   UNL     1      -0.466  10.055  21.682  0.00  0.00    +0.000 NA
ATOM      9  C   UNL     1      -0.742  11.318  22.142  0.00  0.00    +0.000 A 
ATOM     10  C   UNL     1      -1.708  11.761  23.046  0.00  0.00    +0.000 A 
ATOM     11  C   UNL     1      -1.849  13.148  23.274  0.00  0.00    +0.000 A 
ATOM     12  C   UNL     1      -3.049  13.602  24.063  0.00  0.00    +0.000 C 
ATOM     13  C   UNL     1      -0.920  14.065  22.726  0.00  0.00    +0.000 A 
ATOM     14  C   UNL     1      -0.921  15.525  23.113  0.00  0.00    +0.000 C 
ATOM     15  C   UNL     1       0.079  13.610  21.829  0.00  0.00    +0.000 A 
ATOM     16  C   UNL     1       0.094  12.241  21.550  0.00  0.00    +0.000 A 
ATOM     17  O   UNL     1       0.898  11.562  20.680  0.00  0.00    +0.000 OA
ENDBRANCH   5   7
BRANCH   1  20
ATOM     18  C   UNL     1       1.843   4.760  20.718  0.00  0.00    +0.000 C 
ATOM     19  O   UNL     1       0.653   4.654  20.419  0.00  0.00    +0.000 OA
ATOM     20  N   UNL     1       2.651   5.862  20.428  0.00  0.00    +0.000 N 
ATOM     21  H   UNL     1       3.653   5.729  20.514  0.00  0.00    +0.000 HD
BRANCH  18  22
ATOM     22  C   UNL     1       2.554   3.612  21.447  0.00  0.00    +0.000 C 
BRANCH  22  23
ATOM     23  O   UNL     1       2.944   2.625  20.499  0.00  0.00    +0.000 OA
BRANCH  23  28
ATOM     24  C   UNL     1       5.382   4.307  15.642  0.00  0.00    +0.000 C 
ATOM     25  C   UNL     1       4.695   3.919  16.923  0.00  0.00    +0.000 A 
ATOM     26  C   UNL     1       5.360   4.001  18.150  0.00  0.00    +0.000 A 
ATOM     27  C   UNL     1       4.728   3.582  19.326  0.00  0.00    +0.000 A 
ATOM     28  C   UNL     1       3.423   3.084  19.300  0.00  0.00    +0.000 A 
ATOM     29  C   UNL     1       2.747   3.018  18.082  0.00  0.00    +0.000 A 
ATOM     30  C   UNL     1       3.383   3.430  16.899  0.00  0.00    +0.000 A 
ENDBRANCH  23  28
ENDBRANCH  22  23
ENDBRANCH  18  22
ENDBRANCH   1  20
BRANCH   4  31
ATOM     31  O   UNL     1       1.149  10.667  17.972  0.00  0.00    +0.000 OA
ATOM     32  H   UNL     1       1.892  11.288  18.055  0.00  0.00    +0.000 HD
ENDBRANCH   4  31
TORSDOF 6
ENDMDL
MODEL 2
REMARK VINA RESULT:      -8.7      2.630      5.134
REMARK  Name = 
REMARK  9 active torsions:
REMARK  status: ('A' for Active; 'I' for Inactive)
REMARK    1  A    between atoms: C_1  and  C_2
REMARK    2  A    between atoms: C_5  and  O_6
REMARK    3  A    between atoms: O_6  and  C_7
REMARK    4  A    between atoms: C_7  and  C_8
REMARK    5  A    between atoms: N_10  and  C_11
REMARK    6  A    between atoms: C_14  and  O_15
REMARK    7  A    between atoms: C_16  and  C_17
REMARK    8  A    between atoms: C_21  and  C_22
REMARK    9  A    between atoms: C_23  and  C_24
REMARK                            x       y       z     vdW  Elec       q    Type
REMARK                         _______ _______ _______ _____ _____    ______ ____
ROOT
ATOM      1  C   UNL     1       4.409   4.018  18.784  0.00  0.00    +0.000 A 
ATOM      2  C   UNL     1       3.739   2.854  19.158  0.00  0.00    +0.000 A 
ATOM      3  C   UNL     1       2.520   2.910  19.837  0.00  0.00    +0.000 A 
ATOM      4  C   UNL     1       1.942   4.144  20.134  0.00  0.00    +0.000 A 
ATOM      5  C   UNL     1       2.589   5.339  19.796  0.00  0.00    +0.000 A 
ATOM      6  C   UNL     1       3.856   5.254  19.161  0.00  0.00    +0.000 A 
ENDROOT
BRANCH   5   7
ATOM      7  C   UNL     1       2.009   6.665  20.047  0.00  0.00    +0.000 A 
ATOM      8  N   UNL     1       2.050   7.731  19.268  0.00  0.00    +0.000 NA
ATOM      9  C   UNL     1       1.381   8.685  19.994  0.00  0.00    +0.000 A 
ATOM     10  C   UNL     1       1.177  10.041  19.735  0.00  0.00    +0.000 A 
ATOM     11  C   UNL     1       0.529  10.834  20.709  0.00  0.00    +0.000 A 
ATOM     12  C   UNL     1       0.541  12.327  20.505  0.00  0.00    +0.000 C 
ATOM     13  C   UNL     1      -0.051  10.237  21.854  0.00  0.00    +0.000 A 
ATOM     14  C   UNL     1      -0.921  11.023  22.805  0.00  0.00    +0.000 C 
ATOM     15  C   UNL     1       0.133   8.854  22.101  0.00  0.00    +0.000 A 
ATOM     16  C   UNL     1       0.884   8.144  21.161  0.00  0.00    +0.000 A 
ATOM     17  O   UNL     1       1.262   6.832  21.194  0.00  0.00    +0.000 OA
ENDBRANCH   5   7
BRANCH   1  20
ATOM     18  C   UNL     1       6.308   5.128  17.593  0.00  0.00    +0.000 C 
ATOM     19  O   UNL     1       5.997   6.292  17.843  0.00  0.00    +0.000 OA
ATOM     20  N   UNL     1       5.609   3.997  18.021  0.00  0.00    +0.000 N 
ATOM     21  H   UNL     1       6.090   3.108  17.951  0.00  0.00    +0.000 HD
BRANCH  18  22
ATOM     22  C   UNL     1       7.570   4.833  16.772  0.00  0.00    +0.000 C 
BRANCH  22  23
ATOM     23  O   UNL     1       7.494   5.523  15.530  0.00  0.00    +0.000 OA
BRANCH  23  28
ATOM     24  C   UNL     1       5.149   2.623  11.234  0.00  0.00    +0.000 C 
ATOM     25  C   UNL     1       5.725   3.443  12.356  0.00  0.00    +0.000 A 
ATOM     26  C   UNL     1       7.013   3.979  12.269  0.00  0.00    +0.000 A 
ATOM     27  C   UNL     1       7.557   4.690  13.344  0.00  0.00    +0.000 A 
ATOM     28  C   UNL     1       6.824   4.888  14.517  0.00  0.00    +0.000 A 
ATOM     29  C   UNL     1       5.530   4.374  14.602  0.00  0.00    +0.000 A 
ATOM     30  C   UNL     1       4.986   3.652  13.527  0.00  0.00    +0.000 A 
ENDBRANCH  23  28
ENDBRANCH  22  23
ENDBRANCH  18  22
ENDBRANCH   1  20
BRANCH   4  31
ATOM     31  O   UNL     1       0.738   4.154  20.784  0.00  0.00    +0.000 OA
ATOM     32  H   UNL     1       0.188   4.868  20.420  0.00  0.00    +0.000 HD
ENDBRANCH   4  31
TORSDOF 6
ENDMDL
MODEL 3
REMARK VINA RESULT:      -8.7      1.007      1.416
REMARK  Name = 
REMARK  9 active torsions:
REMARK  status: ('A' for Active; 'I' for Inactive)
REMARK    1  A    between atoms: C_1  and  C_2
REMARK    2  A    between atoms: C_5  and  O_6
REMARK    3  A    between atoms: O_6  and  C_7
REMARK    4  A    between atoms: C_7  and  C_8
REMARK    5  A    between atoms: N_10  and  C_11
REMARK    6  A    between atoms: C_14  and  O_15
REMARK    7  A    between atoms: C_16  and  C_17
REMARK    8  A    between atoms: C_21  and  C_22
REMARK    9  A    between atoms: C_23  and  C_24
REMARK                            x       y       z     vdW  Elec       q    Type
REMARK                         _______ _______ _______ _____ _____    ______ ____
ROOT
ATOM      1  C   UNL     1       2.265   6.989  19.722  0.00  0.00    +0.000 A 
ATOM      2  C   UNL     1       2.778   7.298  18.462  0.00  0.00    +0.000 A 
ATOM      3  C   UNL     1       2.440   8.491  17.819  0.00  0.00    +0.000 A 
ATOM      4  C   UNL     1       1.593   9.406  18.443  0.00  0.00    +0.000 A 
ATOM      5  C   UNL     1       1.038   9.127  19.699  0.00  0.00    +0.000 A 
ATOM      6  C   UNL     1       1.348   7.882  20.304  0.00  0.00    +0.000 A 
ENDROOT
BRANCH   5   7
ATOM      7  C   UNL     1       0.172  10.070  20.420  0.00  0.00    +0.000 A 
ATOM      8  N   UNL     1       0.078  10.251  21.725  0.00  0.00    +0.000 NA
ATOM      9  C   UNL     1      -0.886  11.221  21.847  0.00  0.00    +0.000 A 
ATOM     10  C   UNL     1      -1.485  11.765  22.983  0.00  0.00    +0.000 A 
ATOM     11  C   UNL     1      -2.539  12.693  22.825  0.00  0.00    +0.000 A 
ATOM     12  C   UNL     1      -3.317  13.072  24.057  0.00  0.00    +0.000 C 
ATOM     13  C   UNL     1      -2.872  13.190  21.543  0.00  0.00    +0.000 A 
ATOM     14  C   UNL     1      -3.849  14.327  21.361  0.00  0.00    +0.000 C 
ATOM     15  C   UNL     1      -2.243  12.658  20.390  0.00  0.00    +0.000 A 
ATOM     16  C   UNL     1      -1.291  11.657  20.602  0.00  0.00    +0.000 A 
ATOM     17  O   UNL     1      -0.596  10.937  19.673  0.00  0.00    +0.000 OA
ENDBRANCH   5   7
BRANCH   1  20
ATOM     18  C   UNL     1       1.828   4.724  20.691  0.00  0.00    +0.000 C 
ATOM     19  O   UNL     1       0.667   4.604  20.302  0.00  0.00    +0.000 OA
ATOM     20  N   UNL     1       2.653   5.824  20.439  0.00  0.00    +0.000 N 
ATOM     21  H   UNL     1       3.645   5.699  20.607  0.00  0.00    +0.000 HD
BRANCH  18  22
ATOM     22  C   UNL     1       2.486   3.598  21.499  0.00  0.00    +0.000 C 
BRANCH  22  23
ATOM     23  O   UNL     1       2.938   2.584  20.609  0.00  0.00    +0.000 OA
BRANCH  23  28
ATOM     24  C   UNL     1       5.160   4.553  15.755  0.00  0.00    +0.000 C 
ATOM     25  C   UNL     1       4.619   3.980  17.037  0.00  0.00    +0.000 A 
ATOM     26  C   UNL     1       3.363   3.369  17.080  0.00  0.00    +0.000 A 
ATOM     27  C   UNL     1       2.849   2.892  18.291  0.00  0.00    +0.000 A 
ATOM     28  C   UNL     1       3.581   3.008  19.475  0.00  0.00    +0.000 A 
ATOM     29  C   UNL     1       4.844   3.598  19.436  0.00  0.00    +0.000 A 
ATOM     30  C   UNL     1       5.358   4.085  18.223  0.00  0.00    +0.000 A 
ENDBRANCH  23  28
ENDBRANCH  22  23
ENDBRANCH  18  22
ENDBRANCH   1  20
BRANCH   4  31
ATOM     31  O   UNL     1       1.302  10.569  17.787  0.00  0.00    +0.000 OA
ATOM     32  H   UNL     1       1.386  10.423  16.829  0.00  0.00    +0.000 HD
ENDBRANCH   4  31
TORSDOF 6
ENDMDL
MODEL 4
REMARK VINA RESULT:      -8.6      2.696      5.072
REMARK  Name = 
REMARK  9 active torsions:
REMARK  status: ('A' for Active; 'I' for Inactive)
REMARK    1  A    between atoms: C_1  and  C_2
REMARK    2  A    between atoms: C_5  and  O_6
REMARK    3  A    between atoms: O_6  and  C_7
REMARK    4  A    between atoms: C_7  and  C_8
REMARK    5  A    between atoms: N_10  and  C_11
REMARK    6  A    between atoms: C_14  and  O_15
REMARK    7  A    between atoms: C_16  and  C_17
REMARK    8  A    between atoms: C_21  and  C_22
REMARK    9  A    between atoms: C_23  and  C_24
REMARK                            x       y       z     vdW  Elec       q    Type
REMARK                         _______ _______ _______ _____ _____    ______ ____
ROOT
ATOM      1  C   UNL     1       4.451   4.081  18.815  0.00  0.00    +0.000 A 
ATOM      2  C   UNL     1       3.777   2.921  19.195  0.00  0.00    +0.000 A 
ATOM      3  C   UNL     1       2.548   2.984  19.855  0.00  0.00    +0.000 A 
ATOM      4  C   UNL     1       1.964   4.220  20.128  0.00  0.00    +0.000 A 
ATOM      5  C   UNL     1       2.614   5.412  19.783  0.00  0.00    +0.000 A 
ATOM      6  C   UNL     1       3.890   5.321  19.168  0.00  0.00    +0.000 A 
ENDROOT
BRANCH   5   7
ATOM      7  C   UNL     1       2.029   6.740  20.009  0.00  0.00    +0.000 A 
ATOM      8  N   UNL     1       1.452   7.197  21.105  0.00  0.00    +0.000 NA
ATOM      9  C   UNL     1       1.070   8.470  20.761  0.00  0.00    +0.000 A 
ATOM     10  C   UNL     1       0.332   9.418  21.471  0.00  0.00    +0.000 A 
ATOM     11  C   UNL     1      -0.012  10.633  20.837  0.00  0.00    +0.000 A 
ATOM     12  C   UNL     1      -1.005  11.522  21.540  0.00  0.00    +0.000 C 
ATOM     13  C   UNL     1       0.519  10.957  19.566  0.00  0.00    +0.000 A 
ATOM     14  C   UNL     1       0.336  12.326  18.955  0.00  0.00    +0.000 C 
ATOM     15  C   UNL     1       1.292  10.005  18.857  0.00  0.00    +0.000 A 
ATOM     16  C   UNL     1       1.501   8.775  19.486  0.00  0.00    +0.000 A 
ATOM     17  O   UNL     1       2.144   7.672  19.000  0.00  0.00    +0.000 OA
ENDBRANCH   5   7
BRANCH   1  20
ATOM     18  C   UNL     1       6.267   5.163  17.478  0.00  0.00    +0.000 C 
ATOM     19  O   UNL     1       5.850   6.319  17.547  0.00  0.00    +0.000 OA
ATOM     20  N   UNL     1       5.661   4.052  18.069  0.00  0.00    +0.000 N 
ATOM     21  H   UNL     1       6.220   3.209  18.138  0.00  0.00    +0.000 HD
BRANCH  18  22
ATOM     22  C   UNL     1       7.565   4.862  16.717  0.00  0.00    +0.000 C 
BRANCH  22  23
ATOM     23  O   UNL     1       7.530   5.515  15.453  0.00  0.00    +0.000 OA
BRANCH  23  28
ATOM     24  C   UNL     1       5.128   2.593  11.203  0.00  0.00    +0.000 C 
ATOM     25  C   UNL     1       5.719   3.420  12.313  0.00  0.00    +0.000 A 
ATOM     26  C   UNL     1       7.010   3.946  12.211  0.00  0.00    +0.000 A 
ATOM     27  C   UNL     1       7.568   4.663  13.275  0.00  0.00    +0.000 A 
ATOM     28  C   UNL     1       6.847   4.875  14.453  0.00  0.00    +0.000 A 
ATOM     29  C   UNL     1       5.551   4.370  14.554  0.00  0.00    +0.000 A 
ATOM     30  C   UNL     1       4.993   3.642  13.490  0.00  0.00    +0.000 A 
ENDBRANCH  23  28
ENDBRANCH  22  23
ENDBRANCH  18  22
ENDBRANCH   1  20
BRANCH   4  31
ATOM     31  O   UNL     1       0.751   4.236  20.760  0.00  0.00    +0.000 OA
ATOM     32  H   UNL     1       0.197   3.524  20.401  0.00  0.00    +0.000 HD
ENDBRANCH   4  31
TORSDOF 6
ENDMDL
MODEL 5
REMARK VINA RESULT:      -8.6      2.488      4.973
REMARK  Name = 
REMARK  9 active torsions:
REMARK  status: ('A' for Active; 'I' for Inactive)
REMARK    1  A    between atoms: C_1  and  C_2
REMARK    2  A    between atoms: C_5  and  O_6
REMARK    3  A    between atoms: O_6  and  C_7
REMARK    4  A    between atoms: C_7  and  C_8
REMARK    5  A    between atoms: N_10  and  C_11
REMARK    6  A    between atoms: C_14  and  O_15
REMARK    7  A    between atoms: C_16  and  C_17
REMARK    8  A    between atoms: C_21  and  C_22
REMARK    9  A    between atoms: C_23  and  C_24
REMARK                            x       y       z     vdW  Elec       q    Type
REMARK                         _______ _______ _______ _____ _____    ______ ____
ROOT
ATOM      1  C   UNL     1       4.209   4.176  18.681  0.00  0.00    +0.000 A 
ATOM      2  C   UNL     1       3.533   3.013  19.052  0.00  0.00    +0.000 A 
ATOM      3  C   UNL     1       2.333   3.073  19.762  0.00  0.00    +0.000 A 
ATOM      4  C   UNL     1       1.778   4.308  20.095  0.00  0.00    +0.000 A 
ATOM      5  C   UNL     1       2.431   5.501  19.760  0.00  0.00    +0.000 A 
ATOM      6  C   UNL     1       3.681   5.412  19.092  0.00  0.00    +0.000 A 
ENDROOT
BRANCH   5   7
ATOM      7  C   UNL     1       1.875   6.829  20.049  0.00  0.00    +0.000 A 
ATOM      8  N   UNL     1       1.935   7.915  19.300  0.00  0.00    +0.000 NA
ATOM      9  C   UNL     1       1.282   8.861  20.052  0.00  0.00    +0.000 A 
ATOM     10  C   UNL     1       1.102  10.227  19.832  0.00  0.00    +0.000 A 
ATOM     11  C   UNL     1       0.468  11.003  20.827  0.00  0.00    +0.000 A 
ATOM     12  C   UNL     1       0.506  12.501  20.665  0.00  0.00    +0.000 C 
ATOM     13  C   UNL     1      -0.124  10.385  21.954  0.00  0.00    +0.000 A 
ATOM     14  C   UNL     1      -0.980  11.159  22.928  0.00  0.00    +0.000 C 
ATOM     15  C   UNL     1       0.036   8.992  22.163  0.00  0.00    +0.000 A 
ATOM     16  C   UNL     1       0.775   8.296  21.203  0.00  0.00    +0.000 A 
ATOM     17  O   UNL     1       1.130   6.977  21.200  0.00  0.00    +0.000 OA
ENDBRANCH   5   7
BRANCH   1  20
ATOM     18  C   UNL     1       6.618   4.700  18.260  0.00  0.00    +0.000 C 
ATOM     19  O   UNL     1       6.853   5.250  19.336  0.00  0.00    +0.000 OA
ATOM     20  N   UNL     1       5.388   4.153  17.887  0.00  0.00    +0.000 N 
ATOM     21  H   UNL     1       5.389   3.530  17.087  0.00  0.00    +0.000 HD
BRANCH  18  22
ATOM     22  C   UNL     1       7.733   4.553  17.217  0.00  0.00    +0.000 C 
BRANCH  22  23
ATOM     23  O   UNL     1       7.464   5.414  16.117  0.00  0.00    +0.000 OA
BRANCH  23  28
ATOM     24  C   UNL     1       5.194   3.051  11.466  0.00  0.00    +0.000 C 
ATOM     25  C   UNL     1       5.847   3.630  12.692  0.00  0.00    +0.000 A 
ATOM     26  C   UNL     1       5.288   3.450  13.960  0.00  0.00    +0.000 A 
ATOM     27  C   UNL     1       5.875   4.043  15.083  0.00  0.00    +0.000 A 
ATOM     28  C   UNL     1       7.033   4.816  14.962  0.00  0.00    +0.000 A 
ATOM     29  C   UNL     1       7.608   4.982  13.703  0.00  0.00    +0.000 A 
ATOM     30  C   UNL     1       7.015   4.395  12.573  0.00  0.00    +0.000 A 
ENDBRANCH  23  28
ENDBRANCH  22  23
ENDBRANCH  18  22
ENDBRANCH   1  20
BRANCH   4  31
ATOM     31  O   UNL     1       0.591   4.322  20.775  0.00  0.00    +0.000 OA
ATOM     32  H   UNL     1       0.251   5.232  20.801  0.00  0.00    +0.000 HD
ENDBRANCH   4  31
TORSDOF 6
ENDMDL
MODEL 6
REMARK VINA RESULT:      -8.4      2.670      4.719
REMARK  Name = 
REMARK  9 active torsions:
REMARK  status: ('A' for Active; 'I' for Inactive)
REMARK    1  A    between atoms: C_1  and  C_2
REMARK    2  A    between atoms: C_5  and  O_6
REMARK    3  A    between atoms: O_6  and  C_7
REMARK    4  A    between atoms: C_7  and  C_8
REMARK    5  A    between atoms: N_10  and  C_11
REMARK    6  A    between atoms: C_14  and  O_15
REMARK    7  A    between atoms: C_16  and  C_17
REMARK    8  A    between atoms: C_21  and  C_22
REMARK    9  A    between atoms: C_23  and  C_24
REMARK                            x       y       z     vdW  Elec       q    Type
REMARK                         _______ _______ _______ _____ _____    ______ ____
ROOT
ATOM      1  C   UNL     1       4.084   5.176  18.169  0.00  0.00    +0.000 A 
ATOM      2  C   UNL     1       3.571   3.899  18.395  0.00  0.00    +0.000 A 
ATOM      3  C   UNL     1       2.469   3.701  19.228  0.00  0.00    +0.000 A 
ATOM      4  C   UNL     1       1.847   4.792  19.836  0.00  0.00    +0.000 A 
ATOM      5  C   UNL     1       2.340   6.090  19.654  0.00  0.00    +0.000 A 
ATOM      6  C   UNL     1       3.499   6.257  18.851  0.00  0.00    +0.000 A 
ENDROOT
BRANCH   5   7
ATOM      7  C   UNL     1       1.704   7.280  20.236  0.00  0.00    +0.000 A 
ATOM      8  N   UNL     1       1.205   7.421  21.450  0.00  0.00    +0.000 NA
ATOM      9  C   UNL     1       0.721   8.707  21.451  0.00  0.00    +0.000 A 
ATOM     10  C   UNL     1      -0.001   9.402  22.421  0.00  0.00    +0.000 A 
ATOM     11  C   UNL     1      -0.470  10.701  22.126  0.00  0.00    +0.000 A 
ATOM     12  C   UNL     1      -1.443  11.322  23.094  0.00  0.00    +0.000 C 
ATOM     13  C   UNL     1      -0.077  11.354  20.933  0.00  0.00    +0.000 A 
ATOM     14  C   UNL     1      -0.394  12.810  20.684  0.00  0.00    +0.000 C 
ATOM     15  C   UNL     1       0.680  10.657  19.960  0.00  0.00    +0.000 A 
ATOM     16  C   UNL     1       1.016   9.333  20.258  0.00  0.00    +0.000 A 
ATOM     17  O   UNL     1       1.673   8.428  19.474  0.00  0.00    +0.000 OA
ENDBRANCH   5   7
BRANCH   1  20
ATOM     18  C   UNL     1       6.480   5.038  17.463  0.00  0.00    +0.000 C 
ATOM     19  O   UNL     1       6.898   4.415  18.439  0.00  0.00    +0.000 OA
ATOM     20  N   UNL     1       5.151   5.421  17.261  0.00  0.00    +0.000 N 
ATOM     21  H   UNL     1       4.897   5.715  16.325  0.00  0.00    +0.000 HD
BRANCH  18  22
ATOM     22  C   UNL     1       7.442   5.432  16.335  0.00  0.00    +0.000 C 
BRANCH  22  23
ATOM     23  O   UNL     1       6.694   5.928  15.232  0.00  0.00    +0.000 OA
BRANCH  23  28
ATOM     24  C   UNL     1       6.075   2.081  11.087  0.00  0.00    +0.000 C 
ATOM     25  C   UNL     1       6.188   3.137  12.152  0.00  0.00    +0.000 A 
ATOM     26  C   UNL     1       7.313   3.963  12.231  0.00  0.00    +0.000 A 
ATOM     27  C   UNL     1       7.430   4.901  13.263  0.00  0.00    +0.000 A 
ATOM     28  C   UNL     1       6.426   5.038  14.225  0.00  0.00    +0.000 A 
ATOM     29  C   UNL     1       5.292   4.232  14.140  0.00  0.00    +0.000 A 
ATOM     30  C   UNL     1       5.177   3.283  13.110  0.00  0.00    +0.000 A 
ENDBRANCH  23  28
ENDBRANCH  22  23
ENDBRANCH  18  22
ENDBRANCH   1  20
BRANCH   4  31
ATOM     31  O   UNL     1       0.760   4.556  20.631  0.00  0.00    +0.000 OA
ATOM     32  H   UNL     1       0.127   4.001  20.146  0.00  0.00    +0.000 HD
ENDBRANCH   4  31
TORSDOF 6
ENDMDL
MODEL 7
REMARK VINA RESULT:      -8.4      2.642      4.988
REMARK  Name = 
REMARK  9 active torsions:
REMARK  status: ('A' for Active; 'I' for Inactive)
REMARK    1  A    between atoms: C_1  and  C_2
REMARK    2  A    between atoms: C_5  and  O_6
REMARK    3  A    between atoms: O_6  and  C_7
REMARK    4  A    between atoms: C_7  and  C_8
REMARK    5  A    between atoms: N_10  and  C_11
REMARK    6  A    between atoms: C_14  and  O_15
REMARK    7  A    between atoms: C_16  and  C_17
REMARK    8  A    between atoms: C_21  and  C_22
REMARK    9  A    between atoms: C_23  and  C_24
REMARK                            x       y       z     vdW  Elec       q    Type
REMARK                         _______ _______ _______ _____ _____    ______ ____
ROOT
ATOM      1  C   UNL     1       4.307   4.406  18.428  0.00  0.00    +0.000 A 
ATOM      2  C   UNL     1       3.696   3.249  18.912  0.00  0.00    +0.000 A 
ATOM      3  C   UNL     1       2.547   3.317  19.702  0.00  0.00    +0.000 A 
ATOM      4  C   UNL     1       1.978   4.553  20.003  0.00  0.00    +0.000 A 
ATOM      5  C   UNL     1       2.568   5.742  19.556  0.00  0.00    +0.000 A 
ATOM      6  C   UNL     1       3.770   5.649  18.806  0.00  0.00    +0.000 A 
ENDROOT
BRANCH   5   7
ATOM      7  C   UNL     1       1.991   7.070  19.808  0.00  0.00    +0.000 A 
ATOM      8  N   UNL     1       1.483   7.533  20.935  0.00  0.00    +0.000 NA
ATOM      9  C   UNL     1       1.073   8.802  20.605  0.00  0.00    +0.000 A 
ATOM     10  C   UNL     1       0.377   9.752  21.354  0.00  0.00    +0.000 A 
ATOM     11  C   UNL     1      -0.013  10.960  20.734  0.00  0.00    +0.000 A 
ATOM     12  C   UNL     1      -0.964  11.850  21.491  0.00  0.00    +0.000 C 
ATOM     13  C   UNL     1       0.434  11.276  19.429  0.00  0.00    +0.000 A 
ATOM     14  C   UNL     1       0.205  12.639  18.819  0.00  0.00    +0.000 C 
ATOM     15  C   UNL     1       1.165  10.321  18.680  0.00  0.00    +0.000 A 
ATOM     16  C   UNL     1       1.420   9.098  19.304  0.00  0.00    +0.000 A 
ATOM     17  O   UNL     1       2.037   7.994  18.786  0.00  0.00    +0.000 OA
ENDBRANCH   5   7
BRANCH   1  20
ATOM     18  C   UNL     1       6.724   4.764  17.893  0.00  0.00    +0.000 C 
ATOM     19  O   UNL     1       7.075   5.170  19.001  0.00  0.00    +0.000 OA
ATOM     20  N   UNL     1       5.428   4.369  17.554  0.00  0.00    +0.000 N 
ATOM     21  H   UNL     1       5.321   3.840  16.696  0.00  0.00    +0.000 HD
BRANCH  18  22
ATOM     22  C   UNL     1       7.754   4.637  16.763  0.00  0.00    +0.000 C 
BRANCH  22  23
ATOM     23  O   UNL     1       7.349   5.447  15.666  0.00  0.00    +0.000 OA
BRANCH  23  28
ATOM     24  C   UNL     1       5.005   2.925  11.136  0.00  0.00    +0.000 C 
ATOM     25  C   UNL     1       5.670   3.537  12.339  0.00  0.00    +0.000 A 
ATOM     26  C   UNL     1       5.008   3.611  13.568  0.00  0.00    +0.000 A 
ATOM     27  C   UNL     1       5.616   4.236  14.663  0.00  0.00    +0.000 A 
ATOM     28  C   UNL     1       6.895   4.787  14.554  0.00  0.00    +0.000 A 
ATOM     29  C   UNL     1       7.569   4.699  13.336  0.00  0.00    +0.000 A 
ATOM     30  C   UNL     1       6.957   4.080  12.234  0.00  0.00    +0.000 A 
ENDBRANCH  23  28
ENDBRANCH  22  23
ENDBRANCH  18  22
ENDBRANCH   1  20
BRANCH   4  31
ATOM     31  O   UNL     1       0.842   4.574  20.765  0.00  0.00    +0.000 OA
ATOM     32  H   UNL     1       0.108   4.920  20.231  0.00  0.00    +0.000 HD
ENDBRANCH   4  31
TORSDOF 6
ENDMDL
MODEL 8
REMARK VINA RESULT:      -8.4      1.106      1.626
REMARK  Name = 
REMARK  9 active torsions:
REMARK  status: ('A' for Active; 'I' for Inactive)
REMARK    1  A    between atoms: C_1  and  C_2
REMARK    2  A    between atoms: C_5  and  O_6
REMARK    3  A    between atoms: O_6  and  C_7
REMARK    4  A    between atoms: C_7  and  C_8
REMARK    5  A    between atoms: N_10  and  C_11
REMARK    6  A    between atoms: C_14  and  O_15
REMARK    7  A    between atoms: C_16  and  C_17
REMARK    8  A    between atoms: C_21  and  C_22
REMARK    9  A    between atoms: C_23  and  C_24
REMARK                            x       y       z     vdW  Elec       q    Type
REMARK                         _______ _______ _______ _____ _____    ______ ____
ROOT
ATOM      1  C   UNL     1       2.371   6.867  19.665  0.00  0.00    +0.000 A 
ATOM      2  C   UNL     1       3.016   7.061  18.443  0.00  0.00    +0.000 A 
ATOM      3  C   UNL     1       2.793   8.212  17.684  0.00  0.00    +0.000 A 
ATOM      4  C   UNL     1       1.929   9.201  18.152  0.00  0.00    +0.000 A 
ATOM      5  C   UNL     1       1.244   9.040  19.364  0.00  0.00    +0.000 A 
ATOM      6  C   UNL     1       1.442   7.834  20.086  0.00  0.00    +0.000 A 
ENDROOT
BRANCH   5   7
ATOM      7  C   UNL     1       0.354  10.065  19.925  0.00  0.00    +0.000 A 
ATOM      8  N   UNL     1      -0.473  10.865  19.278  0.00  0.00    +0.000 NA
ATOM      9  C   UNL     1      -1.030  11.628  20.275  0.00  0.00    +0.000 A 
ATOM     10  C   UNL     1      -1.907  12.710  20.204  0.00  0.00    +0.000 A 
ATOM     11  C   UNL     1      -2.253  13.390  21.393  0.00  0.00    +0.000 A 
ATOM     12  C   UNL     1      -3.002  14.690  21.254  0.00  0.00    +0.000 C 
ATOM     13  C   UNL     1      -1.852  12.885  22.653  0.00  0.00    +0.000 A 
ATOM     14  C   UNL     1      -2.372  13.470  23.945  0.00  0.00    +0.000 C 
ATOM     15  C   UNL     1      -0.983  11.768  22.725  0.00  0.00    +0.000 A 
ATOM     16  C   UNL     1      -0.580  11.209  21.510  0.00  0.00    +0.000 A 
ATOM     17  O   UNL     1       0.296  10.183  21.298  0.00  0.00    +0.000 OA
ENDBRANCH   5   7
BRANCH   1  20
ATOM     18  C   UNL     1       1.751   4.695  20.739  0.00  0.00    +0.000 C 
ATOM     19  O   UNL     1       0.633   4.581  20.238  0.00  0.00    +0.000 OA
ATOM     20  N   UNL     1       2.638   5.748  20.500  0.00  0.00    +0.000 N 
ATOM     21  H   UNL     1       3.601   5.607  20.782  0.00  0.00    +0.000 HD
BRANCH  18  22
ATOM     22  C   UNL     1       2.277   3.613  21.691  0.00  0.00    +0.000 C 
BRANCH  22  23
ATOM     23  O   UNL     1       2.829   2.545  20.928  0.00  0.00    +0.000 OA
BRANCH  23  28
ATOM     24  C   UNL     1       5.047   4.152  15.942  0.00  0.00    +0.000 C 
ATOM     25  C   UNL     1       4.510   3.677  17.265  0.00  0.00    +0.000 A 
ATOM     26  C   UNL     1       3.280   3.017  17.348  0.00  0.00    +0.000 A 
ATOM     27  C   UNL     1       2.767   2.633  18.591  0.00  0.00    +0.000 A 
ATOM     28  C   UNL     1       3.472   2.890  19.769  0.00  0.00    +0.000 A 
ATOM     29  C   UNL     1       4.709   3.530  19.692  0.00  0.00    +0.000 A 
ATOM     30  C   UNL     1       5.222   3.925  18.445  0.00  0.00    +0.000 A 
ENDBRANCH  23  28
ENDBRANCH  22  23
ENDBRANCH  18  22
ENDBRANCH   1  20
BRANCH   4  31
ATOM     31  O   UNL     1       1.753  10.320  17.387  0.00  0.00    +0.000 OA
ATOM     32  H   UNL     1       2.260  10.225  16.564  0.00  0.00    +0.000 HD
ENDBRANCH   4  31
TORSDOF 6
ENDMDL
MODEL 9
REMARK VINA RESULT:      -8.3      2.624      9.810
REMARK  Name = 
REMARK  9 active torsions:
REMARK  status: ('A' for Active; 'I' for Inactive)
REMARK    1  A    between atoms: C_1  and  C_2
REMARK    2  A    between atoms: C_5  and  O_6
REMARK    3  A    between atoms: O_6  and  C_7
REMARK    4  A    between atoms: C_7  and  C_8
REMARK    5  A    between atoms: N_10  and  C_11
REMARK    6  A    between atoms: C_14  and  O_15
REMARK    7  A    between atoms: C_16  and  C_17
REMARK    8  A    between atoms: C_21  and  C_22
REMARK    9  A    between atoms: C_23  and  C_24
REMARK                            x       y       z     vdW  Elec       q    Type
REMARK                         _______ _______ _______ _____ _____    ______ ____
ROOT
ATOM      1  C   UNL     1       2.188   6.832  20.178  0.00  0.00    +0.000 A 
ATOM      2  C   UNL     1       1.740   5.723  20.895  0.00  0.00    +0.000 A 
ATOM      3  C   UNL     1       2.097   4.427  20.518  0.00  0.00    +0.000 A 
ATOM      4  C   UNL     1       2.932   4.224  19.420  0.00  0.00    +0.000 A 
ATOM      5  C   UNL     1       3.390   5.307  18.658  0.00  0.00    +0.000 A 
ATOM      6  C   UNL     1       2.963   6.609  19.026  0.00  0.00    +0.000 A 
ENDROOT
BRANCH   5   7
ATOM      7  C   UNL     1       4.303   5.156  17.516  0.00  0.00    +0.000 A 
ATOM      8  N   UNL     1       5.491   5.707  17.349  0.00  0.00    +0.000 NA
ATOM      9  C   UNL     1       5.884   5.252  16.114  0.00  0.00    +0.000 A 
ATOM     10  C   UNL     1       7.010   5.564  15.351  0.00  0.00    +0.000 A 
ATOM     11  C   UNL     1       7.127   5.025  14.050  0.00  0.00    +0.000 A 
ATOM     12  C   UNL     1       8.223   5.569  13.171  0.00  0.00    +0.000 C 
ATOM     13  C   UNL     1       6.206   4.054  13.589  0.00  0.00    +0.000 A 
ATOM     14  C   UNL     1       6.418   3.312  12.291  0.00  0.00    +0.000 C 
ATOM     15  C   UNL     1       5.077   3.717  14.377  0.00  0.00    +0.000 A 
ATOM     16  C   UNL     1       4.953   4.372  15.605  0.00  0.00    +0.000 A 
ATOM     17  O   UNL     1       3.938   4.282  16.514  0.00  0.00    +0.000 OA
ENDBRANCH   5   7
BRANCH   1  20
ATOM     18  C   UNL     1       0.710   8.602  21.146  0.00  0.00    +0.000 C 
ATOM     19  O   UNL     1      -0.260   7.884  21.391  0.00  0.00    +0.000 OA
ATOM     20  N   UNL     1       1.912   8.167  20.584  0.00  0.00    +0.000 N 
ATOM     21  H   UNL     1       2.703   8.797  20.651  0.00  0.00    +0.000 HD
BRANCH  18  22
ATOM     22  C   UNL     1       0.661  10.097  21.487  0.00  0.00    +0.000 C 
BRANCH  22  23
ATOM     23  O   UNL     1       0.803  10.855  20.291  0.00  0.00    +0.000 OA
BRANCH  23  28
ATOM     24  C   UNL     1      -3.902  11.067  17.101  0.00  0.00    +0.000 C 
ATOM     25  C   UNL     1      -2.642  11.077  17.922  0.00  0.00    +0.000 A 
ATOM     26  C   UNL     1      -1.552  10.271  17.578  0.00  0.00    +0.000 A 
ATOM     27  C   UNL     1      -0.409  10.247  18.385  0.00  0.00    +0.000 A 
ATOM     28  C   UNL     1      -0.329  11.030  19.539  0.00  0.00    +0.000 A 
ATOM     29  C   UNL     1      -1.404  11.851  19.877  0.00  0.00    +0.000 A 
ATOM     30  C   UNL     1      -2.557  11.870  19.073  0.00  0.00    +0.000 A 
ENDBRANCH  23  28
ENDBRANCH  22  23
ENDBRANCH  18  22
ENDBRANCH   1  20
BRANCH   4  31
ATOM     31  O   UNL     1       3.272   2.940  19.095  0.00  0.00    +0.000 OA
ATOM     32  H   UNL     1       3.809   2.563  19.813  0.00  0.00    +0.000 HD
ENDBRANCH   4  31
TORSDOF 6
ENDMDL
