MODEL 1
REMARK VINA RESULT:      -8.7      0.000      0.000
REMARK  Name = 
REMARK  4 active torsions:
REMARK  status: ('A' for Active; 'I' for Inactive)
REMARK    1  A    between atoms: C_1  and  C_2
REMARK    2  A    between atoms: C_5  and  N_6
REMARK    3  A    between atoms: C_7  and  C_9
REMARK    4  A    between atoms: C_18  and  C_19
REMARK                            x       y       z     vdW  Elec       q    Type
REMARK                         _______ _______ _______ _____ _____    ______ ____
ROOT
ATOM      1  C   UNL     1       0.637   9.834  19.319  0.00  0.00    +0.000 A 
ATOM      2  S   UNL     1      -0.604  10.731  18.550  0.00  0.00    +0.000 S 
ATOM      3  C   UNL     1      -1.185  11.336  20.018  0.00  0.00    +0.000 A 
ATOM      4  N   UNL     1      -2.191  12.231  20.022  0.00  0.00    +0.000 NA
ATOM      5  C   UNL     1      -2.554  12.657  21.190  0.00  0.00    +0.000 A 
ATOM      6  N   UNL     1      -2.004  12.230  22.391  0.00  0.00    +0.000 N 
ATOM      7  C   UNL     1      -0.977  11.266  22.422  0.00  0.00    +0.000 A 
ATOM      8  O   UNL     1      -0.494  10.832  23.466  0.00  0.00    +0.000 OA
ATOM      9  C   UNL     1      -0.524  10.821  21.107  0.00  0.00    +0.000 A 
ATOM     10  C   UNL     1       0.546   9.923  20.713  0.00  0.00    +0.000 A 
ATOM     11  C   UNL     1       1.470   9.209  21.658  0.00  0.00    +0.000 C 
ATOM     12  C   UNL     1      -2.497  12.743  23.669  0.00  0.00    +0.000 C 
ATOM     13  C   UNL     1      -3.914  12.257  23.985  0.00  0.00    +0.000 C 
ATOM     14  C   UNL     1      -5.016  13.059  23.292  0.00  0.00    +0.000 C 
ATOM     15  C   UNL     1      -4.956  13.034  21.768  0.00  0.00    +0.000 C 
ATOM     16  C   UNL     1      -3.685  13.664  21.218  0.00  0.00    +0.000 C 
ENDROOT
BRANCH   1  18
ATOM     17  N   UNL     1       2.037   7.889  19.033  0.00  0.00    +0.000 N 
ATOM     18  C   UNL     1       1.627   9.109  18.505  0.00  0.00    +0.000 C 
ATOM     19  O   UNL     1       2.028   9.558  17.436  0.00  0.00    +0.000 OA
ATOM     20  H   UNL     1       1.655   7.652  19.944  0.00  0.00    +0.000 HD
BRANCH  17  25
ATOM     21  C   UNL     1       5.441   3.844  16.770  0.00  0.00    +0.000 C 
ATOM     22  C   UNL     1       4.554   4.900  17.360  0.00  0.00    +0.000 A 
ATOM     23  C   UNL     1       4.585   6.206  16.867  0.00  0.00    +0.000 A 
ATOM     24  C   UNL     1       3.764   7.200  17.414  0.00  0.00    +0.000 A 
ATOM     25  C   UNL     1       2.893   6.916  18.465  0.00  0.00    +0.000 A 
ATOM     26  C   UNL     1       2.861   5.596  18.958  0.00  0.00    +0.000 A 
ATOM     27 BR   UNL     1       1.701   5.095  20.381  0.00  0.00    +0.000 Br
ATOM     28  C   UNL     1       3.684   4.599  18.413  0.00  0.00    +0.000 A 
ENDBRANCH  17  25
ENDBRANCH   1  18
TORSDOF 2
ENDMDL
MODEL 2
REMARK VINA RESULT:      -8.5      2.704      9.344
REMARK  Name = 
REMARK  4 active torsions:
REMARK  status: ('A' for Active; 'I' for Inactive)
REMARK    1  A    between atoms: C_1  and  C_2
REMARK    2  A    between atoms: C_5  and  N_6
REMARK    3  A    between atoms: C_7  and  C_9
REMARK    4  A    between atoms: C_18  and  C_19
REMARK                            x       y       z     vdW  Elec       q    Type
REMARK                         _______ _______ _______ _____ _____    ______ ____
ROOT
ATOM      1  C   UNL     1       1.289   9.006  19.402  0.00  0.00    +0.000 A 
ATOM      2  S   UNL     1       2.130   9.351  17.949  0.00  0.00    +0.000 S 
ATOM      3  C   UNL     1       2.957   7.877  17.985  0.00  0.00    +0.000 A 
ATOM      4  N   UNL     1       3.770   7.541  16.965  0.00  0.00    +0.000 NA
ATOM      5  C   UNL     1       4.343   6.383  17.068  0.00  0.00    +0.000 A 
ATOM      6  N   UNL     1       4.194   5.522  18.146  0.00  0.00    +0.000 N 
ATOM      7  C   UNL     1       3.381   5.862  19.245  0.00  0.00    +0.000 A 
ATOM      8  O   UNL     1       3.258   5.146  20.237  0.00  0.00    +0.000 OA
ATOM      9  C   UNL     1       2.688   7.141  19.113  0.00  0.00    +0.000 A 
ATOM     10  C   UNL     1       1.716   7.798  19.968  0.00  0.00    +0.000 A 
ATOM     11  C   UNL     1       1.193   7.252  21.265  0.00  0.00    +0.000 C 
ATOM     12  C   UNL     1       4.905   4.245  18.192  0.00  0.00    +0.000 C 
ATOM     13  C   UNL     1       6.415   4.423  18.365  0.00  0.00    +0.000 C 
ATOM     14  C   UNL     1       7.158   4.735  17.065  0.00  0.00    +0.000 C 
ATOM     15  C   UNL     1       6.717   6.022  16.377  0.00  0.00    +0.000 C 
ATOM     16  C   UNL     1       5.263   5.986  15.932  0.00  0.00    +0.000 C 
ENDROOT
BRANCH   1  18
ATOM     17  N   UNL     1       0.559  10.565  21.093  0.00  0.00    +0.000 N 
ATOM     18  C   UNL     1       0.258   9.937  19.889  0.00  0.00    +0.000 C 
ATOM     19  O   UNL     1      -0.771  10.142  19.253  0.00  0.00    +0.000 OA
ATOM     20  H   UNL     1       1.428  10.279  21.535  0.00  0.00    +0.000 HD
BRANCH  17  25
ATOM     21  C   UNL     1      -2.333  14.739  23.792  0.00  0.00    +0.000 C 
ATOM     22  C   UNL     1      -1.579  13.650  23.089  0.00  0.00    +0.000 A 
ATOM     23  C   UNL     1      -1.944  12.313  23.259  0.00  0.00    +0.000 A 
ATOM     24  C   UNL     1      -1.244  11.289  22.611  0.00  0.00    +0.000 A 
ATOM     25  C   UNL     1      -0.163  11.572  21.777  0.00  0.00    +0.000 A 
ATOM     26  C   UNL     1       0.201  12.922  21.604  0.00  0.00    +0.000 A 
ATOM     27 BR   UNL     1       1.652  13.423  20.479  0.00  0.00    +0.000 Br
ATOM     28  C   UNL     1      -0.498  13.950  22.254  0.00  0.00    +0.000 A 
ENDBRANCH  17  25
ENDBRANCH   1  18
TORSDOF 2
ENDMDL
MODEL 3
REMARK VINA RESULT:      -8.4      2.590      9.243
REMARK  Name = 
REMARK  4 active torsions:
REMARK  status: ('A' for Active; 'I' for Inactive)
REMARK    1  A    between atoms: C_1  and  C_2
REMARK    2  A    between atoms: C_5  and  N_6
REMARK    3  A    between atoms: C_7  and  C_9
REMARK    4  A    between atoms: C_18  and  C_19
REMARK                            x       y       z     vdW  Elec       q    Type
REMARK                         _______ _______ _______ _____ _____    ______ ____
ROOT
ATOM      1  C   UNL     1       1.308   9.147  19.281  0.00  0.00    +0.000 A 
ATOM      2  S   UNL     1       2.165   9.416  17.821  0.00  0.00    +0.000 S 
ATOM      3  C   UNL     1       2.958   7.926  17.920  0.00  0.00    +0.000 A 
ATOM      4  N   UNL     1       3.769   7.532  16.919  0.00  0.00    +0.000 NA
ATOM      5  C   UNL     1       4.315   6.367  17.069  0.00  0.00    +0.000 A 
ATOM      6  N   UNL     1       4.141   5.553  18.180  0.00  0.00    +0.000 N 
ATOM      7  C   UNL     1       3.330   5.953  19.260  0.00  0.00    +0.000 A 
ATOM      8  O   UNL     1       3.185   5.279  20.278  0.00  0.00    +0.000 OA
ATOM      9  C   UNL     1       2.666   7.241  19.074  0.00  0.00    +0.000 A 
ATOM     10  C   UNL     1       1.705   7.953  19.896  0.00  0.00    +0.000 A 
ATOM     11  C   UNL     1       1.163   7.470  21.210  0.00  0.00    +0.000 C 
ATOM     12  C   UNL     1       4.823   4.262  18.280  0.00  0.00    +0.000 C 
ATOM     13  C   UNL     1       6.335   4.414  18.456  0.00  0.00    +0.000 C 
ATOM     14  C   UNL     1       7.092   4.658  17.149  0.00  0.00    +0.000 C 
ATOM     15  C   UNL     1       6.684   5.927  16.408  0.00  0.00    +0.000 C 
ATOM     16  C   UNL     1       5.232   5.905  15.956  0.00  0.00    +0.000 C 
ENDROOT
BRANCH   1  18
ATOM     17  N   UNL     1       0.755  11.066  20.635  0.00  0.00    +0.000 N 
ATOM     18  C   UNL     1       0.296  10.120  19.725  0.00  0.00    +0.000 C 
ATOM     19  O   UNL     1      -0.852  10.088  19.294  0.00  0.00    +0.000 OA
ATOM     20  H   UNL     1       1.718  10.957  20.938  0.00  0.00    +0.000 HD
BRANCH  17  25
ATOM     21  C   UNL     1      -2.023  15.536  22.954  0.00  0.00    +0.000 C 
ATOM     22  C   UNL     1      -1.299  14.371  22.348  0.00  0.00    +0.000 A 
ATOM     23  C   UNL     1      -0.520  14.540  21.201  0.00  0.00    +0.000 A 
ATOM     24  C   UNL     1       0.157  13.458  20.626  0.00  0.00    +0.000 A 
ATOM     25  C   UNL     1       0.073  12.181  21.179  0.00  0.00    +0.000 A 
ATOM     26  C   UNL     1      -0.711  12.013  22.338  0.00  0.00    +0.000 A 
ATOM     27 BR   UNL     1      -0.884  10.317  23.183  0.00  0.00    +0.000 Br
ATOM     28  C   UNL     1      -1.391  13.096  22.915  0.00  0.00    +0.000 A 
ENDBRANCH  17  25
ENDBRANCH   1  18
TORSDOF 2
ENDMDL
MODEL 4
REMARK VINA RESULT:      -8.3      2.564      9.208
REMARK  Name = 
REMARK  4 active torsions:
REMARK  status: ('A' for Active; 'I' for Inactive)
REMARK    1  A    between atoms: C_1  and  C_2
REMARK    2  A    between atoms: C_5  and  N_6
REMARK    3  A    between atoms: C_7  and  C_9
REMARK    4  A    between atoms: C_18  and  C_19
REMARK                            x       y       z     vdW  Elec       q    Type
REMARK                         _______ _______ _______ _____ _____    ______ ____
ROOT
ATOM      1  C   UNL     1       1.123   9.240  20.202  0.00  0.00    +0.000 A 
ATOM      2  S   UNL     1       0.867   7.953  21.304  0.00  0.00    +0.000 S 
ATOM      3  C   UNL     1       1.748   6.863  20.358  0.00  0.00    +0.000 A 
ATOM      4  N   UNL     1       1.963   5.611  20.805  0.00  0.00    +0.000 NA
ATOM      5  C   UNL     1       2.667   4.854  20.025  0.00  0.00    +0.000 A 
ATOM      6  N   UNL     1       3.163   5.242  18.788  0.00  0.00    +0.000 N 
ATOM      7  C   UNL     1       2.923   6.531  18.276  0.00  0.00    +0.000 A 
ATOM      8  O   UNL     1       3.309   6.897  17.168  0.00  0.00    +0.000 OA
ATOM      9  C   UNL     1       2.176   7.410  19.174  0.00  0.00    +0.000 A 
ATOM     10  C   UNL     1       1.805   8.808  19.058  0.00  0.00    +0.000 A 
ATOM     11  C   UNL     1       2.136   9.700  17.896  0.00  0.00    +0.000 C 
ATOM     12  C   UNL     1       3.925   4.309  17.958  0.00  0.00    +0.000 C 
ATOM     13  C   UNL     1       3.058   3.173  17.410  0.00  0.00    +0.000 C 
ATOM     14  C   UNL     1       2.831   2.031  18.401  0.00  0.00    +0.000 C 
ATOM     15  C   UNL     1       2.122   2.439  19.688  0.00  0.00    +0.000 C 
ATOM     16  C   UNL     1       2.920   3.440  20.508  0.00  0.00    +0.000 C 
ENDROOT
BRANCH   1  18
ATOM     17  N   UNL     1      -0.640  10.648  21.057  0.00  0.00    +0.000 N 
ATOM     18  C   UNL     1       0.647  10.593  20.535  0.00  0.00    +0.000 C 
ATOM     19  O   UNL     1       1.359  11.579  20.373  0.00  0.00    +0.000 OA
ATOM     20  H   UNL     1      -1.136   9.762  21.105  0.00  0.00    +0.000 HD
BRANCH  17  25
ATOM     21  C   UNL     1      -3.608  15.171  23.009  0.00  0.00    +0.000 C 
ATOM     22  C   UNL     1      -2.833  13.992  22.501  0.00  0.00    +0.000 A 
ATOM     23  C   UNL     1      -1.942  13.317  23.337  0.00  0.00    +0.000 A 
ATOM     24  C   UNL     1      -1.211  12.218  22.871  0.00  0.00    +0.000 A 
ATOM     25  C   UNL     1      -1.350  11.764  21.560  0.00  0.00    +0.000 A 
ATOM     26  C   UNL     1      -2.253  12.445  20.719  0.00  0.00    +0.000 A 
ATOM     27 BR   UNL     1      -2.530  11.904  18.915  0.00  0.00    +0.000 Br
ATOM     28  C   UNL     1      -2.985  13.548  21.183  0.00  0.00    +0.000 A 
ENDBRANCH  17  25
ENDBRANCH   1  18
TORSDOF 2
ENDMDL
MODEL 5
REMARK VINA RESULT:      -8.2      2.675      9.201
REMARK  Name = 
REMARK  4 active torsions:
REMARK  status: ('A' for Active; 'I' for Inactive)
REMARK    1  A    between atoms: C_1  and  C_2
REMARK    2  A    between atoms: C_5  and  N_6
REMARK    3  A    between atoms: C_7  and  C_9
REMARK    4  A    between atoms: C_18  and  C_19
REMARK                            x       y       z     vdW  Elec       q    Type
REMARK                         _______ _______ _______ _____ _____    ______ ____
ROOT
ATOM      1  C   UNL     1       0.383  10.644  21.099  0.00  0.00    +0.000 A 
ATOM      2  S   UNL     1       0.222   9.282  22.127  0.00  0.00    +0.000 S 
ATOM      3  C   UNL     1       0.985   8.257  21.019  0.00  0.00    +0.000 A 
ATOM      4  N   UNL     1       1.226   6.974  21.351  0.00  0.00    +0.000 NA
ATOM      5  C   UNL     1       1.835   6.270  20.450  0.00  0.00    +0.000 A 
ATOM      6  N   UNL     1       2.207   6.743  19.199  0.00  0.00    +0.000 N 
ATOM      7  C   UNL     1       1.936   8.068  18.808  0.00  0.00    +0.000 A 
ATOM      8  O   UNL     1       2.211   8.511  17.695  0.00  0.00    +0.000 OA
ATOM      9  C   UNL     1       1.298   8.885  19.838  0.00  0.00    +0.000 A 
ATOM     10  C   UNL     1       0.937  10.291  19.862  0.00  0.00    +0.000 A 
ATOM     11  C   UNL     1       1.161  11.262  18.739  0.00  0.00    +0.000 C 
ATOM     12  C   UNL     1       2.866   5.867  18.230  0.00  0.00    +0.000 C 
ATOM     13  C   UNL     1       1.930   4.781  17.694  0.00  0.00    +0.000 C 
ATOM     14  C   UNL     1       1.788   3.571  18.619  0.00  0.00    +0.000 C 
ATOM     15  C   UNL     1       1.221   3.890  19.998  0.00  0.00    +0.000 C 
ATOM     16  C   UNL     1       2.114   4.823  20.801  0.00  0.00    +0.000 C 
ENDROOT
BRANCH   1  18
ATOM     17  N   UNL     1      -1.347  12.043  22.033  0.00  0.00    +0.000 N 
ATOM     18  C   UNL     1      -0.035  11.973  21.575  0.00  0.00    +0.000 C 
ATOM     19  O   UNL     1       0.738  12.924  21.575  0.00  0.00    +0.000 OA
ATOM     20  H   UNL     1      -1.892  11.190  21.944  0.00  0.00    +0.000 HD
BRANCH  17  25
ATOM     21  C   UNL     1      -4.193  16.433  24.420  0.00  0.00    +0.000 C 
ATOM     22  C   UNL     1      -3.449  15.288  23.798  0.00  0.00    +0.000 A 
ATOM     23  C   UNL     1      -2.280  14.801  24.386  0.00  0.00    +0.000 A 
ATOM     24  C   UNL     1      -1.577  13.736  23.811  0.00  0.00    +0.000 A 
ATOM     25  C   UNL     1      -2.022  13.131  22.636  0.00  0.00    +0.000 A 
ATOM     26  C   UNL     1      -3.204  13.622  22.047  0.00  0.00    +0.000 A 
ATOM     27 BR   UNL     1      -3.908  12.863  20.450  0.00  0.00    +0.000 Br
ATOM     28  C   UNL     1      -3.910  14.691  22.620  0.00  0.00    +0.000 A 
ENDBRANCH  17  25
ENDBRANCH   1  18
TORSDOF 2
ENDMDL
MODEL 6
REMARK VINA RESULT:      -8.2      2.057      2.593
REMARK  Name = 
REMARK  4 active torsions:
REMARK  status: ('A' for Active; 'I' for Inactive)
REMARK    1  A    between atoms: C_1  and  C_2
REMARK    2  A    between atoms: C_5  and  N_6
REMARK    3  A    between atoms: C_7  and  C_9
REMARK    4  A    between atoms: C_18  and  C_19
REMARK                            x       y       z     vdW  Elec       q    Type
REMARK                         _______ _______ _______ _____ _____    ______ ____
ROOT
ATOM      1  C   UNL     1       0.043  10.092  18.405  0.00  0.00    +0.000 A 
ATOM      2  S   UNL     1      -1.209   9.711  17.299  0.00  0.00    +0.000 S 
ATOM      3  C   UNL     1      -2.321  10.708  18.093  0.00  0.00    +0.000 A 
ATOM      4  N   UNL     1      -3.556  10.874  17.581  0.00  0.00    +0.000 NA
ATOM      5  C   UNL     1      -4.331  11.674  18.243  0.00  0.00    +0.000 A 
ATOM      6  N   UNL     1      -3.979  12.315  19.423  0.00  0.00    +0.000 N 
ATOM      7  C   UNL     1      -2.709  12.131  20.004  0.00  0.00    +0.000 A 
ATOM      8  O   UNL     1      -2.376  12.647  21.069  0.00  0.00    +0.000 OA
ATOM      9  C   UNL     1      -1.809  11.275  19.235  0.00  0.00    +0.000 A 
ATOM     10  C   UNL     1      -0.419  10.911  19.442  0.00  0.00    +0.000 A 
ATOM     11  C   UNL     1       0.436  11.377  20.585  0.00  0.00    +0.000 C 
ATOM     12  C   UNL     1      -4.931  13.178  20.121  0.00  0.00    +0.000 C 
ATOM     13  C   UNL     1      -6.093  12.392  20.732  0.00  0.00    +0.000 C 
ATOM     14  C   UNL     1      -7.204  12.052  19.738  0.00  0.00    +0.000 C 
ATOM     15  C   UNL     1      -6.761  11.188  18.562  0.00  0.00    +0.000 C 
ATOM     16  C   UNL     1      -5.725  11.874  17.685  0.00  0.00    +0.000 C 
ENDROOT
BRANCH   1  18
ATOM     17  N   UNL     1       1.585   8.242  18.544  0.00  0.00    +0.000 N 
ATOM     18  C   UNL     1       1.402   9.571  18.180  0.00  0.00    +0.000 C 
ATOM     19  O   UNL     1       2.281  10.271  17.688  0.00  0.00    +0.000 OA
ATOM     20  H   UNL     1       0.785   7.787  18.974  0.00  0.00    +0.000 HD
BRANCH  17  25
ATOM     21  C   UNL     1       6.164   4.819  17.914  0.00  0.00    +0.000 C 
ATOM     22  C   UNL     1       4.970   5.713  18.078  0.00  0.00    +0.000 A 
ATOM     23  C   UNL     1       4.774   6.795  17.218  0.00  0.00    +0.000 A 
ATOM     24  C   UNL     1       3.665   7.638  17.366  0.00  0.00    +0.000 A 
ATOM     25  C   UNL     1       2.726   7.421  18.373  0.00  0.00    +0.000 A 
ATOM     26  C   UNL     1       2.925   6.326  19.237  0.00  0.00    +0.000 A 
ATOM     27 BR   UNL     1       1.699   5.931  20.638  0.00  0.00    +0.000 Br
ATOM     28  C   UNL     1       4.036   5.481  19.093  0.00  0.00    +0.000 A 
ENDBRANCH  17  25
ENDBRANCH   1  18
TORSDOF 2
ENDMDL
MODEL 7
REMARK VINA RESULT:      -8.1      2.723      8.999
REMARK  Name = 
REMARK  4 active torsions:
REMARK  status: ('A' for Active; 'I' for Inactive)
REMARK    1  A    between atoms: C_1  and  C_2
REMARK    2  A    between atoms: C_5  and  N_6
REMARK    3  A    between atoms: C_7  and  C_9
REMARK    4  A    between atoms: C_18  and  C_19
REMARK                            x       y       z     vdW  Elec       q    Type
REMARK                         _______ _______ _______ _____ _____    ______ ____
ROOT
ATOM      1  C   UNL     1       0.825  10.700  20.604  0.00  0.00    +0.000 A 
ATOM      2  S   UNL     1       0.476   9.440  21.712  0.00  0.00    +0.000 S 
ATOM      3  C   UNL     1       1.196   8.268  20.727  0.00  0.00    +0.000 A 
ATOM      4  N   UNL     1       1.292   6.996  21.162  0.00  0.00    +0.000 NA
ATOM      5  C   UNL     1       1.878   6.173  20.352  0.00  0.00    +0.000 A 
ATOM      6  N   UNL     1       2.362   6.514  19.096  0.00  0.00    +0.000 N 
ATOM      7  C   UNL     1       2.242   7.826  18.598  0.00  0.00    +0.000 A 
ATOM      8  O   UNL     1       2.620   8.156  17.476  0.00  0.00    +0.000 OA
ATOM      9  C   UNL     1       1.632   8.773  19.527  0.00  0.00    +0.000 A 
ATOM     10  C   UNL     1       1.409  10.204  19.431  0.00  0.00    +0.000 A 
ATOM     11  C   UNL     1       1.786  11.063  18.259  0.00  0.00    +0.000 C 
ATOM     12  C   UNL     1       2.985   5.511  18.233  0.00  0.00    +0.000 C 
ATOM     13  C   UNL     1       1.979   4.479  17.718  0.00  0.00    +0.000 C 
ATOM     14  C   UNL     1       1.670   3.360  18.715  0.00  0.00    +0.000 C 
ATOM     15  C   UNL     1       1.062   3.834  20.031  0.00  0.00    +0.000 C 
ATOM     16  C   UNL     1       1.996   4.738  20.820  0.00  0.00    +0.000 C 
ENDROOT
BRANCH   1  18
ATOM     17  N   UNL     1      -0.790  12.492  20.671  0.00  0.00    +0.000 N 
ATOM     18  C   UNL     1       0.512  12.093  20.959  0.00  0.00    +0.000 C 
ATOM     19  O   UNL     1       1.347  12.821  21.485  0.00  0.00    +0.000 OA
ATOM     20  H   UNL     1      -1.369  11.802  20.201  0.00  0.00    +0.000 HD
BRANCH  17  25
ATOM     21  C   UNL     1      -3.419  17.432  21.995  0.00  0.00    +0.000 C 
ATOM     22  C   UNL     1      -2.733  16.144  21.648  0.00  0.00    +0.000 A 
ATOM     23  C   UNL     1      -1.866  16.075  20.556  0.00  0.00    +0.000 A 
ATOM     24  C   UNL     1      -1.225  14.877  20.222  0.00  0.00    +0.000 A 
ATOM     25  C   UNL     1      -1.431  13.717  20.969  0.00  0.00    +0.000 A 
ATOM     26  C   UNL     1      -2.304  13.790  22.073  0.00  0.00    +0.000 A 
ATOM     27 BR   UNL     1      -2.649  12.272  23.168  0.00  0.00    +0.000 Br
ATOM     28  C   UNL     1      -2.950  14.990  22.408  0.00  0.00    +0.000 A 
ENDBRANCH  17  25
ENDBRANCH   1  18
TORSDOF 2
ENDMDL
MODEL 8
REMARK VINA RESULT:      -8.1      2.667      9.183
REMARK  Name = 
REMARK  4 active torsions:
REMARK  status: ('A' for Active; 'I' for Inactive)
REMARK    1  A    between atoms: C_1  and  C_2
REMARK    2  A    between atoms: C_5  and  N_6
REMARK    3  A    between atoms: C_7  and  C_9
REMARK    4  A    between atoms: C_18  and  C_19
REMARK                            x       y       z     vdW  Elec       q    Type
REMARK                         _______ _______ _______ _____ _____    ______ ____
ROOT
ATOM      1  C   UNL     1       1.215   9.342  19.303  0.00  0.00    +0.000 A 
ATOM      2  S   UNL     1       2.109   9.581  17.860  0.00  0.00    +0.000 S 
ATOM      3  C   UNL     1       2.865   8.074  17.986  0.00  0.00    +0.000 A 
ATOM      4  N   UNL     1       3.689   7.655  17.006  0.00  0.00    +0.000 NA
ATOM      5  C   UNL     1       4.204   6.479  17.176  0.00  0.00    +0.000 A 
ATOM      6  N   UNL     1       3.986   5.676  18.288  0.00  0.00    +0.000 N 
ATOM      7  C   UNL     1       3.162   6.103  19.347  0.00  0.00    +0.000 A 
ATOM      8  O   UNL     1       2.979   5.440  20.366  0.00  0.00    +0.000 OA
ATOM      9  C   UNL     1       2.532   7.405  19.138  0.00  0.00    +0.000 A 
ATOM     10  C   UNL     1       1.570   8.144  19.934  0.00  0.00    +0.000 A 
ATOM     11  C   UNL     1       0.988   7.683  21.239  0.00  0.00    +0.000 C 
ATOM     12  C   UNL     1       4.636   4.371  18.412  0.00  0.00    +0.000 C 
ATOM     13  C   UNL     1       6.148   4.489  18.620  0.00  0.00    +0.000 C 
ATOM     14  C   UNL     1       6.938   4.707  17.329  0.00  0.00    +0.000 C 
ATOM     15  C   UNL     1       6.576   5.979  16.570  0.00  0.00    +0.000 C 
ATOM     16  C   UNL     1       5.134   5.988  16.087  0.00  0.00    +0.000 C 
ENDROOT
BRANCH   1  18
ATOM     17  N   UNL     1      -0.924  10.394  18.921  0.00  0.00    +0.000 N 
ATOM     18  C   UNL     1       0.215  10.341  19.718  0.00  0.00    +0.000 C 
ATOM     19  O   UNL     1       0.390  11.046  20.706  0.00  0.00    +0.000 OA
ATOM     20  H   UNL     1      -0.925   9.781  18.111  0.00  0.00    +0.000 HD
BRANCH  17  25
ATOM     21  C   UNL     1      -5.755  13.446  19.562  0.00  0.00    +0.000 C 
ATOM     22  C   UNL     1      -4.494  12.651  19.395  0.00  0.00    +0.000 A 
ATOM     23  C   UNL     1      -3.462  12.758  20.329  0.00  0.00    +0.000 A 
ATOM     24  C   UNL     1      -2.279  12.024  20.180  0.00  0.00    +0.000 A 
ATOM     25  C   UNL     1      -2.098  11.164  19.097  0.00  0.00    +0.000 A 
ATOM     26  C   UNL     1      -3.143  11.055  18.159  0.00  0.00    +0.000 A 
ATOM     27 BR   UNL     1      -3.007   9.902  16.650  0.00  0.00    +0.000 Br
ATOM     28  C   UNL     1      -4.328  11.792  18.305  0.00  0.00    +0.000 A 
ENDBRANCH  17  25
ENDBRANCH   1  18
TORSDOF 2
ENDMDL
MODEL 9
REMARK VINA RESULT:      -8.0      2.844      9.103
REMARK  Name = 
REMARK  4 active torsions:
REMARK  status: ('A' for Active; 'I' for Inactive)
REMARK    1  A    between atoms: C_1  and  C_2
REMARK    2  A    between atoms: C_5  and  N_6
REMARK    3  A    between atoms: C_7  and  C_9
REMARK    4  A    between atoms: C_18  and  C_19
REMARK                            x       y       z     vdW  Elec       q    Type
REMARK                         _______ _______ _______ _____ _____    ______ ____
ROOT
ATOM      1  C   UNL     1       0.730  10.719  20.702  0.00  0.00    +0.000 A 
ATOM      2  S   UNL     1       0.433   9.440  21.802  0.00  0.00    +0.000 S 
ATOM      3  C   UNL     1       1.156   8.295  20.789  0.00  0.00    +0.000 A 
ATOM      4  N   UNL     1       1.289   7.021  21.206  0.00  0.00    +0.000 NA
ATOM      5  C   UNL     1       1.875   6.220  20.373  0.00  0.00    +0.000 A 
ATOM      6  N   UNL     1       2.324   6.586  19.112  0.00  0.00    +0.000 N 
ATOM      7  C   UNL     1       2.165   7.900  18.632  0.00  0.00    +0.000 A 
ATOM      8  O   UNL     1       2.511   8.251  17.506  0.00  0.00    +0.000 OA
ATOM      9  C   UNL     1       1.554   8.824  19.585  0.00  0.00    +0.000 A 
ATOM     10  C   UNL     1       1.299  10.250  19.511  0.00  0.00    +0.000 A 
ATOM     11  C   UNL     1       1.632  11.131  18.341  0.00  0.00    +0.000 C 
ATOM     12  C   UNL     1       2.949   5.606  18.223  0.00  0.00    +0.000 C 
ATOM     13  C   UNL     1       1.954   4.558  17.718  0.00  0.00    +0.000 C 
ATOM     14  C   UNL     1       1.692   3.422  18.708  0.00  0.00    +0.000 C 
ATOM     15  C   UNL     1       1.103   3.867  20.042  0.00  0.00    +0.000 C 
ATOM     16  C   UNL     1       2.034   4.782  20.821  0.00  0.00    +0.000 C 
ENDROOT
BRANCH   1  18
ATOM     17  N   UNL     1      -0.904  12.493  20.772  0.00  0.00    +0.000 N 
ATOM     18  C   UNL     1       0.395  12.102  21.080  0.00  0.00    +0.000 C 
ATOM     19  O   UNL     1       1.210  12.826  21.641  0.00  0.00    +0.000 OA
ATOM     20  H   UNL     1      -1.465  11.809  20.274  0.00  0.00    +0.000 HD
BRANCH  17  25
ATOM     21  C   UNL     1      -3.566  17.461  21.916  0.00  0.00    +0.000 C 
ATOM     22  C   UNL     1      -2.872  16.165  21.619  0.00  0.00    +0.000 A 
ATOM     23  C   UNL     1      -3.121  15.034  22.398  0.00  0.00    +0.000 A 
ATOM     24  C   UNL     1      -2.475  13.821  22.132  0.00  0.00    +0.000 A 
ATOM     25  C   UNL     1      -1.565  13.706  21.082  0.00  0.00    +0.000 A 
ATOM     26  C   UNL     1      -1.318  14.848  20.294  0.00  0.00    +0.000 A 
ATOM     27 BR   UNL     1      -0.104  14.801  18.829  0.00  0.00    +0.000 Br
ATOM     28  C   UNL     1      -1.963  16.066  20.561  0.00  0.00    +0.000 A 
ENDBRANCH  17  25
ENDBRANCH   1  18
TORSDOF 2
ENDMDL
