MODEL 1
REMARK VINA RESULT:      -8.2      0.000      0.000
REMARK  Name = 
REMARK  5 active torsions:
REMARK  status: ('A' for Active; 'I' for Inactive)
REMARK    1  A    between atoms: C_2  and  C_10
REMARK    2  A    between atoms: N_3  and  C_4
REMARK    3  A    between atoms: C_4  and  C_5
REMARK    4  A    between atoms: N_13  and  S_14
REMARK    5  A    between atoms: S_14  and  C_17
REMARK                            x       y       z     vdW  Elec       q    Type
REMARK                         _______ _______ _______ _____ _____    ______ ____
ROOT
ATOM      1  C   UNL     1       7.830   5.791  18.164  0.00  0.00    +0.000 C 
ATOM      2  C   UNL     1       7.438   4.615  17.270  0.00  0.00    +0.000 C 
ATOM      3  C   UNL     1       5.921   4.465  17.162  0.00  0.00    +0.000 C 
ATOM      4  N   UNL     1       5.266   4.331  18.494  0.00  0.00    +0.000 NA
ATOM      5  C   UNL     1       5.680   5.412  19.457  0.00  0.00    +0.000 C 
ATOM      6  C   UNL     1       7.204   5.539  19.541  0.00  0.00    +0.000 C 
ENDROOT
BRANCH   1   8
ATOM      7  O   UNL     1       6.511   7.305  16.788  0.00  0.00    +0.000 OA
ATOM      8  C   UNL     1       7.440   7.161  17.577  0.00  0.00    +0.000 C 
ATOM      9  N   UNL     1       8.174   8.231  18.038  0.00  0.00    +0.000 N 
ATOM     10  H   UNL     1       8.984   8.080  18.624  0.00  0.00    +0.000 HD
BRANCH   9  11
ATOM     11  C   UNL     1       7.965   9.590  17.543  0.00  0.00    +0.000 C 
BRANCH  11  12
ATOM     12  C   UNL     1       8.460  10.669  18.526  0.00  0.00    +0.000 C 
ATOM     13  C   UNL     1       9.909  10.455  18.963  0.00  0.00    +0.000 C 
ATOM     14  C   UNL     1      10.689  11.268  17.960  0.00  0.00    +0.000 C 
ATOM     15  C   UNL     1       9.775  12.455  17.757  0.00  0.00    +0.000 C 
ATOM     16  O   UNL     1       8.432  11.958  17.865  0.00  0.00    +0.000 OA
ENDBRANCH  11  12
ENDBRANCH   9  11
ENDBRANCH   1   8
BRANCH   4  17
ATOM     17  S   UNL     1       3.520   4.250  18.374  0.00  0.00    +0.000 S 
ATOM     18  O   UNL     1       3.180   3.951  17.002  0.00  0.00    +0.000 OA
ATOM     19  O   UNL     1       3.051   3.411  19.463  0.00  0.00    +0.000 OA
BRANCH  17  20
ATOM     20  C   UNL     1       2.958   5.915  18.685  0.00  0.00    +0.000 A 
ATOM     21  C   UNL     1       3.025   6.845  17.630  0.00  0.00    +0.000 A 
ATOM     22  C   UNL     1       2.551   8.146  17.798  0.00  0.00    +0.000 A 
ATOM     23  C   UNL     1       1.956   8.480  19.003  0.00  0.00    +0.000 A 
ATOM     24  C   UNL     1       1.835   7.542  20.040  0.00  0.00    +0.000 A 
ATOM     25  C   UNL     1       2.356   6.260  19.908  0.00  0.00    +0.000 A 
ATOM     26  C   UNL     1       1.092   8.145  21.198  0.00  0.00    +0.000 C 
ATOM     27  C   UNL     1       0.431   9.366  20.536  0.00  0.00    +0.000 C 
ATOM     28  C   UNL     1       1.366   9.798  19.396  0.00  0.00    +0.000 C 
ENDBRANCH  17  20
ENDBRANCH   4  17
TORSDOF 5
ENDMDL
MODEL 2
REMARK VINA RESULT:      -7.7      3.754      7.248
REMARK  Name = 
REMARK  5 active torsions:
REMARK  status: ('A' for Active; 'I' for Inactive)
REMARK    1  A    between atoms: C_2  and  C_10
REMARK    2  A    between atoms: N_3  and  C_4
REMARK    3  A    between atoms: C_4  and  C_5
REMARK    4  A    between atoms: N_13  and  S_14
REMARK    5  A    between atoms: S_14  and  C_17
REMARK                            x       y       z     vdW  Elec       q    Type
REMARK                         _______ _______ _______ _____ _____    ______ ____
ROOT
ATOM      1  C   UNL     1       2.023   3.049  19.306  0.00  0.00    +0.000 C 
ATOM      2  C   UNL     1       3.336   2.294  19.518  0.00  0.00    +0.000 C 
ATOM      3  C   UNL     1       4.551   3.184  19.259  0.00  0.00    +0.000 C 
ATOM      4  N   UNL     1       4.530   3.793  17.899  0.00  0.00    +0.000 NA
ATOM      5  C   UNL     1       3.226   4.478  17.588  0.00  0.00    +0.000 C 
ATOM      6  C   UNL     1       2.029   3.562  17.861  0.00  0.00    +0.000 C 
ENDROOT
BRANCH   1   8
ATOM      7  O   UNL     1       1.833   3.982  21.546  0.00  0.00    +0.000 OA
ATOM      8  C   UNL     1       1.791   4.172  20.334  0.00  0.00    +0.000 C 
ATOM      9  N   UNL     1       1.584   5.425  19.802  0.00  0.00    +0.000 N 
ATOM     10  H   UNL     1       1.475   5.544  18.803  0.00  0.00    +0.000 HD
BRANCH   9  11
ATOM     11  C   UNL     1       1.298   6.589  20.638  0.00  0.00    +0.000 C 
BRANCH  11  12
ATOM     12  C   UNL     1       2.062   7.851  20.191  0.00  0.00    +0.000 C 
ATOM     13  C   UNL     1       2.406   7.841  18.702  0.00  0.00    +0.000 C 
ATOM     14  C   UNL     1       1.231   8.551  18.077  0.00  0.00    +0.000 C 
ATOM     15  C   UNL     1       0.926   9.603  19.119  0.00  0.00    +0.000 C 
ATOM     16  O   UNL     1       1.218   9.011  20.394  0.00  0.00    +0.000 OA
ENDBRANCH  11  12
ENDBRANCH   9  11
ENDBRANCH   1   8
BRANCH   4  17
ATOM     17  S   UNL     1       5.876   4.883  17.634  0.00  0.00    +0.000 S 
ATOM     18  O   UNL     1       5.409   6.232  17.861  0.00  0.00    +0.000 OA
ATOM     19  O   UNL     1       7.012   4.351  18.365  0.00  0.00    +0.000 OA
BRANCH  17  20
ATOM     20  C   UNL     1       6.237   4.756  15.892  0.00  0.00    +0.000 A 
ATOM     21  C   UNL     1       7.459   5.281  15.429  0.00  0.00    +0.000 A 
ATOM     22  C   UNL     1       7.819   5.163  14.086  0.00  0.00    +0.000 A 
ATOM     23  C   UNL     1       6.978   4.464  13.237  0.00  0.00    +0.000 A 
ATOM     24  C   UNL     1       5.786   3.890  13.704  0.00  0.00    +0.000 A 
ATOM     25  C   UNL     1       5.384   4.050  15.025  0.00  0.00    +0.000 A 
ATOM     26  C   UNL     1       5.108   3.135  12.595  0.00  0.00    +0.000 C 
ATOM     27  C   UNL     1       6.255   2.980  11.583  0.00  0.00    +0.000 C 
ATOM     28  C   UNL     1       7.170   4.199  11.777  0.00  0.00    +0.000 C 
ENDBRANCH  17  20
ENDBRANCH   4  17
TORSDOF 5
ENDMDL
MODEL 3
REMARK VINA RESULT:      -7.5      0.552      1.325
REMARK  Name = 
REMARK  5 active torsions:
REMARK  status: ('A' for Active; 'I' for Inactive)
REMARK    1  A    between atoms: C_2  and  C_10
REMARK    2  A    between atoms: N_3  and  C_4
REMARK    3  A    between atoms: C_4  and  C_5
REMARK    4  A    between atoms: N_13  and  S_14
REMARK    5  A    between atoms: S_14  and  C_17
REMARK                            x       y       z     vdW  Elec       q    Type
REMARK                         _______ _______ _______ _____ _____    ______ ____
ROOT
ATOM      1  C   UNL     1       7.850   5.767  18.434  0.00  0.00    +0.000 C 
ATOM      2  C   UNL     1       7.681   4.551  17.524  0.00  0.00    +0.000 C 
ATOM      3  C   UNL     1       6.220   4.333  17.133  0.00  0.00    +0.000 C 
ATOM      4  N   UNL     1       5.326   4.207  18.319  0.00  0.00    +0.000 NA
ATOM      5  C   UNL     1       5.507   5.329  19.306  0.00  0.00    +0.000 C 
ATOM      6  C   UNL     1       6.981   5.524  19.675  0.00  0.00    +0.000 C 
ENDROOT
BRANCH   1   8
ATOM      7  O   UNL     1       6.654   7.212  16.884  0.00  0.00    +0.000 OA
ATOM      8  C   UNL     1       7.529   7.102  17.736  0.00  0.00    +0.000 C 
ATOM      9  N   UNL     1       8.259   8.185  18.172  0.00  0.00    +0.000 N 
ATOM     10  H   UNL     1       9.028   8.057  18.817  0.00  0.00    +0.000 HD
BRANCH   9  11
ATOM     11  C   UNL     1       8.113   9.513  17.578  0.00  0.00    +0.000 C 
BRANCH  11  12
ATOM     12  C   UNL     1       8.448  10.650  18.563  0.00  0.00    +0.000 C 
ATOM     13  C   UNL     1       9.866  10.550  19.126  0.00  0.00    +0.000 C 
ATOM     14  C   UNL     1      10.673  11.387  18.165  0.00  0.00    +0.000 C 
ATOM     15  C   UNL     1       9.702  12.502  17.847  0.00  0.00    +0.000 C 
ATOM     16  O   UNL     1       8.391  11.916  17.859  0.00  0.00    +0.000 OA
ENDBRANCH  11  12
ENDBRANCH   9  11
ENDBRANCH   1   8
BRANCH   4  17
ATOM     17  S   UNL     1       3.641   4.047  17.871  0.00  0.00    +0.000 S 
ATOM     18  O   UNL     1       3.546   4.173  16.434  0.00  0.00    +0.000 OA
ATOM     19  O   UNL     1       3.121   2.877  18.557  0.00  0.00    +0.000 OA
BRANCH  17  20
ATOM     20  C   UNL     1       2.842   5.486  18.560  0.00  0.00    +0.000 A 
ATOM     21  C   UNL     1       2.528   5.476  19.932  0.00  0.00    +0.000 A 
ATOM     22  C   UNL     1       1.951   6.594  20.537  0.00  0.00    +0.000 A 
ATOM     23  C   UNL     1       1.757   7.731  19.771  0.00  0.00    +0.000 A 
ATOM     24  C   UNL     1       2.119   7.766  18.416  0.00  0.00    +0.000 A 
ATOM     25  C   UNL     1       2.639   6.642  17.785  0.00  0.00    +0.000 A 
ATOM     26  C   UNL     1       1.865   9.135  17.850  0.00  0.00    +0.000 C 
ATOM     27  C   UNL     1       1.735   9.978  19.129  0.00  0.00    +0.000 C 
ATOM     28  C   UNL     1       1.176   9.039  20.210  0.00  0.00    +0.000 C 
ENDBRANCH  17  20
ENDBRANCH   4  17
TORSDOF 5
ENDMDL
MODEL 4
REMARK VINA RESULT:      -7.4      3.392      5.479
REMARK  Name = 
REMARK  5 active torsions:
REMARK  status: ('A' for Active; 'I' for Inactive)
REMARK    1  A    between atoms: C_2  and  C_10
REMARK    2  A    between atoms: N_3  and  C_4
REMARK    3  A    between atoms: C_4  and  C_5
REMARK    4  A    between atoms: N_13  and  S_14
REMARK    5  A    between atoms: S_14  and  C_17
REMARK                            x       y       z     vdW  Elec       q    Type
REMARK                         _______ _______ _______ _____ _____    ______ ____
ROOT
ATOM      1  C   UNL     1       6.639   5.735  17.360  0.00  0.00    +0.000 C 
ATOM      2  C   UNL     1       6.514   5.433  18.853  0.00  0.00    +0.000 C 
ATOM      3  C   UNL     1       5.061   5.196  19.264  0.00  0.00    +0.000 C 
ATOM      4  N   UNL     1       4.173   6.337  18.901  0.00  0.00    +0.000 NA
ATOM      5  C   UNL     1       4.314   6.748  17.459  0.00  0.00    +0.000 C 
ATOM      6  C   UNL     1       5.780   6.974  17.078  0.00  0.00    +0.000 C 
ENDROOT
BRANCH   1   8
ATOM      7  O   UNL     1       5.521   3.639  16.829  0.00  0.00    +0.000 OA
ATOM      8  C   UNL     1       6.269   4.540  16.461  0.00  0.00    +0.000 C 
ATOM      9  N   UNL     1       6.796   4.573  15.189  0.00  0.00    +0.000 N 
ATOM     10  H   UNL     1       7.472   5.281  14.935  0.00  0.00    +0.000 HD
BRANCH   9  11
ATOM     11  C   UNL     1       6.584   3.491  14.230  0.00  0.00    +0.000 C 
BRANCH  11  12
ATOM     12  C   UNL     1       6.215   4.001  12.823  0.00  0.00    +0.000 C 
ATOM     13  C   UNL     1       6.827   3.156  11.706  0.00  0.00    +0.000 C 
ATOM     14  C   UNL     1       5.750   2.138  11.422  0.00  0.00    +0.000 C 
ATOM     15  C   UNL     1       4.497   2.965  11.603  0.00  0.00    +0.000 C 
ATOM     16  O   UNL     1       4.780   3.908  12.648  0.00  0.00    +0.000 OA
ENDBRANCH  11  12
ENDBRANCH   9  11
ENDBRANCH   1   8
BRANCH   4  17
ATOM     17  S   UNL     1       2.494   6.028  19.291  0.00  0.00    +0.000 S 
ATOM     18  O   UNL     1       1.799   5.721  18.062  0.00  0.00    +0.000 OA
ATOM     19  O   UNL     1       2.475   5.106  20.414  0.00  0.00    +0.000 OA
BRANCH  17  20
ATOM     20  C   UNL     1       1.855   7.595  19.858  0.00  0.00    +0.000 A 
ATOM     21  C   UNL     1       1.666   8.615  18.907  0.00  0.00    +0.000 A 
ATOM     22  C   UNL     1       1.119   9.843  19.282  0.00  0.00    +0.000 A 
ATOM     23  C   UNL     1       0.710  10.009  20.594  0.00  0.00    +0.000 A 
ATOM     24  C   UNL     1       0.844   8.976  21.534  0.00  0.00    +0.000 A 
ATOM     25  C   UNL     1       1.441   7.769  21.190  0.00  0.00    +0.000 A 
ATOM     26  C   UNL     1       0.259   9.398  22.852  0.00  0.00    +0.000 C 
ATOM     27  C   UNL     1      -0.603  10.601  22.434  0.00  0.00    +0.000 C 
ATOM     28  C   UNL     1       0.087  11.222  21.209  0.00  0.00    +0.000 C 
ENDBRANCH  17  20
ENDBRANCH   4  17
TORSDOF 5
ENDMDL
MODEL 5
REMARK VINA RESULT:      -7.3      2.889      5.249
REMARK  Name = 
REMARK  5 active torsions:
REMARK  status: ('A' for Active; 'I' for Inactive)
REMARK    1  A    between atoms: C_2  and  C_10
REMARK    2  A    between atoms: N_3  and  C_4
REMARK    3  A    between atoms: C_4  and  C_5
REMARK    4  A    between atoms: N_13  and  S_14
REMARK    5  A    between atoms: S_14  and  C_17
REMARK                            x       y       z     vdW  Elec       q    Type
REMARK                         _______ _______ _______ _____ _____    ______ ____
ROOT
ATOM      1  C   UNL     1       7.261   5.986  16.746  0.00  0.00    +0.000 C 
ATOM      2  C   UNL     1       7.141   4.782  17.681  0.00  0.00    +0.000 C 
ATOM      3  C   UNL     1       5.684   4.465  18.014  0.00  0.00    +0.000 C 
ATOM      4  N   UNL     1       4.966   5.634  18.598  0.00  0.00    +0.000 NA
ATOM      5  C   UNL     1       5.119   6.883  17.771  0.00  0.00    +0.000 C 
ATOM      6  C   UNL     1       6.589   7.171  17.451  0.00  0.00    +0.000 C 
ENDROOT
BRANCH   1   8
ATOM      7  O   UNL     1       5.600   6.169  14.976  0.00  0.00    +0.000 OA
ATOM      8  C   UNL     1       6.686   5.728  15.340  0.00  0.00    +0.000 C 
ATOM      9  N   UNL     1       7.499   5.007  14.494  0.00  0.00    +0.000 N 
ATOM     10  H   UNL     1       8.351   4.587  14.840  0.00  0.00    +0.000 HD
BRANCH   9  11
ATOM     11  C   UNL     1       7.081   4.633  13.144  0.00  0.00    +0.000 C 
BRANCH  11  12
ATOM     12  C   UNL     1       6.328   3.290  13.101  0.00  0.00    +0.000 C 
ATOM     13  C   UNL     1       4.809   3.461  13.054  0.00  0.00    +0.000 C 
ATOM     14  C   UNL     1       4.514   3.469  11.575  0.00  0.00    +0.000 C 
ATOM     15  C   UNL     1       5.514   2.457  11.062  0.00  0.00    +0.000 C 
ATOM     16  O   UNL     1       6.684   2.588  11.884  0.00  0.00    +0.000 OA
ENDBRANCH  11  12
ENDBRANCH   9  11
ENDBRANCH   1   8
BRANCH   4  17
ATOM     17  S   UNL     1       3.274   5.297  18.897  0.00  0.00    +0.000 S 
ATOM     18  O   UNL     1       2.717   4.711  17.699  0.00  0.00    +0.000 OA
ATOM     19  O   UNL     1       3.188   4.614  20.176  0.00  0.00    +0.000 OA
BRANCH  17  20
ATOM     20  C   UNL     1       2.510   6.900  19.079  0.00  0.00    +0.000 A 
ATOM     21  C   UNL     1       2.285   7.662  17.918  0.00  0.00    +0.000 A 
ATOM     22  C   UNL     1       1.643   8.899  17.993  0.00  0.00    +0.000 A 
ATOM     23  C   UNL     1       1.177   9.326  19.225  0.00  0.00    +0.000 A 
ATOM     24  C   UNL     1       1.348   8.544  20.378  0.00  0.00    +0.000 A 
ATOM     25  C   UNL     1       2.037   7.338  20.329  0.00  0.00    +0.000 A 
ATOM     26  C   UNL     1       0.688   9.208  21.554  0.00  0.00    +0.000 C 
ATOM     27  C   UNL     1      -0.238  10.218  20.856  0.00  0.00    +0.000 C 
ATOM     28  C   UNL     1       0.451  10.597  19.536  0.00  0.00    +0.000 C 
ENDBRANCH  17  20
ENDBRANCH   4  17
TORSDOF 5
ENDMDL
MODEL 6
REMARK VINA RESULT:      -7.3      3.674      6.030
REMARK  Name = 
REMARK  5 active torsions:
REMARK  status: ('A' for Active; 'I' for Inactive)
REMARK    1  A    between atoms: C_2  and  C_10
REMARK    2  A    between atoms: N_3  and  C_4
REMARK    3  A    between atoms: C_4  and  C_5
REMARK    4  A    between atoms: N_13  and  S_14
REMARK    5  A    between atoms: S_14  and  C_17
REMARK                            x       y       z     vdW  Elec       q    Type
REMARK                         _______ _______ _______ _____ _____    ______ ____
ROOT
ATOM      1  C   UNL     1       2.717   5.307  18.983  0.00  0.00    +0.000 C 
ATOM      2  C   UNL     1       1.832   5.809  17.842  0.00  0.00    +0.000 C 
ATOM      3  C   UNL     1       1.778   7.336  17.795  0.00  0.00    +0.000 C 
ATOM      4  N   UNL     1       1.327   7.929  19.087  0.00  0.00    +0.000 NA
ATOM      5  C   UNL     1       2.100   7.407  20.268  0.00  0.00    +0.000 C 
ATOM      6  C   UNL     1       2.139   5.876  20.285  0.00  0.00    +0.000 C 
ENDROOT
BRANCH   1   8
ATOM      7  O   UNL     1       5.019   5.609  19.717  0.00  0.00    +0.000 OA
ATOM      8  C   UNL     1       4.208   5.650  18.797  0.00  0.00    +0.000 C 
ATOM      9  N   UNL     1       4.585   5.956  17.508  0.00  0.00    +0.000 N 
ATOM     10  H   UNL     1       3.888   6.060  16.783  0.00  0.00    +0.000 HD
BRANCH   9  11
ATOM     11  C   UNL     1       5.950   6.353  17.170  0.00  0.00    +0.000 C 
BRANCH  11  12
ATOM     12  C   UNL     1       6.790   5.191  16.605  0.00  0.00    +0.000 C 
ATOM     13  C   UNL     1       5.933   4.042  16.073  0.00  0.00    +0.000 C 
ATOM     14  C   UNL     1       5.766   4.391  14.615  0.00  0.00    +0.000 C 
ATOM     15  C   UNL     1       7.117   4.985  14.289  0.00  0.00    +0.000 C 
ATOM     16  O   UNL     1       7.557   5.669  15.473  0.00  0.00    +0.000 OA
ENDBRANCH  11  12
ENDBRANCH   9  11
ENDBRANCH   1   8
BRANCH   4  17
ATOM     17  S   UNL     1       1.352   9.680  19.061  0.00  0.00    +0.000 S 
ATOM     18  O   UNL     1       1.535  10.144  20.418  0.00  0.00    +0.000 OA
ATOM     19  O   UNL     1       2.259  10.084  18.002  0.00  0.00    +0.000 OA
BRANCH  17  20
ATOM     20  C   UNL     1      -0.299  10.158  18.581  0.00  0.00    +0.000 A 
ATOM     21  C   UNL     1      -0.941  11.164  19.327  0.00  0.00    +0.000 A 
ATOM     22  C   UNL     1      -2.211  11.616  18.965  0.00  0.00    +0.000 A 
ATOM     23  C   UNL     1      -2.793  11.099  17.821  0.00  0.00    +0.000 A 
ATOM     24  C   UNL     1      -2.135  10.136  17.041  0.00  0.00    +0.000 A 
ATOM     25  C   UNL     1      -0.896   9.633  17.421  0.00  0.00    +0.000 A 
ATOM     26  C   UNL     1      -2.957   9.804  15.827  0.00  0.00    +0.000 C 
ATOM     27  C   UNL     1      -3.932  10.993  15.783  0.00  0.00    +0.000 C 
ATOM     28  C   UNL     1      -4.127  11.446  17.239  0.00  0.00    +0.000 C 
ENDBRANCH  17  20
ENDBRANCH   4  17
TORSDOF 5
ENDMDL
MODEL 7
REMARK VINA RESULT:      -7.3      3.808      7.240
REMARK  Name = 
REMARK  5 active torsions:
REMARK  status: ('A' for Active; 'I' for Inactive)
REMARK    1  A    between atoms: C_2  and  C_10
REMARK    2  A    between atoms: N_3  and  C_4
REMARK    3  A    between atoms: C_4  and  C_5
REMARK    4  A    between atoms: N_13  and  S_14
REMARK    5  A    between atoms: S_14  and  C_17
REMARK                            x       y       z     vdW  Elec       q    Type
REMARK                         _______ _______ _______ _____ _____    ______ ____
ROOT
ATOM      1  C   UNL     1       2.182   3.127  19.605  0.00  0.00    +0.000 C 
ATOM      2  C   UNL     1       3.516   2.428  19.868  0.00  0.00    +0.000 C 
ATOM      3  C   UNL     1       4.705   3.309  19.485  0.00  0.00    +0.000 C 
ATOM      4  N   UNL     1       4.641   3.765  18.068  0.00  0.00    +0.000 NA
ATOM      5  C   UNL     1       3.315   4.385  17.714  0.00  0.00    +0.000 C 
ATOM      6  C   UNL     1       2.146   3.480  18.113  0.00  0.00    +0.000 C 
ENDROOT
BRANCH   1   8
ATOM      7  O   UNL     1       2.223   4.357  21.706  0.00  0.00    +0.000 OA
ATOM      8  C   UNL     1       1.945   4.351  20.510  0.00  0.00    +0.000 C 
ATOM      9  N   UNL     1       1.447   5.466  19.875  0.00  0.00    +0.000 N 
ATOM     10  H   UNL     1       1.152   5.415  18.909  0.00  0.00    +0.000 HD
BRANCH   9  11
ATOM     11  C   UNL     1       1.118   6.693  20.598  0.00  0.00    +0.000 C 
BRANCH  11  12
ATOM     12  C   UNL     1       1.992   7.890  20.176  0.00  0.00    +0.000 C 
ATOM     13  C   UNL     1       2.484   7.787  18.733  0.00  0.00    +0.000 C 
ATOM     14  C   UNL     1       1.419   8.523  17.958  0.00  0.00    +0.000 C 
ATOM     15  C   UNL     1       1.068   9.641  18.913  0.00  0.00    +0.000 C 
ATOM     16  O   UNL     1       1.197   9.100  20.237  0.00  0.00    +0.000 OA
ENDBRANCH  11  12
ENDBRANCH   9  11
ENDBRANCH   1   8
BRANCH   4  17
ATOM     17  S   UNL     1       5.955   4.848  17.656  0.00  0.00    +0.000 S 
ATOM     18  O   UNL     1       5.466   6.204  17.758  0.00  0.00    +0.000 OA
ATOM     19  O   UNL     1       7.122   4.414  18.403  0.00  0.00    +0.000 OA
BRANCH  17  20
ATOM     20  C   UNL     1       6.272   4.552  15.925  0.00  0.00    +0.000 A 
ATOM     21  C   UNL     1       5.395   3.698  15.228  0.00  0.00    +0.000 A 
ATOM     22  C   UNL     1       5.561   3.472  13.861  0.00  0.00    +0.000 A 
ATOM     23  C   UNL     1       6.566   4.156  13.197  0.00  0.00    +0.000 A 
ATOM     24  C   UNL     1       7.407   5.051  13.875  0.00  0.00    +0.000 A 
ATOM     25  C   UNL     1       7.292   5.241  15.247  0.00  0.00    +0.000 A 
ATOM     26  C   UNL     1       8.354   5.703  12.907  0.00  0.00    +0.000 C 
ATOM     27  C   UNL     1       7.669   5.408  11.562  0.00  0.00    +0.000 C 
ATOM     28  C   UNL     1       6.912   4.083  11.743  0.00  0.00    +0.000 C 
ENDBRANCH  17  20
ENDBRANCH   4  17
TORSDOF 5
ENDMDL
MODEL 8
REMARK VINA RESULT:      -7.3      3.792      7.531
REMARK  Name = 
REMARK  5 active torsions:
REMARK  status: ('A' for Active; 'I' for Inactive)
REMARK    1  A    between atoms: C_2  and  C_10
REMARK    2  A    between atoms: N_3  and  C_4
REMARK    3  A    between atoms: C_4  and  C_5
REMARK    4  A    between atoms: N_13  and  S_14
REMARK    5  A    between atoms: S_14  and  C_17
REMARK                            x       y       z     vdW  Elec       q    Type
REMARK                         _______ _______ _______ _____ _____    ______ ____
ROOT
ATOM      1  C   UNL     1       1.764   4.271  19.480  0.00  0.00    +0.000 C 
ATOM      2  C   UNL     1       2.841   3.195  19.627  0.00  0.00    +0.000 C 
ATOM      3  C   UNL     1       4.238   3.751  19.357  0.00  0.00    +0.000 C 
ATOM      4  N   UNL     1       4.345   4.398  18.018  0.00  0.00    +0.000 NA
ATOM      5  C   UNL     1       3.256   5.408  17.771  0.00  0.00    +0.000 C 
ATOM      6  C   UNL     1       1.869   4.822  18.053  0.00  0.00    +0.000 C 
ENDROOT
BRANCH   1   8
ATOM      7  O   UNL     1       2.253   5.163  21.692  0.00  0.00    +0.000 OA
ATOM      8  C   UNL     1       1.854   5.375  20.551  0.00  0.00    +0.000 C 
ATOM      9  N   UNL     1       1.505   6.638  20.126  0.00  0.00    +0.000 N 
ATOM     10  H   UNL     1       1.105   6.775  19.208  0.00  0.00    +0.000 HD
BRANCH   9  11
ATOM     11  C   UNL     1       1.486   7.786  21.030  0.00  0.00    +0.000 C 
BRANCH  11  12
ATOM     12  C   UNL     1       0.066   8.329  21.281  0.00  0.00    +0.000 C 
ATOM     13  C   UNL     1      -0.050   9.105  22.593  0.00  0.00    +0.000 C 
ATOM     14  C   UNL     1       0.224  10.527  22.171  0.00  0.00    +0.000 C 
ATOM     15  C   UNL     1      -0.440  10.574  20.815  0.00  0.00    +0.000 C 
ATOM     16  O   UNL     1      -0.271   9.272  20.233  0.00  0.00    +0.000 OA
ENDBRANCH  11  12
ENDBRANCH   9  11
ENDBRANCH   1   8
BRANCH   4  17
ATOM     17  S   UNL     1       5.920   5.113  17.746  0.00  0.00    +0.000 S 
ATOM     18  O   UNL     1       5.808   6.537  17.965  0.00  0.00    +0.000 OA
ATOM     19  O   UNL     1       6.889   4.317  18.478  0.00  0.00    +0.000 OA
BRANCH  17  20
ATOM     20  C   UNL     1       6.233   4.891  16.003  0.00  0.00    +0.000 A 
ATOM     21  C   UNL     1       7.523   5.184  15.519  0.00  0.00    +0.000 A 
ATOM     22  C   UNL     1       7.841   4.979  14.176  0.00  0.00    +0.000 A 
ATOM     23  C   UNL     1       6.881   4.421  13.350  0.00  0.00    +0.000 A 
ATOM     24  C   UNL     1       5.612   4.074  13.838  0.00  0.00    +0.000 A 
ATOM     25  C   UNL     1       5.260   4.328  15.159  0.00  0.00    +0.000 A 
ATOM     26  C   UNL     1       4.800   3.427  12.752  0.00  0.00    +0.000 C 
ATOM     27  C   UNL     1       5.890   3.054  11.734  0.00  0.00    +0.000 C 
ATOM     28  C   UNL     1       7.006   4.098  11.894  0.00  0.00    +0.000 C 
ENDBRANCH  17  20
ENDBRANCH   4  17
TORSDOF 5
ENDMDL
MODEL 9
REMARK VINA RESULT:      -7.3      3.149      5.448
REMARK  Name = 
REMARK  5 active torsions:
REMARK  status: ('A' for Active; 'I' for Inactive)
REMARK    1  A    between atoms: C_2  and  C_10
REMARK    2  A    between atoms: N_3  and  C_4
REMARK    3  A    between atoms: C_4  and  C_5
REMARK    4  A    between atoms: N_13  and  S_14
REMARK    5  A    between atoms: S_14  and  C_17
REMARK                            x       y       z     vdW  Elec       q    Type
REMARK                         _______ _______ _______ _____ _____    ______ ____
ROOT
ATOM      1  C   UNL     1       7.229   6.151  17.178  0.00  0.00    +0.000 C 
ATOM      2  C   UNL     1       7.164   5.978  18.696  0.00  0.00    +0.000 C 
ATOM      3  C   UNL     1       5.801   5.459  19.151  0.00  0.00    +0.000 C 
ATOM      4  N   UNL     1       4.679   6.326  18.690  0.00  0.00    +0.000 NA
ATOM      5  C   UNL     1       4.733   6.612  17.213  0.00  0.00    +0.000 C 
ATOM      6  C   UNL     1       6.112   7.127  16.788  0.00  0.00    +0.000 C 
ENDROOT
BRANCH   1   8
ATOM      7  O   UNL     1       7.467   3.743  16.906  0.00  0.00    +0.000 OA
ATOM      8  C   UNL     1       7.148   4.819  16.408  0.00  0.00    +0.000 C 
ATOM      9  N   UNL     1       6.641   4.906  15.130  0.00  0.00    +0.000 N 
ATOM     10  H   UNL     1       6.460   5.810  14.714  0.00  0.00    +0.000 HD
BRANCH   9  11
ATOM     11  C   UNL     1       6.546   3.744  14.249  0.00  0.00    +0.000 C 
BRANCH  11  12
ATOM     12  C   UNL     1       6.238   4.124  12.788  0.00  0.00    +0.000 C 
ATOM     13  C   UNL     1       6.957   3.230  11.777  0.00  0.00    +0.000 C 
ATOM     14  C   UNL     1       5.952   2.136  11.516  0.00  0.00    +0.000 C 
ATOM     15  C   UNL     1       4.651   2.905  11.560  0.00  0.00    +0.000 C 
ATOM     16  O   UNL     1       4.822   3.940  12.540  0.00  0.00    +0.000 OA
ENDBRANCH  11  12
ENDBRANCH   9  11
ENDBRANCH   1   8
BRANCH   4  17
ATOM     17  S   UNL     1       3.112   5.683  19.135  0.00  0.00    +0.000 S 
ATOM     18  O   UNL     1       2.504   5.126  17.948  0.00  0.00    +0.000 OA
ATOM     19  O   UNL     1       3.300   4.878  20.330  0.00  0.00    +0.000 OA
BRANCH  17  20
ATOM     20  C   UNL     1       2.138   7.109  19.584  0.00  0.00    +0.000 A 
ATOM     21  C   UNL     1       1.696   7.217  20.916  0.00  0.00    +0.000 A 
ATOM     22  C   UNL     1       0.977   8.336  21.337  0.00  0.00    +0.000 A 
ATOM     23  C   UNL     1       0.765   9.363  20.432  0.00  0.00    +0.000 A 
ATOM     24  C   UNL     1       1.252   9.286  19.118  0.00  0.00    +0.000 A 
ATOM     25  C   UNL     1       1.918   8.153  18.667  0.00  0.00    +0.000 A 
ATOM     26  C   UNL     1       0.944  10.558  18.379  0.00  0.00    +0.000 C 
ATOM     27  C   UNL     1       0.625  11.517  19.538  0.00  0.00    +0.000 C 
ATOM     28  C   UNL     1       0.043  10.652  20.667  0.00  0.00    +0.000 C 
ENDBRANCH  17  20
ENDBRANCH   4  17
TORSDOF 5
ENDMDL
