MODEL 1
REMARK VINA RESULT:      -7.2      0.000      0.000
REMARK  Name = 
REMARK  7 active torsions:
REMARK  status: ('A' for Active; 'I' for Inactive)
REMARK    1  A    between atoms: C_1  and  N_2
REMARK    2  A    between atoms: C_5  and  O_6
REMARK    3  A    between atoms: O_6  and  C_7
REMARK    4  A    between atoms: C_7  and  C_8
REMARK    5  A    between atoms: C_11  and  C_12
REMARK    6  A    between atoms: N_14  and  O_15
REMARK    7  A    between atoms: C_18  and  C_19
REMARK                            x       y       z     vdW  Elec       q    Type
REMARK                         _______ _______ _______ _____ _____    ______ ____
ROOT
ATOM      1  C   UNL     1       4.510   4.420  17.158  0.00  0.00    +0.000 C 
ATOM      2  N   UNL     1       3.758   5.209  18.125  0.00  0.00    +0.000 N 
ATOM      3  C   UNL     1       3.572   6.557  17.859  0.00  0.00    +0.000 A 
ATOM      4  O   UNL     1       4.068   7.069  16.857  0.00  0.00    +0.000 OA
ATOM      5  C   UNL     1       2.756   7.378  18.834  0.00  0.00    +0.000 A 
ATOM      6  C   UNL     1       2.212   6.789  19.925  0.00  0.00    +0.000 A 
ATOM      7  C   UNL     1       2.462   5.351  20.182  0.00  0.00    +0.000 A 
ATOM      8  C   UNL     1       1.932   4.723  21.325  0.00  0.00    +0.000 A 
ATOM      9  C   UNL     1       2.180   3.376  21.587  0.00  0.00    +0.000 A 
ATOM     10  C   UNL     1       2.960   2.633  20.711  0.00  0.00    +0.000 A 
ATOM     11  C   UNL     1       3.481   3.236  19.568  0.00  0.00    +0.000 A 
ATOM     12  C   UNL     1       3.235   4.591  19.290  0.00  0.00    +0.000 A 
ENDROOT
BRANCH   6  13
ATOM     13  C   UNL     1       1.393   7.662  20.809  0.00  0.00    +0.000 A 
ATOM     14  C   UNL     1       2.012   8.517  21.733  0.00  0.00    +0.000 A 
ATOM     15  C   UNL     1       1.242   9.288  22.606  0.00  0.00    +0.000 A 
ATOM     16  C   UNL     1      -0.150   9.216  22.562  0.00  0.00    +0.000 A 
ATOM     17  C   UNL     1      -0.774   8.378  21.636  0.00  0.00    +0.000 A 
ATOM     18  C   UNL     1      -0.007   7.606  20.762  0.00  0.00    +0.000 A 
ENDBRANCH   6  13
BRANCH   5  19
ATOM     19  O   UNL     1       2.488   8.731  18.608  0.00  0.00    +0.000 OA
BRANCH  19  20
ATOM     20  C   UNL     1       1.521   9.105  17.626  0.00  0.00    +0.000 C 
BRANCH  20  21
ATOM     21  C   UNL     1       0.487  10.055  18.192  0.00  0.00    +0.000 A 
ATOM     22  C   UNL     1       0.824  10.995  19.175  0.00  0.00    +0.000 A 
ATOM     23  C   UNL     1      -0.166  11.782  19.766  0.00  0.00    +0.000 A 
ATOM     24  C   UNL     1      -1.505  11.658  19.375  0.00  0.00    +0.000 A 
ATOM     25  C   UNL     1      -1.838  10.746  18.366  0.00  0.00    +0.000 A 
ATOM     26  C   UNL     1      -0.846   9.962  17.771  0.00  0.00    +0.000 A 
BRANCH  24  27
ATOM     27  C   UNL     1      -2.515  12.500  20.083  0.00  0.00    +0.000 C 
ATOM     28  O   UNL     1      -2.300  12.943  21.209  0.00  0.00    +0.000 OA
ATOM     29  N   UNL     1      -3.690  12.781  19.425  0.00  0.00    +0.000 N 
ATOM     30  H   UNL     1      -3.897  12.589  18.456  0.00  0.00    +0.000 HD
BRANCH  29  31
ATOM     31  O   UNL     1      -4.573  13.658  20.096  0.00  0.00    +0.000 OA
ATOM     32  H   UNL     1      -4.417  13.421  21.037  0.00  0.00    +0.000 HD
ENDBRANCH  29  31
ENDBRANCH  24  27
ENDBRANCH  20  21
ENDBRANCH  19  20
ENDBRANCH   5  19
TORSDOF 6
ENDMDL
MODEL 2
REMARK VINA RESULT:      -7.1      0.595      1.419
REMARK  Name = 
REMARK  7 active torsions:
REMARK  status: ('A' for Active; 'I' for Inactive)
REMARK    1  A    between atoms: C_1  and  N_2
REMARK    2  A    between atoms: C_5  and  O_6
REMARK    3  A    between atoms: O_6  and  C_7
REMARK    4  A    between atoms: C_7  and  C_8
REMARK    5  A    between atoms: C_11  and  C_12
REMARK    6  A    between atoms: N_14  and  O_15
REMARK    7  A    between atoms: C_18  and  C_19
REMARK                            x       y       z     vdW  Elec       q    Type
REMARK                         _______ _______ _______ _____ _____    ______ ____
ROOT
ATOM      1  C   UNL     1       4.310   4.659  17.061  0.00  0.00    +0.000 C 
ATOM      2  N   UNL     1       3.582   5.395  18.086  0.00  0.00    +0.000 N 
ATOM      3  C   UNL     1       3.400   6.757  17.901  0.00  0.00    +0.000 A 
ATOM      4  O   UNL     1       3.880   7.323  16.920  0.00  0.00    +0.000 OA
ATOM      5  C   UNL     1       2.608   7.526  18.937  0.00  0.00    +0.000 A 
ATOM      6  C   UNL     1       2.082   6.878  20.003  0.00  0.00    +0.000 A 
ATOM      7  C   UNL     1       2.326   5.427  20.173  0.00  0.00    +0.000 A 
ATOM      8  C   UNL     1       1.814   4.737  21.288  0.00  0.00    +0.000 A 
ATOM      9  C   UNL     1       2.057   3.376  21.468  0.00  0.00    +0.000 A 
ATOM     10  C   UNL     1       2.816   2.680  20.535  0.00  0.00    +0.000 A 
ATOM     11  C   UNL     1       3.319   3.345  19.420  0.00  0.00    +0.000 A 
ATOM     12  C   UNL     1       3.077   4.714  19.224  0.00  0.00    +0.000 A 
ENDROOT
BRANCH   6  13
ATOM     13  C   UNL     1       1.285   7.705  20.951  0.00  0.00    +0.000 A 
ATOM     14  C   UNL     1      -0.117   7.674  20.913  0.00  0.00    +0.000 A 
ATOM     15  C   UNL     1      -0.863   8.498  21.759  0.00  0.00    +0.000 A 
ATOM     16  C   UNL     1      -0.218   9.355  22.649  0.00  0.00    +0.000 A 
ATOM     17  C   UNL     1       1.177   9.382  22.702  0.00  0.00    +0.000 A 
ATOM     18  C   UNL     1       1.926   8.559  21.859  0.00  0.00    +0.000 A 
ENDBRANCH   6  13
BRANCH   5  19
ATOM     19  O   UNL     1       2.346   8.891  18.794  0.00  0.00    +0.000 OA
BRANCH  19  20
ATOM     20  C   UNL     1       1.501   9.340  17.734  0.00  0.00    +0.000 C 
BRANCH  20  21
ATOM     21  C   UNL     1       0.282  10.067  18.258  0.00  0.00    +0.000 A 
ATOM     22  C   UNL     1      -0.996   9.808  17.747  0.00  0.00    +0.000 A 
ATOM     23  C   UNL     1      -2.090  10.570  18.161  0.00  0.00    +0.000 A 
ATOM     24  C   UNL     1      -1.930  11.592  19.107  0.00  0.00    +0.000 A 
ATOM     25  C   UNL     1      -0.661  11.827  19.648  0.00  0.00    +0.000 A 
ATOM     26  C   UNL     1       0.433  11.060  19.236  0.00  0.00    +0.000 A 
BRANCH  24  27
ATOM     27  C   UNL     1      -3.136  12.394  19.470  0.00  0.00    +0.000 C 
ATOM     28  O   UNL     1      -4.270  12.000  19.204  0.00  0.00    +0.000 OA
ATOM     29  N   UNL     1      -2.939  13.585  20.130  0.00  0.00    +0.000 N 
ATOM     30  H   UNL     1      -2.069  13.921  20.517  0.00  0.00    +0.000 HD
BRANCH  29  31
ATOM     31  O   UNL     1      -4.113  14.263  20.534  0.00  0.00    +0.000 OA
ATOM     32  H   UNL     1      -3.779  14.821  21.271  0.00  0.00    +0.000 HD
ENDBRANCH  29  31
ENDBRANCH  24  27
ENDBRANCH  20  21
ENDBRANCH  19  20
ENDBRANCH   5  19
TORSDOF 6
ENDMDL
MODEL 3
REMARK VINA RESULT:      -7.0      0.675      1.198
REMARK  Name = 
REMARK  7 active torsions:
REMARK  status: ('A' for Active; 'I' for Inactive)
REMARK    1  A    between atoms: C_1  and  N_2
REMARK    2  A    between atoms: C_5  and  O_6
REMARK    3  A    between atoms: O_6  and  C_7
REMARK    4  A    between atoms: C_7  and  C_8
REMARK    5  A    between atoms: C_11  and  C_12
REMARK    6  A    between atoms: N_14  and  O_15
REMARK    7  A    between atoms: C_18  and  C_19
REMARK                            x       y       z     vdW  Elec       q    Type
REMARK                         _______ _______ _______ _____ _____    ______ ____
ROOT
ATOM      1  C   UNL     1       4.276   4.383  17.000  0.00  0.00    +0.000 C 
ATOM      2  N   UNL     1       3.578   5.163  18.014  0.00  0.00    +0.000 N 
ATOM      3  C   UNL     1       3.479   6.533  17.825  0.00  0.00    +0.000 A 
ATOM      4  O   UNL     1       4.005   7.068  16.851  0.00  0.00    +0.000 OA
ATOM      5  C   UNL     1       2.718   7.348  18.848  0.00  0.00    +0.000 A 
ATOM      6  C   UNL     1       2.139   6.734  19.908  0.00  0.00    +0.000 A 
ATOM      7  C   UNL     1       2.296   5.271  20.082  0.00  0.00    +0.000 A 
ATOM      8  C   UNL     1       1.729   4.615  21.190  0.00  0.00    +0.000 A 
ATOM      9  C   UNL     1       1.889   3.242  21.375  0.00  0.00    +0.000 A 
ATOM     10  C   UNL     1       2.619   2.502  20.454  0.00  0.00    +0.000 A 
ATOM     11  C   UNL     1       3.177   3.133  19.345  0.00  0.00    +0.000 A 
ATOM     12  C   UNL     1       3.018   4.514  19.145  0.00  0.00    +0.000 A 
ENDROOT
BRANCH   6  13
ATOM     13  C   UNL     1       1.379   7.607  20.843  0.00  0.00    +0.000 A 
ATOM     14  C   UNL     1      -0.025   7.602  20.836  0.00  0.00    +0.000 A 
ATOM     15  C   UNL     1      -0.737   8.468  21.668  0.00  0.00    +0.000 A 
ATOM     16  C   UNL     1      -0.057   9.342  22.515  0.00  0.00    +0.000 A 
ATOM     17  C   UNL     1       1.339   9.344  22.538  0.00  0.00    +0.000 A 
ATOM     18  C   UNL     1       2.054   8.479  21.708  0.00  0.00    +0.000 A 
ENDBRANCH   6  13
BRANCH   5  19
ATOM     19  O   UNL     1       2.538   8.726  18.701  0.00  0.00    +0.000 OA
BRANCH  19  20
ATOM     20  C   UNL     1       1.615   9.217  17.727  0.00  0.00    +0.000 C 
BRANCH  20  21
ATOM     21  C   UNL     1       0.560  10.102  18.353  0.00  0.00    +0.000 A 
ATOM     22  C   UNL     1       0.898  11.091  19.286  0.00  0.00    +0.000 A 
ATOM     23  C   UNL     1      -0.100  11.818  19.937  0.00  0.00    +0.000 A 
ATOM     24  C   UNL     1      -1.452  11.584  19.655  0.00  0.00    +0.000 A 
ATOM     25  C   UNL     1      -1.792  10.624  18.695  0.00  0.00    +0.000 A 
ATOM     26  C   UNL     1      -0.791   9.900  18.040  0.00  0.00    +0.000 A 
BRANCH  24  27
ATOM     27  C   UNL     1      -2.465  12.368  20.423  0.00  0.00    +0.000 C 
ATOM     28  O   UNL     1      -3.472  12.816  19.878  0.00  0.00    +0.000 OA
ATOM     29  N   UNL     1      -2.246  12.557  21.767  0.00  0.00    +0.000 N 
ATOM     30  H   UNL     1      -1.535  12.111  22.328  0.00  0.00    +0.000 HD
BRANCH  29  31
ATOM     31  O   UNL     1      -3.278  13.223  22.469  0.00  0.00    +0.000 OA
ATOM     32  H   UNL     1      -3.901  12.487  22.657  0.00  0.00    +0.000 HD
ENDBRANCH  29  31
ENDBRANCH  24  27
ENDBRANCH  20  21
ENDBRANCH  19  20
ENDBRANCH   5  19
TORSDOF 6
ENDMDL
MODEL 4
REMARK VINA RESULT:      -6.7      3.253      8.222
REMARK  Name = 
REMARK  7 active torsions:
REMARK  status: ('A' for Active; 'I' for Inactive)
REMARK    1  A    between atoms: C_1  and  N_2
REMARK    2  A    between atoms: C_5  and  O_6
REMARK    3  A    between atoms: O_6  and  C_7
REMARK    4  A    between atoms: C_7  and  C_8
REMARK    5  A    between atoms: C_11  and  C_12
REMARK    6  A    between atoms: N_14  and  O_15
REMARK    7  A    between atoms: C_18  and  C_19
REMARK                            x       y       z     vdW  Elec       q    Type
REMARK                         _______ _______ _______ _____ _____    ______ ____
ROOT
ATOM      1  C   UNL     1       2.221  10.547  18.045  0.00  0.00    +0.000 C 
ATOM      2  N   UNL     1       2.028   9.230  18.637  0.00  0.00    +0.000 N 
ATOM      3  C   UNL     1       2.651   8.150  18.032  0.00  0.00    +0.000 A 
ATOM      4  O   UNL     1       3.308   8.304  17.004  0.00  0.00    +0.000 OA
ATOM      5  C   UNL     1       2.494   6.782  18.661  0.00  0.00    +0.000 A 
ATOM      6  C   UNL     1       1.773   6.639  19.799  0.00  0.00    +0.000 A 
ATOM      7  C   UNL     1       1.102   7.819  20.394  0.00  0.00    +0.000 A 
ATOM      8  C   UNL     1       0.324   7.692  21.559  0.00  0.00    +0.000 A 
ATOM      9  C   UNL     1      -0.330   8.792  22.114  0.00  0.00    +0.000 A 
ATOM     10  C   UNL     1      -0.215  10.039  21.513  0.00  0.00    +0.000 A 
ATOM     11  C   UNL     1       0.562  10.185  20.366  0.00  0.00    +0.000 A 
ATOM     12  C   UNL     1       1.230   9.086  19.801  0.00  0.00    +0.000 A 
ENDROOT
BRANCH   6  13
ATOM     13  C   UNL     1       1.704   5.267  20.370  0.00  0.00    +0.000 A 
ATOM     14  C   UNL     1       2.637   4.851  21.332  0.00  0.00    +0.000 A 
ATOM     15  C   UNL     1       2.611   3.542  21.819  0.00  0.00    +0.000 A 
ATOM     16  C   UNL     1       1.654   2.641  21.355  0.00  0.00    +0.000 A 
ATOM     17  C   UNL     1       0.713   3.052  20.408  0.00  0.00    +0.000 A 
ATOM     18  C   UNL     1       0.736   4.358  19.919  0.00  0.00    +0.000 A 
ENDBRANCH   6  13
BRANCH   5  19
ATOM     19  O   UNL     1       3.130   5.654  18.134  0.00  0.00    +0.000 OA
BRANCH  19  20
ATOM     20  C   UNL     1       4.550   5.537  18.228  0.00  0.00    +0.000 C 
BRANCH  20  21
ATOM     21  C   UNL     1       5.159   5.054  16.930  0.00  0.00    +0.000 A 
ATOM     22  C   UNL     1       5.880   5.920  16.097  0.00  0.00    +0.000 A 
ATOM     23  C   UNL     1       6.334   5.486  14.851  0.00  0.00    +0.000 A 
ATOM     24  C   UNL     1       6.092   4.174  14.421  0.00  0.00    +0.000 A 
ATOM     25  C   UNL     1       5.405   3.295  15.267  0.00  0.00    +0.000 A 
ATOM     26  C   UNL     1       4.956   3.730  16.518  0.00  0.00    +0.000 A 
BRANCH  24  27
ATOM     27  C   UNL     1       6.568   3.793  13.058  0.00  0.00    +0.000 C 
ATOM     28  O   UNL     1       7.341   4.511  12.427  0.00  0.00    +0.000 OA
ATOM     29  N   UNL     1       6.128   2.599  12.535  0.00  0.00    +0.000 N 
ATOM     30  H   UNL     1       5.616   1.880  13.026  0.00  0.00    +0.000 HD
BRANCH  29  31
ATOM     31  O   UNL     1       6.678   2.237  11.284  0.00  0.00    +0.000 OA
ATOM     32  H   UNL     1       7.638   2.188  11.492  0.00  0.00    +0.000 HD
ENDBRANCH  29  31
ENDBRANCH  24  27
ENDBRANCH  20  21
ENDBRANCH  19  20
ENDBRANCH   5  19
TORSDOF 6
ENDMDL
MODEL 5
REMARK VINA RESULT:      -6.4      2.662      8.693
REMARK  Name = 
REMARK  7 active torsions:
REMARK  status: ('A' for Active; 'I' for Inactive)
REMARK    1  A    between atoms: C_1  and  N_2
REMARK    2  A    between atoms: C_5  and  O_6
REMARK    3  A    between atoms: O_6  and  C_7
REMARK    4  A    between atoms: C_7  and  C_8
REMARK    5  A    between atoms: C_11  and  C_12
REMARK    6  A    between atoms: N_14  and  O_15
REMARK    7  A    between atoms: C_18  and  C_19
REMARK                            x       y       z     vdW  Elec       q    Type
REMARK                         _______ _______ _______ _____ _____    ______ ____
ROOT
ATOM      1  C   UNL     1      -4.361  14.008  22.930  0.00  0.00    +0.000 C 
ATOM      2  N   UNL     1      -4.192  13.330  21.651  0.00  0.00    +0.000 N 
ATOM      3  C   UNL     1      -2.965  13.441  21.016  0.00  0.00    +0.000 A 
ATOM      4  O   UNL     1      -2.070  14.129  21.503  0.00  0.00    +0.000 OA
ATOM      5  C   UNL     1      -2.762  12.706  19.708  0.00  0.00    +0.000 A 
ATOM      6  C   UNL     1      -3.760  11.947  19.196  0.00  0.00    +0.000 A 
ATOM      7  C   UNL     1      -5.063  11.881  19.898  0.00  0.00    +0.000 A 
ATOM      8  C   UNL     1      -6.125  11.123  19.371  0.00  0.00    +0.000 A 
ATOM      9  C   UNL     1      -7.363  11.072  20.012  0.00  0.00    +0.000 A 
ATOM     10  C   UNL     1      -7.559  11.778  21.192  0.00  0.00    +0.000 A 
ATOM     11  C   UNL     1      -6.514  12.523  21.734  0.00  0.00    +0.000 A 
ATOM     12  C   UNL     1      -5.262  12.578  21.101  0.00  0.00    +0.000 A 
ENDROOT
BRANCH   6  13
ATOM     13  C   UNL     1      -3.460  11.229  17.928  0.00  0.00    +0.000 A 
ATOM     14  C   UNL     1      -2.521  10.186  17.908  0.00  0.00    +0.000 A 
ATOM     15  C   UNL     1      -2.193   9.556  16.706  0.00  0.00    +0.000 A 
ATOM     16  C   UNL     1      -2.799   9.957  15.517  0.00  0.00    +0.000 A 
ATOM     17  C   UNL     1      -3.745  10.984  15.530  0.00  0.00    +0.000 A 
ATOM     18  C   UNL     1      -4.076  11.616  16.729  0.00  0.00    +0.000 A 
ENDBRANCH   6  13
BRANCH   5  19
ATOM     19  O   UNL     1      -1.538  12.735  19.034  0.00  0.00    +0.000 OA
BRANCH  19  20
ATOM     20  C   UNL     1      -0.321  12.766  19.780  0.00  0.00    +0.000 C 
BRANCH  20  21
ATOM     21  C   UNL     1       0.364  11.416  19.792  0.00  0.00    +0.000 A 
ATOM     22  C   UNL     1       0.956  10.891  18.636  0.00  0.00    +0.000 A 
ATOM     23  C   UNL     1       1.480   9.597  18.636  0.00  0.00    +0.000 A 
ATOM     24  C   UNL     1       1.437   8.811  19.796  0.00  0.00    +0.000 A 
ATOM     25  C   UNL     1       0.880   9.347  20.962  0.00  0.00    +0.000 A 
ATOM     26  C   UNL     1       0.361  10.646  20.962  0.00  0.00    +0.000 A 
BRANCH  24  27
ATOM     27  C   UNL     1       1.976   7.421  19.710  0.00  0.00    +0.000 C 
ATOM     28  O   UNL     1       2.380   6.957  18.646  0.00  0.00    +0.000 OA
ATOM     29  N   UNL     1       2.024   6.679  20.867  0.00  0.00    +0.000 N 
ATOM     30  H   UNL     1       1.855   7.016  21.804  0.00  0.00    +0.000 HD
BRANCH  29  31
ATOM     31  O   UNL     1       2.627   5.405  20.755  0.00  0.00    +0.000 OA
ATOM     32  H   UNL     1       2.956   5.419  19.829  0.00  0.00    +0.000 HD
ENDBRANCH  29  31
ENDBRANCH  24  27
ENDBRANCH  20  21
ENDBRANCH  19  20
ENDBRANCH   5  19
TORSDOF 6
ENDMDL
MODEL 6
REMARK VINA RESULT:      -6.2      2.170      8.243
REMARK  Name = 
REMARK  7 active torsions:
REMARK  status: ('A' for Active; 'I' for Inactive)
REMARK    1  A    between atoms: C_1  and  N_2
REMARK    2  A    between atoms: C_5  and  O_6
REMARK    3  A    between atoms: O_6  and  C_7
REMARK    4  A    between atoms: C_7  and  C_8
REMARK    5  A    between atoms: C_11  and  C_12
REMARK    6  A    between atoms: N_14  and  O_15
REMARK    7  A    between atoms: C_18  and  C_19
REMARK                            x       y       z     vdW  Elec       q    Type
REMARK                         _______ _______ _______ _____ _____    ______ ____
ROOT
ATOM      1  C   UNL     1      -5.746  12.954  21.255  0.00  0.00    +0.000 C 
ATOM      2  N   UNL     1      -4.472  12.600  20.643  0.00  0.00    +0.000 N 
ATOM      3  C   UNL     1      -3.338  12.635  21.439  0.00  0.00    +0.000 A 
ATOM      4  O   UNL     1      -3.410  12.996  22.612  0.00  0.00    +0.000 OA
ATOM      5  C   UNL     1      -2.015  12.227  20.827  0.00  0.00    +0.000 A 
ATOM      6  C   UNL     1      -1.962  11.825  19.535  0.00  0.00    +0.000 A 
ATOM      7  C   UNL     1      -3.197  11.831  18.715  0.00  0.00    +0.000 A 
ATOM      8  C   UNL     1      -3.163  11.444  17.362  0.00  0.00    +0.000 A 
ATOM      9  C   UNL     1      -4.315  11.468  16.577  0.00  0.00    +0.000 A 
ATOM     10  C   UNL     1      -5.521  11.878  17.130  0.00  0.00    +0.000 A 
ATOM     11  C   UNL     1      -5.574  12.251  18.471  0.00  0.00    +0.000 A 
ATOM     12  C   UNL     1      -4.423  12.227  19.275  0.00  0.00    +0.000 A 
ENDROOT
BRANCH   6  13
ATOM     13  C   UNL     1      -0.628  11.405  19.027  0.00  0.00    +0.000 A 
ATOM     14  C   UNL     1      -0.430  10.103  18.543  0.00  0.00    +0.000 A 
ATOM     15  C   UNL     1       0.837   9.690  18.127  0.00  0.00    +0.000 A 
ATOM     16  C   UNL     1       1.915  10.573  18.187  0.00  0.00    +0.000 A 
ATOM     17  C   UNL     1       1.724  11.874  18.654  0.00  0.00    +0.000 A 
ATOM     18  C   UNL     1       0.459  12.290  19.070  0.00  0.00    +0.000 A 
ENDBRANCH   6  13
BRANCH   5  19
ATOM     19  O   UNL     1      -0.838  12.194  21.580  0.00  0.00    +0.000 OA
BRANCH  19  20
ATOM     20  C   UNL     1      -0.713  11.259  22.653  0.00  0.00    +0.000 C 
BRANCH  20  21
ATOM     21  C   UNL     1      -0.054   9.974  22.202  0.00  0.00    +0.000 A 
ATOM     22  C   UNL     1       1.332   9.896  22.009  0.00  0.00    +0.000 A 
ATOM     23  C   UNL     1       1.907   8.738  21.482  0.00  0.00    +0.000 A 
ATOM     24  C   UNL     1       1.111   7.631  21.156  0.00  0.00    +0.000 A 
ATOM     25  C   UNL     1      -0.268   7.693  21.383  0.00  0.00    +0.000 A 
ATOM     26  C   UNL     1      -0.842   8.852  21.916  0.00  0.00    +0.000 A 
BRANCH  24  27
ATOM     27  C   UNL     1       1.789   6.444  20.555  0.00  0.00    +0.000 C 
ATOM     28  O   UNL     1       1.358   5.306  20.730  0.00  0.00    +0.000 OA
ATOM     29  N   UNL     1       2.904   6.666  19.781  0.00  0.00    +0.000 N 
ATOM     30  H   UNL     1       3.246   7.560  19.462  0.00  0.00    +0.000 HD
BRANCH  29  31
ATOM     31  O   UNL     1       3.455   5.522  19.157  0.00  0.00    +0.000 OA
ATOM     32  H   UNL     1       3.583   4.918  19.922  0.00  0.00    +0.000 HD
ENDBRANCH  29  31
ENDBRANCH  24  27
ENDBRANCH  20  21
ENDBRANCH  19  20
ENDBRANCH   5  19
TORSDOF 6
ENDMDL
MODEL 7
REMARK VINA RESULT:      -6.1      2.399      8.008
REMARK  Name = 
REMARK  7 active torsions:
REMARK  status: ('A' for Active; 'I' for Inactive)
REMARK    1  A    between atoms: C_1  and  N_2
REMARK    2  A    between atoms: C_5  and  O_6
REMARK    3  A    between atoms: O_6  and  C_7
REMARK    4  A    between atoms: C_7  and  C_8
REMARK    5  A    between atoms: C_11  and  C_12
REMARK    6  A    between atoms: N_14  and  O_15
REMARK    7  A    between atoms: C_18  and  C_19
REMARK                            x       y       z     vdW  Elec       q    Type
REMARK                         _______ _______ _______ _____ _____    ______ ____
ROOT
ATOM      1  C   UNL     1      -3.367   9.856  16.003  0.00  0.00    +0.000 C 
ATOM      2  N   UNL     1      -3.046  10.541  17.248  0.00  0.00    +0.000 N 
ATOM      3  C   UNL     1      -1.766  10.395  17.758  0.00  0.00    +0.000 A 
ATOM      4  O   UNL     1      -0.947   9.672  17.192  0.00  0.00    +0.000 OA
ATOM      5  C   UNL     1      -1.406  11.136  19.028  0.00  0.00    +0.000 A 
ATOM      6  C   UNL     1      -2.322  11.933  19.628  0.00  0.00    +0.000 A 
ATOM      7  C   UNL     1      -3.687  12.036  19.061  0.00  0.00    +0.000 A 
ATOM      8  C   UNL     1      -4.665  12.835  19.683  0.00  0.00    +0.000 A 
ATOM      9  C   UNL     1      -5.959  12.921  19.169  0.00  0.00    +0.000 A 
ATOM     10  C   UNL     1      -6.297  12.211  18.025  0.00  0.00    +0.000 A 
ATOM     11  C   UNL     1      -5.338  11.425  17.390  0.00  0.00    +0.000 A 
ATOM     12  C   UNL     1      -4.030  11.334  17.894  0.00  0.00    +0.000 A 
ENDROOT
BRANCH   6  13
ATOM     13  C   UNL     1      -1.872  12.655  20.850  0.00  0.00    +0.000 A 
ATOM     14  C   UNL     1      -1.209  13.887  20.742  0.00  0.00    +0.000 A 
ATOM     15  C   UNL     1      -0.729  14.531  21.884  0.00  0.00    +0.000 A 
ATOM     16  C   UNL     1      -0.910  13.955  23.141  0.00  0.00    +0.000 A 
ATOM     17  C   UNL     1      -1.580  12.736  23.258  0.00  0.00    +0.000 A 
ATOM     18  C   UNL     1      -2.061  12.089  22.119  0.00  0.00    +0.000 A 
ENDBRANCH   6  13
BRANCH   5  19
ATOM     19  O   UNL     1      -0.122  11.073  19.576  0.00  0.00    +0.000 OA
BRANCH  19  20
ATOM     20  C   UNL     1       0.233   9.977  20.419  0.00  0.00    +0.000 C 
BRANCH  20  21
ATOM     21  C   UNL     1       1.220   9.049  19.746  0.00  0.00    +0.000 A 
ATOM     22  C   UNL     1       1.729   9.329  18.471  0.00  0.00    +0.000 A 
ATOM     23  C   UNL     1       2.548   8.406  17.819  0.00  0.00    +0.000 A 
ATOM     24  C   UNL     1       2.888   7.194  18.435  0.00  0.00    +0.000 A 
ATOM     25  C   UNL     1       2.412   6.929  19.725  0.00  0.00    +0.000 A 
ATOM     26  C   UNL     1       1.597   7.857  20.378  0.00  0.00    +0.000 A 
BRANCH  24  27
ATOM     27  C   UNL     1       3.731   6.235  17.661  0.00  0.00    +0.000 C 
ATOM     28  O   UNL     1       3.618   5.020  17.811  0.00  0.00    +0.000 OA
ATOM     29  N   UNL     1       4.628   6.755  16.757  0.00  0.00    +0.000 N 
ATOM     30  H   UNL     1       4.692   7.718  16.460  0.00  0.00    +0.000 HD
BRANCH  29  31
ATOM     31  O   UNL     1       5.335   5.807  15.981  0.00  0.00    +0.000 OA
ATOM     32  H   UNL     1       6.265   6.101  16.103  0.00  0.00    +0.000 HD
ENDBRANCH  29  31
ENDBRANCH  24  27
ENDBRANCH  20  21
ENDBRANCH  19  20
ENDBRANCH   5  19
TORSDOF 6
ENDMDL
MODEL 8
REMARK VINA RESULT:      -6.1      2.425      8.101
REMARK  Name = 
REMARK  7 active torsions:
REMARK  status: ('A' for Active; 'I' for Inactive)
REMARK    1  A    between atoms: C_1  and  N_2
REMARK    2  A    between atoms: C_5  and  O_6
REMARK    3  A    between atoms: O_6  and  C_7
REMARK    4  A    between atoms: C_7  and  C_8
REMARK    5  A    between atoms: C_11  and  C_12
REMARK    6  A    between atoms: N_14  and  O_15
REMARK    7  A    between atoms: C_18  and  C_19
REMARK                            x       y       z     vdW  Elec       q    Type
REMARK                         _______ _______ _______ _____ _____    ______ ____
ROOT
ATOM      1  C   UNL     1      -3.726  10.046  16.080  0.00  0.00    +0.000 C 
ATOM      2  N   UNL     1      -3.319  10.702  17.316  0.00  0.00    +0.000 N 
ATOM      3  C   UNL     1      -2.005  10.548  17.729  0.00  0.00    +0.000 A 
ATOM      4  O   UNL     1      -1.227   9.843  17.088  0.00  0.00    +0.000 OA
ATOM      5  C   UNL     1      -1.557  11.260  18.988  0.00  0.00    +0.000 A 
ATOM      6  C   UNL     1      -2.430  12.038  19.672  0.00  0.00    +0.000 A 
ATOM      7  C   UNL     1      -3.832  12.149  19.206  0.00  0.00    +0.000 A 
ATOM      8  C   UNL     1      -4.765  12.929  19.916  0.00  0.00    +0.000 A 
ATOM      9  C   UNL     1      -6.092  13.022  19.499  0.00  0.00    +0.000 A 
ATOM     10  C   UNL     1      -6.510  12.338  18.364  0.00  0.00    +0.000 A 
ATOM     11  C   UNL     1      -5.597  11.572  17.643  0.00  0.00    +0.000 A 
ATOM     12  C   UNL     1      -4.256  11.474  18.050  0.00  0.00    +0.000 A 
ENDROOT
BRANCH   6  13
ATOM     13  C   UNL     1      -1.895  12.731  20.875  0.00  0.00    +0.000 A 
ATOM     14  C   UNL     1      -2.073  12.176  22.151  0.00  0.00    +0.000 A 
ATOM     15  C   UNL     1      -1.628  12.858  23.285  0.00  0.00    +0.000 A 
ATOM     16  C   UNL     1      -1.000  14.096  23.156  0.00  0.00    +0.000 A 
ATOM     17  C   UNL     1      -0.807  14.649  21.889  0.00  0.00    +0.000 A 
ATOM     18  C   UNL     1      -1.249  13.970  20.753  0.00  0.00    +0.000 A 
ENDBRANCH   6  13
BRANCH   5  19
ATOM     19  O   UNL     1      -0.237  11.189  19.441  0.00  0.00    +0.000 OA
BRANCH  19  20
ATOM     20  C   UNL     1       0.136  10.174  20.374  0.00  0.00    +0.000 C 
BRANCH  20  21
ATOM     21  C   UNL     1       1.093   9.175  19.761  0.00  0.00    +0.000 A 
ATOM     22  C   UNL     1       1.556   9.322  18.447  0.00  0.00    +0.000 A 
ATOM     23  C   UNL     1       2.345   8.330  17.862  0.00  0.00    +0.000 A 
ATOM     24  C   UNL     1       2.701   7.183  18.584  0.00  0.00    +0.000 A 
ATOM     25  C   UNL     1       2.271   7.052  19.910  0.00  0.00    +0.000 A 
ATOM     26  C   UNL     1       1.485   8.048  20.496  0.00  0.00    +0.000 A 
BRANCH  24  27
ATOM     27  C   UNL     1       3.509   6.143  17.880  0.00  0.00    +0.000 C 
ATOM     28  O   UNL     1       4.673   6.357  17.547  0.00  0.00    +0.000 OA
ATOM     29  N   UNL     1       2.914   4.928  17.631  0.00  0.00    +0.000 N 
ATOM     30  H   UNL     1       2.026   4.609  17.989  0.00  0.00    +0.000 HD
BRANCH  29  31
ATOM     31  O   UNL     1       3.748   3.946  17.047  0.00  0.00    +0.000 OA
ATOM     32  H   UNL     1       3.309   3.799  16.180  0.00  0.00    +0.000 HD
ENDBRANCH  29  31
ENDBRANCH  24  27
ENDBRANCH  20  21
ENDBRANCH  19  20
ENDBRANCH   5  19
TORSDOF 6
ENDMDL
MODEL 9
REMARK VINA RESULT:      -5.9      2.429      8.070
REMARK  Name = 
REMARK  7 active torsions:
REMARK  status: ('A' for Active; 'I' for Inactive)
REMARK    1  A    between atoms: C_1  and  N_2
REMARK    2  A    between atoms: C_5  and  O_6
REMARK    3  A    between atoms: O_6  and  C_7
REMARK    4  A    between atoms: C_7  and  C_8
REMARK    5  A    between atoms: C_11  and  C_12
REMARK    6  A    between atoms: N_14  and  O_15
REMARK    7  A    between atoms: C_18  and  C_19
REMARK                            x       y       z     vdW  Elec       q    Type
REMARK                         _______ _______ _______ _____ _____    ______ ____
ROOT
ATOM      1  C   UNL     1      -3.488   9.866  16.061  0.00  0.00    +0.000 C 
ATOM      2  N   UNL     1      -3.095  10.556  17.282  0.00  0.00    +0.000 N 
ATOM      3  C   UNL     1      -1.789  10.405  17.721  0.00  0.00    +0.000 A 
ATOM      4  O   UNL     1      -1.007   9.675  17.114  0.00  0.00    +0.000 OA
ATOM      5  C   UNL     1      -1.355  11.152  18.964  0.00  0.00    +0.000 A 
ATOM      6  C   UNL     1      -2.232  11.957  19.610  0.00  0.00    +0.000 A 
ATOM      7  C   UNL     1      -3.626  12.065  19.119  0.00  0.00    +0.000 A 
ATOM      8  C   UNL     1      -4.564  12.873  19.789  0.00  0.00    +0.000 A 
ATOM      9  C   UNL     1      -5.884  12.963  19.348  0.00  0.00    +0.000 A 
ATOM     10  C   UNL     1      -6.288  12.248  18.228  0.00  0.00    +0.000 A 
ATOM     11  C   UNL     1      -5.370  11.454  17.546  0.00  0.00    +0.000 A 
ATOM     12  C   UNL     1      -4.037  11.358  17.976  0.00  0.00    +0.000 A 
ENDROOT
BRANCH   6  13
ATOM     13  C   UNL     1      -1.711  12.683  20.800  0.00  0.00    +0.000 A 
ATOM     14  C   UNL     1      -1.938  12.183  22.091  0.00  0.00    +0.000 A 
ATOM     15  C   UNL     1      -1.505  12.897  23.210  0.00  0.00    +0.000 A 
ATOM     16  C   UNL     1      -0.840  14.112  23.050  0.00  0.00    +0.000 A 
ATOM     17  C   UNL     1      -0.598  14.610  21.769  0.00  0.00    +0.000 A 
ATOM     18  C   UNL     1      -1.028  13.898  20.648  0.00  0.00    +0.000 A 
ENDBRANCH   6  13
BRANCH   5  19
ATOM     19  O   UNL     1      -0.043  11.085  19.440  0.00  0.00    +0.000 OA
BRANCH  19  20
ATOM     20  C   UNL     1       0.291  10.142  20.460  0.00  0.00    +0.000 C 
BRANCH  20  21
ATOM     21  C   UNL     1       1.079   8.975  19.908  0.00  0.00    +0.000 A 
ATOM     22  C   UNL     1       1.314   7.827  20.676  0.00  0.00    +0.000 A 
ATOM     23  C   UNL     1       2.140   6.811  20.192  0.00  0.00    +0.000 A 
ATOM     24  C   UNL     1       2.732   6.915  18.926  0.00  0.00    +0.000 A 
ATOM     25  C   UNL     1       2.468   8.044  18.141  0.00  0.00    +0.000 A 
ATOM     26  C   UNL     1       1.636   9.058  18.625  0.00  0.00    +0.000 A 
BRANCH  24  27
ATOM     27  C   UNL     1       3.639   5.811  18.492  0.00  0.00    +0.000 C 
ATOM     28  O   UNL     1       3.442   5.197  17.446  0.00  0.00    +0.000 OA
ATOM     29  N   UNL     1       4.717   5.515  19.293  0.00  0.00    +0.000 N 
ATOM     30  H   UNL     1       5.042   6.051  20.085  0.00  0.00    +0.000 HD
BRANCH  29  31
ATOM     31  O   UNL     1       5.598   4.528  18.795  0.00  0.00    +0.000 OA
ATOM     32  H   UNL     1       6.407   5.055  18.609  0.00  0.00    +0.000 HD
ENDBRANCH  29  31
ENDBRANCH  24  27
ENDBRANCH  20  21
ENDBRANCH  19  20
ENDBRANCH   5  19
TORSDOF 6
ENDMDL
