MODEL 1
REMARK VINA RESULT:      -8.0      0.000      0.000
REMARK  Name = 
REMARK  6 active torsions:
REMARK  status: ('A' for Active; 'I' for Inactive)
REMARK    1  A    between atoms: C_1  and  C_2
REMARK    2  A    between atoms: C_2  and  C_3
REMARK    3  A    between atoms: C_3  and  S_4
REMARK    4  A    between atoms: S_4  and  N_7
REMARK    5  A    between atoms: C_11  and  C_12
REMARK    6  A    between atoms: C_14  and  C_15
REMARK                            x       y       z     vdW  Elec       q    Type
REMARK                         _______ _______ _______ _____ _____    ______ ____
ROOT
ATOM      1  N   UNL     1       5.498   5.086  17.203  0.00  0.00    +0.000 NA
ATOM      2  C   UNL     1       5.478   4.127  18.355  0.00  0.00    +0.000 C 
ATOM      3  C   UNL     1       4.041   3.754  18.712  0.00  0.00    +0.000 C 
ATOM      4  C   UNL     1       3.217   4.989  19.055  0.00  0.00    +0.000 C 
ATOM      5  C   UNL     1       3.281   6.025  17.927  0.00  0.00    +0.000 C 
ATOM      6  C   UNL     1       4.734   6.338  17.542  0.00  0.00    +0.000 C 
ENDROOT
BRANCH   5   7
ATOM      7  C   UNL     1       2.588   7.282  18.355  0.00  0.00    +0.000 A 
ATOM      8  N   UNL     1       1.954   7.480  19.492  0.00  0.00    +0.000 NA
ATOM      9  C   UNL     1       1.483   8.769  19.450  0.00  0.00    +0.000 A 
ATOM     10  C   UNL     1       1.827   9.354  18.252  0.00  0.00    +0.000 A 
ATOM     11  N   UNL     1       2.534   8.410  17.573  0.00  0.00    +0.000 N 
ATOM     12  H   UNL     1       2.945   8.514  16.654  0.00  0.00    +0.000 HD
BRANCH   9  13
ATOM     13  C   UNL     1       0.754   9.401  20.531  0.00  0.00    +0.000 A 
ATOM     14  C   UNL     1       0.385  10.753  20.453  0.00  0.00    +0.000 A 
ATOM     15  C   UNL     1      -0.249  11.377  21.527  0.00  0.00    +0.000 A 
ATOM     16  C   UNL     1      -0.532  10.653  22.683  0.00  0.00    +0.000 A 
ATOM     17  C   UNL     1      -0.196   9.302  22.762  0.00  0.00    +0.000 A 
ATOM     18  C   UNL     1       0.446   8.679  21.689  0.00  0.00    +0.000 A 
ENDBRANCH   9  13
ENDBRANCH   5   7
BRANCH   1  19
ATOM     19  S   UNL     1       7.098   5.427  16.647  0.00  0.00    +0.000 S 
ATOM     20  O   UNL     1       7.982   4.424  17.200  0.00  0.00    +0.000 OA
ATOM     21  O   UNL     1       7.348   6.841  16.842  0.00  0.00    +0.000 OA
BRANCH  19  22
ATOM     22  C   UNL     1       6.970   5.116  14.880  0.00  0.00    +0.000 C 
BRANCH  22  24
ATOM     23  C   UNL     1       5.832   3.629  13.161  0.00  0.00    +0.000 C 
ATOM     24  C   UNL     1       6.039   3.925  14.635  0.00  0.00    +0.000 C 
ENDBRANCH  22  24
ENDBRANCH  19  22
ENDBRANCH   1  19
TORSDOF 5
ENDMDL
MODEL 2
REMARK VINA RESULT:      -8.0      1.743      2.300
REMARK  Name = 
REMARK  6 active torsions:
REMARK  status: ('A' for Active; 'I' for Inactive)
REMARK    1  A    between atoms: C_1  and  C_2
REMARK    2  A    between atoms: C_2  and  C_3
REMARK    3  A    between atoms: C_3  and  S_4
REMARK    4  A    between atoms: S_4  and  N_7
REMARK    5  A    between atoms: C_11  and  C_12
REMARK    6  A    between atoms: C_14  and  C_15
REMARK                            x       y       z     vdW  Elec       q    Type
REMARK                         _______ _______ _______ _____ _____    ______ ____
ROOT
ATOM      1  N   UNL     1       5.554   5.116  17.905  0.00  0.00    +0.000 NA
ATOM      2  C   UNL     1       5.037   3.949  18.691  0.00  0.00    +0.000 C 
ATOM      3  C   UNL     1       3.562   3.708  18.376  0.00  0.00    +0.000 C 
ATOM      4  C   UNL     1       2.722   4.943  18.674  0.00  0.00    +0.000 C 
ATOM      5  C   UNL     1       3.274   6.174  17.945  0.00  0.00    +0.000 C 
ATOM      6  C   UNL     1       4.771   6.361  18.226  0.00  0.00    +0.000 C 
ENDROOT
BRANCH   5   7
ATOM      7  C   UNL     1       2.521   7.395  18.374  0.00  0.00    +0.000 A 
ATOM      8  N   UNL     1       1.942   7.591  19.540  0.00  0.00    +0.000 NA
ATOM      9  C   UNL     1       1.381   8.843  19.486  0.00  0.00    +0.000 A 
ATOM     10  C   UNL     1       1.613   9.407  18.251  0.00  0.00    +0.000 A 
ATOM     11  N   UNL     1       2.344   8.489  17.561  0.00  0.00    +0.000 N 
ATOM     12  H   UNL     1       2.692   8.587  16.617  0.00  0.00    +0.000 HD
BRANCH   9  13
ATOM     13  C   UNL     1       0.673   9.463  20.588  0.00  0.00    +0.000 A 
ATOM     14  C   UNL     1       0.294  10.813  20.529  0.00  0.00    +0.000 A 
ATOM     15  C   UNL     1      -0.319  11.425  21.621  0.00  0.00    +0.000 A 
ATOM     16  C   UNL     1      -0.570  10.692  22.779  0.00  0.00    +0.000 A 
ATOM     17  C   UNL     1      -0.223   9.343  22.840  0.00  0.00    +0.000 A 
ATOM     18  C   UNL     1       0.398   8.731  21.748  0.00  0.00    +0.000 A 
ENDBRANCH   9  13
ENDBRANCH   5   7
BRANCH   1  19
ATOM     19  S   UNL     1       7.256   5.347  18.095  0.00  0.00    +0.000 S 
ATOM     20  O   UNL     1       7.930   4.421  17.210  0.00  0.00    +0.000 OA
ATOM     21  O   UNL     1       7.547   5.378  19.514  0.00  0.00    +0.000 OA
BRANCH  19  22
ATOM     22  C   UNL     1       7.501   7.000  17.432  0.00  0.00    +0.000 C 
BRANCH  22  24
ATOM     23  C   UNL     1       8.326   9.309  18.104  0.00  0.00    +0.000 C 
ATOM     24  C   UNL     1       8.354   7.821  18.403  0.00  0.00    +0.000 C 
ENDBRANCH  22  24
ENDBRANCH  19  22
ENDBRANCH   1  19
TORSDOF 5
ENDMDL
MODEL 3
REMARK VINA RESULT:      -7.8      0.788      1.332
REMARK  Name = 
REMARK  6 active torsions:
REMARK  status: ('A' for Active; 'I' for Inactive)
REMARK    1  A    between atoms: C_1  and  C_2
REMARK    2  A    between atoms: C_2  and  C_3
REMARK    3  A    between atoms: C_3  and  S_4
REMARK    4  A    between atoms: S_4  and  N_7
REMARK    5  A    between atoms: C_11  and  C_12
REMARK    6  A    between atoms: C_14  and  C_15
REMARK                            x       y       z     vdW  Elec       q    Type
REMARK                         _______ _______ _______ _____ _____    ______ ____
ROOT
ATOM      1  N   UNL     1       5.039   4.893  17.076  0.00  0.00    +0.000 NA
ATOM      2  C   UNL     1       5.655   4.346  18.329  0.00  0.00    +0.000 C 
ATOM      3  C   UNL     1       4.572   4.020  19.354  0.00  0.00    +0.000 C 
ATOM      4  C   UNL     1       3.733   5.248  19.685  0.00  0.00    +0.000 C 
ATOM      5  C   UNL     1       3.153   5.877  18.413  0.00  0.00    +0.000 C 
ATOM      6  C   UNL     1       4.250   6.139  17.372  0.00  0.00    +0.000 C 
ENDROOT
BRANCH   5   7
ATOM      7  C   UNL     1       2.461   7.161  18.754  0.00  0.00    +0.000 A 
ATOM      8  N   UNL     1       1.895   7.465  19.904  0.00  0.00    +0.000 NA
ATOM      9  C   UNL     1       1.395   8.736  19.762  0.00  0.00    +0.000 A 
ATOM     10  C   UNL     1       1.652   9.201  18.491  0.00  0.00    +0.000 A 
ATOM     11  N   UNL     1       2.336   8.202  17.867  0.00  0.00    +0.000 N 
ATOM     12  H   UNL     1       2.687   8.218  16.919  0.00  0.00    +0.000 HD
BRANCH   9  13
ATOM     13  C   UNL     1       0.721   9.465  20.816  0.00  0.00    +0.000 A 
ATOM     14  C   UNL     1       0.591   8.915  22.101  0.00  0.00    +0.000 A 
ATOM     15  C   UNL     1      -0.124   9.588  23.091  0.00  0.00    +0.000 A 
ATOM     16  C   UNL     1      -0.705  10.823  22.812  0.00  0.00    +0.000 A 
ATOM     17  C   UNL     1      -0.559  11.393  21.548  0.00  0.00    +0.000 A 
ATOM     18  C   UNL     1       0.150  10.716  20.554  0.00  0.00    +0.000 A 
ENDBRANCH   9  13
ENDBRANCH   5   7
BRANCH   1  19
ATOM     19  S   UNL     1       6.197   5.136  15.816  0.00  0.00    +0.000 S 
ATOM     20  O   UNL     1       7.515   4.940  16.381  0.00  0.00    +0.000 OA
ATOM     21  O   UNL     1       5.851   6.358  15.120  0.00  0.00    +0.000 OA
BRANCH  19  22
ATOM     22  C   UNL     1       5.872   3.750  14.716  0.00  0.00    +0.000 C 
BRANCH  22  24
ATOM     23  C   UNL     1       5.836   3.209  12.233  0.00  0.00    +0.000 C 
ATOM     24  C   UNL     1       6.466   4.041  13.335  0.00  0.00    +0.000 C 
ENDBRANCH  22  24
ENDBRANCH  19  22
ENDBRANCH   1  19
TORSDOF 5
ENDMDL
MODEL 4
REMARK VINA RESULT:      -7.7      1.621      2.389
REMARK  Name = 
REMARK  6 active torsions:
REMARK  status: ('A' for Active; 'I' for Inactive)
REMARK    1  A    between atoms: C_1  and  C_2
REMARK    2  A    between atoms: C_2  and  C_3
REMARK    3  A    between atoms: C_3  and  S_4
REMARK    4  A    between atoms: S_4  and  N_7
REMARK    5  A    between atoms: C_11  and  C_12
REMARK    6  A    between atoms: C_14  and  C_15
REMARK                            x       y       z     vdW  Elec       q    Type
REMARK                         _______ _______ _______ _____ _____    ______ ____
ROOT
ATOM      1  N   UNL     1       5.261   5.010  17.540  0.00  0.00    +0.000 NA
ATOM      2  C   UNL     1       5.495   4.263  18.818  0.00  0.00    +0.000 C 
ATOM      3  C   UNL     1       4.165   3.889  19.467  0.00  0.00    +0.000 C 
ATOM      4  C   UNL     1       3.314   5.123  19.739  0.00  0.00    +0.000 C 
ATOM      5  C   UNL     1       3.122   5.952  18.464  0.00  0.00    +0.000 C 
ATOM      6  C   UNL     1       4.467   6.263  17.794  0.00  0.00    +0.000 C 
ENDROOT
BRANCH   5   7
ATOM      7  C   UNL     1       2.412   7.229  18.793  0.00  0.00    +0.000 A 
ATOM      8  N   UNL     1       1.863   7.546  19.947  0.00  0.00    +0.000 NA
ATOM      9  C   UNL     1       1.335   8.804  19.790  0.00  0.00    +0.000 A 
ATOM     10  C   UNL     1       1.558   9.247  18.504  0.00  0.00    +0.000 A 
ATOM     11  N   UNL     1       2.248   8.249  17.888  0.00  0.00    +0.000 N 
ATOM     12  H   UNL     1       2.580   8.252  16.932  0.00  0.00    +0.000 HD
BRANCH   9  13
ATOM     13  C   UNL     1       0.668   9.542  20.843  0.00  0.00    +0.000 A 
ATOM     14  C   UNL     1       0.526   8.992  22.126  0.00  0.00    +0.000 A 
ATOM     15  C   UNL     1      -0.182   9.674  23.115  0.00  0.00    +0.000 A 
ATOM     16  C   UNL     1      -0.745  10.918  22.835  0.00  0.00    +0.000 A 
ATOM     17  C   UNL     1      -0.587  11.487  21.572  0.00  0.00    +0.000 A 
ATOM     18  C   UNL     1       0.116  10.801  20.579  0.00  0.00    +0.000 A 
ENDBRANCH   9  13
ENDBRANCH   5   7
BRANCH   1  19
ATOM     19  S   UNL     1       6.723   5.326  16.675  0.00  0.00    +0.000 S 
ATOM     20  O   UNL     1       6.469   5.081  15.271  0.00  0.00    +0.000 OA
ATOM     21  O   UNL     1       7.807   4.664  17.370  0.00  0.00    +0.000 OA
BRANCH  19  22
ATOM     22  C   UNL     1       6.921   7.102  16.882  0.00  0.00    +0.000 C 
BRANCH  22  24
ATOM     23  C   UNL     1       8.285   8.841  18.137  0.00  0.00    +0.000 C 
ATOM     24  C   UNL     1       7.895   7.378  18.031  0.00  0.00    +0.000 C 
ENDBRANCH  22  24
ENDBRANCH  19  22
ENDBRANCH   1  19
TORSDOF 5
ENDMDL
MODEL 5
REMARK VINA RESULT:      -7.6      0.576      1.184
REMARK  Name = 
REMARK  6 active torsions:
REMARK  status: ('A' for Active; 'I' for Inactive)
REMARK    1  A    between atoms: C_1  and  C_2
REMARK    2  A    between atoms: C_2  and  C_3
REMARK    3  A    between atoms: C_3  and  S_4
REMARK    4  A    between atoms: S_4  and  N_7
REMARK    5  A    between atoms: C_11  and  C_12
REMARK    6  A    between atoms: C_14  and  C_15
REMARK                            x       y       z     vdW  Elec       q    Type
REMARK                         _______ _______ _______ _____ _____    ______ ____
ROOT
ATOM      1  N   UNL     1       5.354   5.099  17.706  0.00  0.00    +0.000 NA
ATOM      2  C   UNL     1       5.155   4.092  18.799  0.00  0.00    +0.000 C 
ATOM      3  C   UNL     1       3.671   3.773  18.964  0.00  0.00    +0.000 C 
ATOM      4  C   UNL     1       2.864   5.029  19.267  0.00  0.00    +0.000 C 
ATOM      5  C   UNL     1       3.108   6.110  18.206  0.00  0.00    +0.000 C 
ATOM      6  C   UNL     1       4.608   6.369  18.012  0.00  0.00    +0.000 C 
ENDROOT
BRANCH   5   7
ATOM      7  C   UNL     1       2.421   7.378  18.610  0.00  0.00    +0.000 A 
ATOM      8  N   UNL     1       1.855   7.628  19.772  0.00  0.00    +0.000 NA
ATOM      9  C   UNL     1       1.361   8.907  19.692  0.00  0.00    +0.000 A 
ATOM     10  C   UNL     1       1.622   9.433  18.446  0.00  0.00    +0.000 A 
ATOM     11  N   UNL     1       2.302   8.463  17.775  0.00  0.00    +0.000 N 
ATOM     12  H   UNL     1       2.655   8.523  16.829  0.00  0.00    +0.000 HD
BRANCH   9  13
ATOM     13  C   UNL     1       0.689   9.586  20.781  0.00  0.00    +0.000 A 
ATOM     14  C   UNL     1       0.608   8.999  22.053  0.00  0.00    +0.000 A 
ATOM     15  C   UNL     1      -0.104   9.623  23.077  0.00  0.00    +0.000 A 
ATOM     16  C   UNL     1      -0.733  10.844  22.843  0.00  0.00    +0.000 A 
ATOM     17  C   UNL     1      -0.637  11.450  21.591  0.00  0.00    +0.000 A 
ATOM     18  C   UNL     1       0.070  10.823  20.564  0.00  0.00    +0.000 A 
ENDBRANCH   9  13
ENDBRANCH   5   7
BRANCH   1  19
ATOM     19  S   UNL     1       7.022   5.387  17.361  0.00  0.00    +0.000 S 
ATOM     20  O   UNL     1       7.801   4.844  18.453  0.00  0.00    +0.000 OA
ATOM     21  O   UNL     1       7.163   6.769  16.952  0.00  0.00    +0.000 OA
BRANCH  19  22
ATOM     22  C   UNL     1       7.309   4.342  15.925  0.00  0.00    +0.000 C 
BRANCH  22  24
ATOM     23  C   UNL     1       5.515   4.120  14.139  0.00  0.00    +0.000 C 
ATOM     24  C   UNL     1       6.645   4.967  14.695  0.00  0.00    +0.000 C 
ENDBRANCH  22  24
ENDBRANCH  19  22
ENDBRANCH   1  19
TORSDOF 5
ENDMDL
MODEL 6
REMARK VINA RESULT:      -7.5      2.425      3.771
REMARK  Name = 
REMARK  6 active torsions:
REMARK  status: ('A' for Active; 'I' for Inactive)
REMARK    1  A    between atoms: C_1  and  C_2
REMARK    2  A    between atoms: C_2  and  C_3
REMARK    3  A    between atoms: C_3  and  S_4
REMARK    4  A    between atoms: S_4  and  N_7
REMARK    5  A    between atoms: C_11  and  C_12
REMARK    6  A    between atoms: C_14  and  C_15
REMARK                            x       y       z     vdW  Elec       q    Type
REMARK                         _______ _______ _______ _____ _____    ______ ____
ROOT
ATOM      1  N   UNL     1       4.377   3.869  18.864  0.00  0.00    +0.000 NA
ATOM      2  C   UNL     1       4.480   3.648  17.385  0.00  0.00    +0.000 C 
ATOM      3  C   UNL     1       4.992   4.910  16.694  0.00  0.00    +0.000 C 
ATOM      4  C   UNL     1       4.087   6.102  16.976  0.00  0.00    +0.000 C 
ATOM      5  C   UNL     1       3.899   6.306  18.484  0.00  0.00    +0.000 C 
ATOM      6  C   UNL     1       3.444   5.010  19.168  0.00  0.00    +0.000 C 
ENDROOT
BRANCH   5   7
ATOM      7  C   UNL     1       2.891   7.388  18.725  0.00  0.00    +0.000 A 
ATOM      8  N   UNL     1       2.285   7.655  19.863  0.00  0.00    +0.000 NA
ATOM      9  C   UNL     1       1.456   8.722  19.616  0.00  0.00    +0.000 A 
ATOM     10  C   UNL     1       1.554   9.094  18.293  0.00  0.00    +0.000 A 
ATOM     11  N   UNL     1       2.471   8.251  17.743  0.00  0.00    +0.000 N 
ATOM     12  H   UNL     1       2.787   8.254  16.782  0.00  0.00    +0.000 HD
BRANCH   9  13
ATOM     13  C   UNL     1       0.629   9.357  20.622  0.00  0.00    +0.000 A 
ATOM     14  C   UNL     1      -0.054  10.550  20.341  0.00  0.00    +0.000 A 
ATOM     15  C   UNL     1      -0.787  11.198  21.335  0.00  0.00    +0.000 A 
ATOM     16  C   UNL     1      -0.856  10.652  22.616  0.00  0.00    +0.000 A 
ATOM     17  C   UNL     1      -0.204   9.453  22.899  0.00  0.00    +0.000 A 
ATOM     18  C   UNL     1       0.537   8.808  21.906  0.00  0.00    +0.000 A 
ENDBRANCH   9  13
ENDBRANCH   5   7
BRANCH   1  19
ATOM     19  S   UNL     1       3.954   2.431  19.724  0.00  0.00    +0.000 S 
ATOM     20  O   UNL     1       5.150   1.930  20.367  0.00  0.00    +0.000 OA
ATOM     21  O   UNL     1       3.169   1.595  18.840  0.00  0.00    +0.000 OA
BRANCH  19  22
ATOM     22  C   UNL     1       2.871   3.056  21.018  0.00  0.00    +0.000 C 
BRANCH  22  24
ATOM     23  C   UNL     1       0.525   3.455  20.125  0.00  0.00    +0.000 C 
ATOM     24  C   UNL     1       1.462   2.489  20.826  0.00  0.00    +0.000 C 
ENDBRANCH  22  24
ENDBRANCH  19  22
ENDBRANCH   1  19
TORSDOF 5
ENDMDL
MODEL 7
REMARK VINA RESULT:      -7.5      2.596      3.995
REMARK  Name = 
REMARK  6 active torsions:
REMARK  status: ('A' for Active; 'I' for Inactive)
REMARK    1  A    between atoms: C_1  and  C_2
REMARK    2  A    between atoms: C_2  and  C_3
REMARK    3  A    between atoms: C_3  and  S_4
REMARK    4  A    between atoms: S_4  and  N_7
REMARK    5  A    between atoms: C_11  and  C_12
REMARK    6  A    between atoms: C_14  and  C_15
REMARK                            x       y       z     vdW  Elec       q    Type
REMARK                         _______ _______ _______ _____ _____    ______ ____
ROOT
ATOM      1  N   UNL     1       3.610   3.910  18.088  0.00  0.00    +0.000 NA
ATOM      2  C   UNL     1       4.203   4.155  16.732  0.00  0.00    +0.000 C 
ATOM      3  C   UNL     1       5.035   5.435  16.740  0.00  0.00    +0.000 C 
ATOM      4  C   UNL     1       4.199   6.637  17.161  0.00  0.00    +0.000 C 
ATOM      5  C   UNL     1       3.514   6.386  18.510  0.00  0.00    +0.000 C 
ATOM      6  C   UNL     1       2.735   5.064  18.500  0.00  0.00    +0.000 C 
ENDROOT
BRANCH   5   7
ATOM      7  C   UNL     1       2.586   7.519  18.824  0.00  0.00    +0.000 A 
ATOM      8  N   UNL     1       2.057   7.798  19.997  0.00  0.00    +0.000 NA
ATOM      9  C   UNL     1       1.281   8.916  19.813  0.00  0.00    +0.000 A 
ATOM     10  C   UNL     1       1.332   9.309  18.494  0.00  0.00    +0.000 A 
ATOM     11  N   UNL     1       2.168   8.427  17.881  0.00  0.00    +0.000 N 
ATOM     12  H   UNL     1       2.433   8.431  16.905  0.00  0.00    +0.000 HD
BRANCH   9  13
ATOM     13  C   UNL     1       0.547   9.577  20.873  0.00  0.00    +0.000 A 
ATOM     14  C   UNL     1       0.510   9.036  22.167  0.00  0.00    +0.000 A 
ATOM     15  C   UNL     1      -0.260   9.635  23.164  0.00  0.00    +0.000 A 
ATOM     16  C   UNL     1      -0.989  10.788  22.881  0.00  0.00    +0.000 A 
ATOM     17  C   UNL     1      -0.938  11.351  21.606  0.00  0.00    +0.000 A 
ATOM     18  C   UNL     1      -0.173  10.747  20.606  0.00  0.00    +0.000 A 
ENDBRANCH   9  13
ENDBRANCH   5   7
BRANCH   1  19
ATOM     19  S   UNL     1       2.786   2.395  18.191  0.00  0.00    +0.000 S 
ATOM     20  O   UNL     1       3.709   1.425  18.739  0.00  0.00    +0.000 OA
ATOM     21  O   UNL     1       2.113   2.164  16.929  0.00  0.00    +0.000 OA
BRANCH  19  22
ATOM     22  C   UNL     1       1.536   2.716  19.445  0.00  0.00    +0.000 C 
BRANCH  22  24
ATOM     23  C   UNL     1       2.095   3.551  21.780  0.00  0.00    +0.000 C 
ATOM     24  C   UNL     1       2.096   2.370  20.827  0.00  0.00    +0.000 C 
ENDBRANCH  22  24
ENDBRANCH  19  22
ENDBRANCH   1  19
TORSDOF 5
ENDMDL
MODEL 8
REMARK VINA RESULT:      -7.5      1.735      2.648
REMARK  Name = 
REMARK  6 active torsions:
REMARK  status: ('A' for Active; 'I' for Inactive)
REMARK    1  A    between atoms: C_1  and  C_2
REMARK    2  A    between atoms: C_2  and  C_3
REMARK    3  A    between atoms: C_3  and  S_4
REMARK    4  A    between atoms: S_4  and  N_7
REMARK    5  A    between atoms: C_11  and  C_12
REMARK    6  A    between atoms: C_14  and  C_15
REMARK                            x       y       z     vdW  Elec       q    Type
REMARK                         _______ _______ _______ _____ _____    ______ ____
ROOT
ATOM      1  N   UNL     1       5.422   5.181  17.343  0.00  0.00    +0.000 NA
ATOM      2  C   UNL     1       4.909   3.775  17.419  0.00  0.00    +0.000 C 
ATOM      3  C   UNL     1       3.418   3.734  17.088  0.00  0.00    +0.000 C 
ATOM      4  C   UNL     1       2.617   4.627  18.026  0.00  0.00    +0.000 C 
ATOM      5  C   UNL     1       3.168   6.058  18.030  0.00  0.00    +0.000 C 
ATOM      6  C   UNL     1       4.679   6.070  18.303  0.00  0.00    +0.000 C 
ENDROOT
BRANCH   5   7
ATOM      7  C   UNL     1       2.458   6.870  19.069  0.00  0.00    +0.000 A 
ATOM      8  N   UNL     1       2.039   8.112  18.943  0.00  0.00    +0.000 NA
ATOM      9  C   UNL     1       1.446   8.441  20.136  0.00  0.00    +0.000 A 
ATOM     10  C   UNL     1       1.524   7.376  21.007  0.00  0.00    +0.000 A 
ATOM     11  N   UNL     1       2.155   6.386  20.319  0.00  0.00    +0.000 N 
ATOM     12  H   UNL     1       2.369   5.459  20.663  0.00  0.00    +0.000 HD
BRANCH   9  13
ATOM     13  C   UNL     1       0.818   9.718  20.405  0.00  0.00    +0.000 A 
ATOM     14  C   UNL     1       0.831  10.742  19.445  0.00  0.00    +0.000 A 
ATOM     15  C   UNL     1       0.292  11.994  19.736  0.00  0.00    +0.000 A 
ATOM     16  C   UNL     1      -0.278  12.232  20.985  0.00  0.00    +0.000 A 
ATOM     17  C   UNL     1      -0.322  11.215  21.938  0.00  0.00    +0.000 A 
ATOM     18  C   UNL     1       0.224   9.963  21.649  0.00  0.00    +0.000 A 
ENDBRANCH   9  13
ENDBRANCH   5   7
BRANCH   1  19
ATOM     19  S   UNL     1       7.134   5.279  17.553  0.00  0.00    +0.000 S 
ATOM     20  O   UNL     1       7.753   4.475  16.522  0.00  0.00    +0.000 OA
ATOM     21  O   UNL     1       7.426   5.058  18.955  0.00  0.00    +0.000 OA
BRANCH  19  22
ATOM     22  C   UNL     1       7.476   7.003  17.170  0.00  0.00    +0.000 C 
BRANCH  22  24
ATOM     23  C   UNL     1       8.408   9.152  18.155  0.00  0.00    +0.000 C 
ATOM     24  C   UNL     1       8.128   7.677  18.380  0.00  0.00    +0.000 C 
ENDBRANCH  22  24
ENDBRANCH  19  22
ENDBRANCH   1  19
TORSDOF 5
ENDMDL
MODEL 9
REMARK VINA RESULT:      -7.4      2.171      3.153
REMARK  Name = 
REMARK  6 active torsions:
REMARK  status: ('A' for Active; 'I' for Inactive)
REMARK    1  A    between atoms: C_1  and  C_2
REMARK    2  A    between atoms: C_2  and  C_3
REMARK    3  A    between atoms: C_3  and  S_4
REMARK    4  A    between atoms: S_4  and  N_7
REMARK    5  A    between atoms: C_11  and  C_12
REMARK    6  A    between atoms: C_14  and  C_15
REMARK                            x       y       z     vdW  Elec       q    Type
REMARK                         _______ _______ _______ _____ _____    ______ ____
ROOT
ATOM      1  N   UNL     1       5.222   5.176  17.690  0.00  0.00    +0.000 NA
ATOM      2  C   UNL     1       5.476   4.242  18.835  0.00  0.00    +0.000 C 
ATOM      3  C   UNL     1       4.154   3.752  19.423  0.00  0.00    +0.000 C 
ATOM      4  C   UNL     1       3.289   4.916  19.889  0.00  0.00    +0.000 C 
ATOM      5  C   UNL     1       3.077   5.931  18.759  0.00  0.00    +0.000 C 
ATOM      6  C   UNL     1       4.414   6.362  18.141  0.00  0.00    +0.000 C 
ENDROOT
BRANCH   5   7
ATOM      7  C   UNL     1       2.351   7.130  19.287  0.00  0.00    +0.000 A 
ATOM      8  N   UNL     1       1.922   8.159  18.586  0.00  0.00    +0.000 NA
ATOM      9  C   UNL     1       1.317   9.008  19.480  0.00  0.00    +0.000 A 
ATOM     10  C   UNL     1       1.400   8.485  20.752  0.00  0.00    +0.000 A 
ATOM     11  N   UNL     1       2.045   7.294  20.617  0.00  0.00    +0.000 N 
ATOM     12  H   UNL     1       2.266   6.644  21.359  0.00  0.00    +0.000 HD
BRANCH   9  13
ATOM     13  C   UNL     1       0.675  10.252  19.110  0.00  0.00    +0.000 A 
ATOM     14  C   UNL     1      -0.661  10.271  18.681  0.00  0.00    +0.000 A 
ATOM     15  C   UNL     1      -1.252  11.460  18.254  0.00  0.00    +0.000 A 
ATOM     16  C   UNL     1      -0.517  12.644  18.263  0.00  0.00    +0.000 A 
ATOM     17  C   UNL     1       0.803  12.643  18.712  0.00  0.00    +0.000 A 
ATOM     18  C   UNL     1       1.397  11.451  19.133  0.00  0.00    +0.000 A 
ENDBRANCH   9  13
ENDBRANCH   5   7
BRANCH   1  19
ATOM     19  S   UNL     1       6.674   5.644  16.879  0.00  0.00    +0.000 S 
ATOM     20  O   UNL     1       6.303   6.443  15.731  0.00  0.00    +0.000 OA
ATOM     21  O   UNL     1       7.509   4.469  16.739  0.00  0.00    +0.000 OA
BRANCH  19  22
ATOM     22  C   UNL     1       7.449   6.746  18.072  0.00  0.00    +0.000 C 
BRANCH  22  24
ATOM     23  C   UNL     1       8.430   9.076  18.338  0.00  0.00    +0.000 C 
ATOM     24  C   UNL     1       7.695   8.111  17.425  0.00  0.00    +0.000 C 
ENDBRANCH  22  24
ENDBRANCH  19  22
ENDBRANCH   1  19
TORSDOF 5
ENDMDL
