MODEL 1
REMARK VINA RESULT:      -7.5      0.000      0.000
REMARK  Name = 
REMARK  5 active torsions:
REMARK  status: ('A' for Active; 'I' for Inactive)
REMARK    1  A    between atoms: C_1  and  N_2
REMARK    2  A    between atoms: N_2  and  C_3
REMARK    3  A    between atoms: N_2  and  S_15
REMARK    4  A    between atoms: C_3  and  C_4
REMARK    5  A    between atoms: S_15  and  C_16
REMARK                            x       y       z     vdW  Elec       q    Type
REMARK                         _______ _______ _______ _____ _____    ______ ____
ROOT
ATOM      1  C   UNL     1       3.565   4.991  17.867  0.00  0.00    +0.000 A 
ATOM      2  C   UNL     1       3.497   6.398  17.831  0.00  0.00    +0.000 A 
ATOM      3  C   UNL     1       2.688   7.082  18.726  0.00  0.00    +0.000 A 
ATOM      4  F   UNL     1       2.617   8.418  18.671  0.00  0.00    +0.000 F 
ATOM      5  C   UNL     1       1.955   6.398  19.681  0.00  0.00    +0.000 A 
ATOM      6  C   UNL     1       2.002   5.000  19.724  0.00  0.00    +0.000 A 
ATOM      7  C   UNL     1       1.268   4.302  20.690  0.00  0.00    +0.000 A 
ATOM      8  C   UNL     1       1.290   2.915  20.712  0.00  0.00    +0.000 A 
ATOM      9  C   UNL     1       2.035   2.276  19.749  0.00  0.00    +0.000 A 
ATOM     10  N   UNL     1       2.779   2.917  18.809  0.00  0.00    +0.000 NA
ATOM     11  C   UNL     1       2.790   4.268  18.795  0.00  0.00    +0.000 A 
ENDROOT
BRANCH   1  12
ATOM     12  C   UNL     1       4.465   4.297  16.861  0.00  0.00    +0.000 C 
BRANCH  12  14
ATOM     13  C   UNL     1       6.120   4.949  15.097  0.00  0.00    +0.000 C 
ATOM     14  N   UNL     1       5.759   4.954  16.525  0.00  0.00    +0.000 NA
BRANCH  14  15
ATOM     15  S   UNL     1       7.026   4.847  17.636  0.00  0.00    +0.000 S 
ATOM     16  C   UNL     1       7.427   6.564  17.914  0.00  0.00    +0.000 C 
ATOM     17  O   UNL     1       6.498   4.331  18.885  0.00  0.00    +0.000 OA
ATOM     18  O   UNL     1       8.153   4.219  16.983  0.00  0.00    +0.000 OA
ENDBRANCH  14  15
ENDBRANCH  12  14
ENDBRANCH   1  12
TORSDOF 3
ENDMDL
MODEL 2
REMARK VINA RESULT:      -7.5      1.377      2.117
REMARK  Name = 
REMARK  5 active torsions:
REMARK  status: ('A' for Active; 'I' for Inactive)
REMARK    1  A    between atoms: C_1  and  N_2
REMARK    2  A    between atoms: N_2  and  C_3
REMARK    3  A    between atoms: N_2  and  S_15
REMARK    4  A    between atoms: C_3  and  C_4
REMARK    5  A    between atoms: S_15  and  C_16
REMARK                            x       y       z     vdW  Elec       q    Type
REMARK                         _______ _______ _______ _____ _____    ______ ____
ROOT
ATOM      1  C   UNL     1       3.478   5.558  18.598  0.00  0.00    +0.000 A 
ATOM      2  C   UNL     1       3.028   6.617  19.411  0.00  0.00    +0.000 A 
ATOM      3  C   UNL     1       1.970   6.425  20.287  0.00  0.00    +0.000 A 
ATOM      4  F   UNL     1       1.538   7.444  21.042  0.00  0.00    +0.000 F 
ATOM      5  C   UNL     1       1.357   5.188  20.394  0.00  0.00    +0.000 A 
ATOM      6  C   UNL     1       1.784   4.128  19.585  0.00  0.00    +0.000 A 
ATOM      7  C   UNL     1       1.172   2.874  19.691  0.00  0.00    +0.000 A 
ATOM      8  C   UNL     1       1.574   1.832  18.869  0.00  0.00    +0.000 A 
ATOM      9  C   UNL     1       2.566   2.093  17.953  0.00  0.00    +0.000 A 
ATOM     10  N   UNL     1       3.200   3.289  17.834  0.00  0.00    +0.000 NA
ATOM     11  C   UNL     1       2.839   4.304  18.649  0.00  0.00    +0.000 A 
ENDROOT
BRANCH   1  12
ATOM     12  C   UNL     1       4.638   5.828  17.657  0.00  0.00    +0.000 C 
BRANCH  12  14
ATOM     13  C   UNL     1       6.489   5.442  19.299  0.00  0.00    +0.000 C 
ATOM     14  N   UNL     1       5.940   5.171  17.960  0.00  0.00    +0.000 NA
BRANCH  14  15
ATOM     15  S   UNL     1       7.049   4.968  16.704  0.00  0.00    +0.000 S 
ATOM     16  C   UNL     1       6.115   3.999  15.532  0.00  0.00    +0.000 C 
ATOM     17  O   UNL     1       7.286   6.261  16.088  0.00  0.00    +0.000 OA
ATOM     18  O   UNL     1       8.144   4.159  17.188  0.00  0.00    +0.000 OA
ENDBRANCH  14  15
ENDBRANCH  12  14
ENDBRANCH   1  12
TORSDOF 3
ENDMDL
MODEL 3
REMARK VINA RESULT:      -7.3      1.256      1.911
REMARK  Name = 
REMARK  5 active torsions:
REMARK  status: ('A' for Active; 'I' for Inactive)
REMARK    1  A    between atoms: C_1  and  N_2
REMARK    2  A    between atoms: N_2  and  C_3
REMARK    3  A    between atoms: N_2  and  S_15
REMARK    4  A    between atoms: C_3  and  C_4
REMARK    5  A    between atoms: S_15  and  C_16
REMARK                            x       y       z     vdW  Elec       q    Type
REMARK                         _______ _______ _______ _____ _____    ______ ____
ROOT
ATOM      1  C   UNL     1       3.725   6.067  17.951  0.00  0.00    +0.000 A 
ATOM      2  C   UNL     1       3.121   7.329  18.120  0.00  0.00    +0.000 A 
ATOM      3  C   UNL     1       2.262   7.557  19.184  0.00  0.00    +0.000 A 
ATOM      4  F   UNL     1       1.679   8.754  19.324  0.00  0.00    +0.000 F 
ATOM      5  C   UNL     1       2.004   6.559  20.109  0.00  0.00    +0.000 A 
ATOM      6  C   UNL     1       2.586   5.296  19.950  0.00  0.00    +0.000 A 
ATOM      7  C   UNL     1       2.332   4.284  20.884  0.00  0.00    +0.000 A 
ATOM      8  C   UNL     1       2.884   3.023  20.710  0.00  0.00    +0.000 A 
ATOM      9  C   UNL     1       3.658   2.818  19.592  0.00  0.00    +0.000 A 
ATOM     10  N   UNL     1       3.945   3.779  18.674  0.00  0.00    +0.000 NA
ATOM     11  C   UNL     1       3.438   5.019  18.848  0.00  0.00    +0.000 A 
ENDROOT
BRANCH   1  12
ATOM     12  C   UNL     1       4.653   5.876  16.765  0.00  0.00    +0.000 C 
BRANCH  12  14
ATOM     13  C   UNL     1       6.675   7.229  17.362  0.00  0.00    +0.000 C 
ATOM     14  N   UNL     1       6.120   5.908  17.026  0.00  0.00    +0.000 NA
BRANCH  14  15
ATOM     15  S   UNL     1       7.112   4.859  16.151  0.00  0.00    +0.000 S 
ATOM     16  C   UNL     1       5.949   3.639  15.568  0.00  0.00    +0.000 C 
ATOM     17  O   UNL     1       7.606   5.563  14.982  0.00  0.00    +0.000 OA
ATOM     18  O   UNL     1       8.019   4.214  17.074  0.00  0.00    +0.000 OA
ENDBRANCH  14  15
ENDBRANCH  12  14
ENDBRANCH   1  12
TORSDOF 3
ENDMDL
MODEL 4
REMARK VINA RESULT:      -7.3      1.350      1.841
REMARK  Name = 
REMARK  5 active torsions:
REMARK  status: ('A' for Active; 'I' for Inactive)
REMARK    1  A    between atoms: C_1  and  N_2
REMARK    2  A    between atoms: N_2  and  C_3
REMARK    3  A    between atoms: N_2  and  S_15
REMARK    4  A    between atoms: C_3  and  C_4
REMARK    5  A    between atoms: S_15  and  C_16
REMARK                            x       y       z     vdW  Elec       q    Type
REMARK                         _______ _______ _______ _____ _____    ______ ____
ROOT
ATOM      1  C   UNL     1       3.403   4.860  17.848  0.00  0.00    +0.000 A 
ATOM      2  C   UNL     1       3.366   6.268  17.827  0.00  0.00    +0.000 A 
ATOM      3  C   UNL     1       2.659   6.963  18.797  0.00  0.00    +0.000 A 
ATOM      4  F   UNL     1       2.615   8.301  18.757  0.00  0.00    +0.000 F 
ATOM      5  C   UNL     1       2.001   6.288  19.812  0.00  0.00    +0.000 A 
ATOM      6  C   UNL     1       2.019   4.889  19.841  0.00  0.00    +0.000 A 
ATOM      7  C   UNL     1       1.360   4.200  20.866  0.00  0.00    +0.000 A 
ATOM      8  C   UNL     1       1.351   2.813  20.878  0.00  0.00    +0.000 A 
ATOM      9  C   UNL     1       1.989   2.165  19.847  0.00  0.00    +0.000 A 
ATOM     10  N   UNL     1       2.658   2.797  18.846  0.00  0.00    +0.000 NA
ATOM     11  C   UNL     1       2.700   4.147  18.839  0.00  0.00    +0.000 A 
ENDROOT
BRANCH   1  12
ATOM     12  C   UNL     1       4.190   4.154  16.759  0.00  0.00    +0.000 C 
BRANCH  12  14
ATOM     13  C   UNL     1       6.319   4.557  18.015  0.00  0.00    +0.000 C 
ATOM     14  N   UNL     1       5.661   4.386  16.709  0.00  0.00    +0.000 NA
BRANCH  14  15
ATOM     15  S   UNL     1       6.291   5.263  15.412  0.00  0.00    +0.000 S 
ATOM     16  C   UNL     1       6.269   4.057  14.097  0.00  0.00    +0.000 C 
ATOM     17  O   UNL     1       5.339   6.297  15.051  0.00  0.00    +0.000 OA
ATOM     18  O   UNL     1       7.669   5.585  15.707  0.00  0.00    +0.000 OA
ENDBRANCH  14  15
ENDBRANCH  12  14
ENDBRANCH   1  12
TORSDOF 3
ENDMDL
MODEL 5
REMARK VINA RESULT:      -7.2      1.030      1.166
REMARK  Name = 
REMARK  5 active torsions:
REMARK  status: ('A' for Active; 'I' for Inactive)
REMARK    1  A    between atoms: C_1  and  N_2
REMARK    2  A    between atoms: N_2  and  C_3
REMARK    3  A    between atoms: N_2  and  S_15
REMARK    4  A    between atoms: C_3  and  C_4
REMARK    5  A    between atoms: S_15  and  C_16
REMARK                            x       y       z     vdW  Elec       q    Type
REMARK                         _______ _______ _______ _____ _____    ______ ____
ROOT
ATOM      1  C   UNL     1       4.072   4.863  18.185  0.00  0.00    +0.000 A 
ATOM      2  C   UNL     1       3.760   6.179  17.790  0.00  0.00    +0.000 A 
ATOM      3  C   UNL     1       2.852   6.931  18.519  0.00  0.00    +0.000 A 
ATOM      4  F   UNL     1       2.548   8.174  18.124  0.00  0.00    +0.000 F 
ATOM      5  C   UNL     1       2.257   6.412  19.658  0.00  0.00    +0.000 A 
ATOM      6  C   UNL     1       2.547   5.103  20.058  0.00  0.00    +0.000 A 
ATOM      7  C   UNL     1       1.953   4.574  21.210  0.00  0.00    +0.000 A 
ATOM      8  C   UNL     1       2.217   3.266  21.590  0.00  0.00    +0.000 A 
ATOM      9  C   UNL     1       3.054   2.528  20.787  0.00  0.00    +0.000 A 
ATOM     10  N   UNL     1       3.667   3.011  19.674  0.00  0.00    +0.000 NA
ATOM     11  C   UNL     1       3.443   4.292  19.310  0.00  0.00    +0.000 A 
ENDROOT
BRANCH   1  12
ATOM     12  C   UNL     1       5.071   4.087  17.347  0.00  0.00    +0.000 C 
BRANCH  12  14
ATOM     13  C   UNL     1       5.166   4.402  14.864  0.00  0.00    +0.000 C 
ATOM     14  N   UNL     1       5.688   4.787  16.186  0.00  0.00    +0.000 NA
BRANCH  14  15
ATOM     15  S   UNL     1       7.323   5.199  16.274  0.00  0.00    +0.000 S 
ATOM     16  C   UNL     1       7.275   6.730  17.190  0.00  0.00    +0.000 C 
ATOM     17  O   UNL     1       7.997   4.226  17.114  0.00  0.00    +0.000 OA
ATOM     18  O   UNL     1       7.794   5.486  14.938  0.00  0.00    +0.000 OA
ENDBRANCH  14  15
ENDBRANCH  12  14
ENDBRANCH   1  12
TORSDOF 3
ENDMDL
MODEL 6
REMARK VINA RESULT:      -7.2      1.512      1.983
REMARK  Name = 
REMARK  5 active torsions:
REMARK  status: ('A' for Active; 'I' for Inactive)
REMARK    1  A    between atoms: C_1  and  N_2
REMARK    2  A    between atoms: N_2  and  C_3
REMARK    3  A    between atoms: N_2  and  S_15
REMARK    4  A    between atoms: C_3  and  C_4
REMARK    5  A    between atoms: S_15  and  C_16
REMARK                            x       y       z     vdW  Elec       q    Type
REMARK                         _______ _______ _______ _____ _____    ______ ____
ROOT
ATOM      1  C   UNL     1       3.197   5.650  18.563  0.00  0.00    +0.000 A 
ATOM      2  C   UNL     1       2.833   6.701  19.428  0.00  0.00    +0.000 A 
ATOM      3  C   UNL     1       1.847   6.511  20.384  0.00  0.00    +0.000 A 
ATOM      4  F   UNL     1       1.495   7.522  21.188  0.00  0.00    +0.000 F 
ATOM      5  C   UNL     1       1.223   5.281  20.521  0.00  0.00    +0.000 A 
ATOM      6  C   UNL     1       1.565   4.229  19.663  0.00  0.00    +0.000 A 
ATOM      7  C   UNL     1       0.942   2.983  19.798  0.00  0.00    +0.000 A 
ATOM      8  C   UNL     1       1.258   1.950  18.928  0.00  0.00    +0.000 A 
ATOM      9  C   UNL     1       2.176   2.211  17.939  0.00  0.00    +0.000 A 
ATOM     10  N   UNL     1       2.819   3.400  17.787  0.00  0.00    +0.000 NA
ATOM     11  C   UNL     1       2.542   4.405  18.646  0.00  0.00    +0.000 A 
ENDROOT
BRANCH   1  12
ATOM     12  C   UNL     1       4.280   5.919  17.535  0.00  0.00    +0.000 C 
BRANCH  12  14
ATOM     13  C   UNL     1       6.010   5.208  19.201  0.00  0.00    +0.000 C 
ATOM     14  N   UNL     1       5.628   5.337  17.785  0.00  0.00    +0.000 NA
BRANCH  14  15
ATOM     15  S   UNL     1       6.864   5.674  16.686  0.00  0.00    +0.000 S 
ATOM     16  C   UNL     1       7.603   7.138  17.390  0.00  0.00    +0.000 C 
ATOM     17  O   UNL     1       7.856   4.619  16.772  0.00  0.00    +0.000 OA
ATOM     18  O   UNL     1       6.264   6.035  15.421  0.00  0.00    +0.000 OA
ENDBRANCH  14  15
ENDBRANCH  12  14
ENDBRANCH   1  12
TORSDOF 3
ENDMDL
MODEL 7
REMARK VINA RESULT:      -7.2      2.305      3.360
REMARK  Name = 
REMARK  5 active torsions:
REMARK  status: ('A' for Active; 'I' for Inactive)
REMARK    1  A    between atoms: C_1  and  N_2
REMARK    2  A    between atoms: N_2  and  C_3
REMARK    3  A    between atoms: N_2  and  S_15
REMARK    4  A    between atoms: C_3  and  C_4
REMARK    5  A    between atoms: S_15  and  C_16
REMARK                            x       y       z     vdW  Elec       q    Type
REMARK                         _______ _______ _______ _____ _____    ______ ____
ROOT
ATOM      1  C   UNL     1       3.843   4.286  17.710  0.00  0.00    +0.000 A 
ATOM      2  C   UNL     1       4.005   2.888  17.650  0.00  0.00    +0.000 A 
ATOM      3  C   UNL     1       3.402   2.073  18.596  0.00  0.00    +0.000 A 
ATOM      4  F   UNL     1       3.579   0.747  18.541  0.00  0.00    +0.000 F 
ATOM      5  C   UNL     1       2.614   2.616  19.598  0.00  0.00    +0.000 A 
ATOM      6  C   UNL     1       2.451   4.004  19.678  0.00  0.00    +0.000 A 
ATOM      7  C   UNL     1       1.653   4.559  20.685  0.00  0.00    +0.000 A 
ATOM      8  C   UNL     1       1.516   5.936  20.784  0.00  0.00    +0.000 A 
ATOM      9  C   UNL     1       2.204   6.709  19.878  0.00  0.00    +0.000 A 
ATOM     10  N   UNL     1       2.972   6.208  18.874  0.00  0.00    +0.000 NA
ATOM     11  C   UNL     1       3.089   4.868  18.748  0.00  0.00    +0.000 A 
ENDROOT
BRANCH   1  12
ATOM     12  C   UNL     1       4.529   5.127  16.649  0.00  0.00    +0.000 C 
BRANCH  12  14
ATOM     13  C   UNL     1       6.081   7.001  17.244  0.00  0.00    +0.000 C 
ATOM     14  N   UNL     1       5.924   5.574  16.919  0.00  0.00    +0.000 NA
BRANCH  14  15
ATOM     15  S   UNL     1       7.181   4.841  16.063  0.00  0.00    +0.000 S 
ATOM     16  C   UNL     1       6.310   3.643  15.068  0.00  0.00    +0.000 C 
ATOM     17  O   UNL     1       7.745   5.818  15.149  0.00  0.00    +0.000 OA
ATOM     18  O   UNL     1       8.017   4.127  17.002  0.00  0.00    +0.000 OA
ENDBRANCH  14  15
ENDBRANCH  12  14
ENDBRANCH   1  12
TORSDOF 3
ENDMDL
MODEL 8
REMARK VINA RESULT:      -7.1      1.373      1.662
REMARK  Name = 
REMARK  5 active torsions:
REMARK  status: ('A' for Active; 'I' for Inactive)
REMARK    1  A    between atoms: C_1  and  N_2
REMARK    2  A    between atoms: N_2  and  C_3
REMARK    3  A    between atoms: N_2  and  S_15
REMARK    4  A    between atoms: C_3  and  C_4
REMARK    5  A    between atoms: S_15  and  C_16
REMARK                            x       y       z     vdW  Elec       q    Type
REMARK                         _______ _______ _______ _____ _____    ______ ____
ROOT
ATOM      1  C   UNL     1       3.362   5.142  18.118  0.00  0.00    +0.000 A 
ATOM      2  C   UNL     1       3.201   6.529  18.298  0.00  0.00    +0.000 A 
ATOM      3  C   UNL     1       2.418   7.014  19.335  0.00  0.00    +0.000 A 
ATOM      4  F   UNL     1       2.256   8.335  19.485  0.00  0.00    +0.000 F 
ATOM      5  C   UNL     1       1.803   6.145  20.221  0.00  0.00    +0.000 A 
ATOM      6  C   UNL     1       1.944   4.763  20.051  0.00  0.00    +0.000 A 
ATOM      7  C   UNL     1       1.330   3.880  20.946  0.00  0.00    +0.000 A 
ATOM      8  C   UNL     1       1.443   2.510  20.759  0.00  0.00    +0.000 A 
ATOM      9  C   UNL     1       2.155   2.075  19.666  0.00  0.00    +0.000 A 
ATOM     10  N   UNL     1       2.784   2.899  18.787  0.00  0.00    +0.000 NA
ATOM     11  C   UNL     1       2.706   4.235  18.974  0.00  0.00    +0.000 A 
ENDROOT
BRANCH   1  12
ATOM     12  C   UNL     1       4.228   4.670  16.964  0.00  0.00    +0.000 C 
BRANCH  12  14
ATOM     13  C   UNL     1       6.255   4.598  18.434  0.00  0.00    +0.000 C 
ATOM     14  N   UNL     1       5.702   4.844  17.092  0.00  0.00    +0.000 NA
BRANCH  14  15
ATOM     15  S   UNL     1       6.454   6.034  16.160  0.00  0.00    +0.000 S 
ATOM     16  C   UNL     1       7.211   7.064  17.404  0.00  0.00    +0.000 C 
ATOM     17  O   UNL     1       7.533   5.416  15.410  0.00  0.00    +0.000 OA
ATOM     18  O   UNL     1       5.429   6.807  15.495  0.00  0.00    +0.000 OA
ENDBRANCH  14  15
ENDBRANCH  12  14
ENDBRANCH   1  12
TORSDOF 3
ENDMDL
MODEL 9
REMARK VINA RESULT:      -7.1      1.315      1.728
REMARK  Name = 
REMARK  5 active torsions:
REMARK  status: ('A' for Active; 'I' for Inactive)
REMARK    1  A    between atoms: C_1  and  N_2
REMARK    2  A    between atoms: N_2  and  C_3
REMARK    3  A    between atoms: N_2  and  S_15
REMARK    4  A    between atoms: C_3  and  C_4
REMARK    5  A    between atoms: S_15  and  C_16
REMARK                            x       y       z     vdW  Elec       q    Type
REMARK                         _______ _______ _______ _____ _____    ______ ____
ROOT
ATOM      1  C   UNL     1       4.190   5.297  19.144  0.00  0.00    +0.000 A 
ATOM      2  C   UNL     1       3.649   6.574  18.902  0.00  0.00    +0.000 A 
ATOM      3  C   UNL     1       2.417   6.924  19.433  0.00  0.00    +0.000 A 
ATOM      4  F   UNL     1       1.903   8.135  19.180  0.00  0.00    +0.000 F 
ATOM      5  C   UNL     1       1.712   6.036  20.228  0.00  0.00    +0.000 A 
ATOM      6  C   UNL     1       2.230   4.758  20.470  0.00  0.00    +0.000 A 
ATOM      7  C   UNL     1       1.525   3.856  21.276  0.00  0.00    +0.000 A 
ATOM      8  C   UNL     1       2.023   2.580  21.491  0.00  0.00    +0.000 A 
ATOM      9  C   UNL     1       3.204   2.246  20.871  0.00  0.00    +0.000 A 
ATOM     10  N   UNL     1       3.929   3.099  20.100  0.00  0.00    +0.000 NA
ATOM     11  C   UNL     1       3.470   4.355  19.907  0.00  0.00    +0.000 A 
ENDROOT
BRANCH   1  12
ATOM     12  C   UNL     1       5.541   4.969  18.535  0.00  0.00    +0.000 C 
BRANCH  12  14
ATOM     13  C   UNL     1       4.688   4.020  16.379  0.00  0.00    +0.000 C 
ATOM     14  N   UNL     1       5.635   4.927  17.048  0.00  0.00    +0.000 NA
BRANCH  14  15
ATOM     15  S   UNL     1       7.153   5.112  16.334  0.00  0.00    +0.000 S 
ATOM     16  C   UNL     1       6.856   4.551  14.667  0.00  0.00    +0.000 C 
ATOM     17  O   UNL     1       7.453   6.530  16.254  0.00  0.00    +0.000 OA
ATOM     18  O   UNL     1       8.069   4.189  16.966  0.00  0.00    +0.000 OA
ENDBRANCH  14  15
ENDBRANCH  12  14
ENDBRANCH   1  12
TORSDOF 3
ENDMDL
