MODEL 1
REMARK VINA RESULT:      -7.4      0.000      0.000
REMARK  Name = 
REMARK  5 active torsions:
REMARK  status: ('A' for Active; 'I' for Inactive)
REMARK    1  A    between atoms: C_1  and  C_2
REMARK    2  A    between atoms: N_15  and  C_16
REMARK    3  A    between atoms: C_17  and  C_18
REMARK    4  A    between atoms: C_18  and  C_19
REMARK    5  A    between atoms: N_28  and  C_29
REMARK                            x       y       z     vdW  Elec       q    Type
REMARK                         _______ _______ _______ _____ _____    ______ ____
ROOT
ATOM      1  C   UNL     1       7.218  14.097  17.937  0.00  0.00    +0.000 C 
ATOM      2  C   UNL     1       6.251  15.179  18.240  0.00  0.00    +0.000 A 
ATOM      3  C   UNL     1       4.885  15.129  18.343  0.00  0.00    +0.000 A 
ATOM      4  C   UNL     1       4.470  16.462  18.554  0.00  0.00    +0.000 A 
ATOM      5  N   UNL     1       3.188  16.856  18.603  0.00  0.00    +0.000 N 
ATOM      6  C   UNL     1       2.005  16.135  18.744  0.00  0.00    +0.000 A 
ATOM      7  N   UNL     1       0.879  16.854  18.566  0.00  0.00    +0.000 NA
ATOM      8  C   UNL     1      -0.279  16.318  18.977  0.00  0.00    +0.000 A 
ATOM      9  C   UNL     1      -0.333  15.120  19.628  0.00  0.00    +0.000 A 
ATOM     10  C   UNL     1       0.838  14.374  19.608  0.00  0.00    +0.000 A 
ATOM     11  N   UNL     1       2.010  14.856  19.167  0.00  0.00    +0.000 NA
ATOM     12  C   UNL     1       0.856  13.170  20.438  0.00  0.00    +0.000 A 
ATOM     13  C   UNL     1       0.072  13.161  21.630  0.00  0.00    +0.000 A 
ATOM     14  N   UNL     1      -0.079  11.944  22.148  0.00  0.00    +0.000 NA
ATOM     15  N   UNL     1       0.433  11.149  21.177  0.00  0.00    +0.000 N 
ATOM     16  C   UNL     1       0.275   9.723  21.345  0.00  0.00    +0.000 C 
ATOM     17  C   UNL     1       0.673  11.857  20.011  0.00  0.00    +0.000 A 
ATOM     18  C   UNL     1      -0.872  14.294  21.904  0.00  0.00    +0.000 C 
ATOM     19  C   UNL     1      -1.475  14.701  20.523  0.00  0.00    +0.000 C 
ATOM     20  N   UNL     1       5.510  17.286  18.624  0.00  0.00    +0.000 NA
ATOM     21  N   UNL     1       6.582  16.489  18.451  0.00  0.00    +0.000 N 
ATOM     22  C   UNL     1       7.907  17.064  18.442  0.00  0.00    +0.000 C 
ATOM     23  H   UNL     1       2.994  17.846  18.628  0.00  0.00    +0.000 HD
ENDROOT
BRANCH  17  24
ATOM     24  C   UNL     1       0.344  11.325  18.652  0.00  0.00    +0.000 C 
BRANCH  24  25
ATOM     25  C   UNL     1      -1.087  10.969  18.356  0.00  0.00    +0.000 A 
ATOM     26  C   UNL     1      -2.121  11.792  18.837  0.00  0.00    +0.000 A 
ATOM     27  C   UNL     1      -3.439  11.592  18.424  0.00  0.00    +0.000 A 
ATOM     28  C   UNL     1      -3.738  10.571  17.524  0.00  0.00    +0.000 A 
ATOM     29  C   UNL     1      -2.723   9.740  17.053  0.00  0.00    +0.000 A 
ATOM     30  C   UNL     1      -1.403   9.934  17.468  0.00  0.00    +0.000 A 
ENDBRANCH  24  25
ENDBRANCH  17  24
TORSDOF 2
ENDMDL
MODEL 2
REMARK VINA RESULT:      -7.4      5.857      9.859
REMARK  Name = 
REMARK  5 active torsions:
REMARK  status: ('A' for Active; 'I' for Inactive)
REMARK    1  A    between atoms: C_1  and  C_2
REMARK    2  A    between atoms: N_15  and  C_16
REMARK    3  A    between atoms: C_17  and  C_18
REMARK    4  A    between atoms: C_18  and  C_19
REMARK    5  A    between atoms: N_28  and  C_29
REMARK                            x       y       z     vdW  Elec       q    Type
REMARK                         _______ _______ _______ _____ _____    ______ ____
ROOT
ATOM      1  C   UNL     1       5.632  13.925  24.548  0.00  0.00    +0.000 C 
ATOM      2  C   UNL     1       6.658  12.946  24.116  0.00  0.00    +0.000 A 
ATOM      3  C   UNL     1       7.272  12.801  22.899  0.00  0.00    +0.000 A 
ATOM      4  C   UNL     1       8.089  11.656  23.018  0.00  0.00    +0.000 A 
ATOM      5  N   UNL     1       8.781  11.111  22.006  0.00  0.00    +0.000 N 
ATOM      6  C   UNL     1       9.117  11.604  20.748  0.00  0.00    +0.000 A 
ATOM      7  N   UNL     1       9.671  10.699  19.915  0.00  0.00    +0.000 NA
ATOM      8  C   UNL     1      10.290  11.155  18.817  0.00  0.00    +0.000 A 
ATOM      9  C   UNL     1      10.439  12.488  18.568  0.00  0.00    +0.000 A 
ATOM     10  C   UNL     1       9.689  13.335  19.375  0.00  0.00    +0.000 A 
ATOM     11  N   UNL     1       9.019  12.916  20.459  0.00  0.00    +0.000 NA
ATOM     12  C   UNL     1       9.957  14.766  19.240  0.00  0.00    +0.000 A 
ATOM     13  C   UNL     1      11.275  15.175  18.876  0.00  0.00    +0.000 A 
ATOM     14  N   UNL     1      11.342  16.448  18.494  0.00  0.00    +0.000 NA
ATOM     15  N   UNL     1      10.035  16.798  18.417  0.00  0.00    +0.000 N 
ATOM     16  C   UNL     1       9.734  18.096  17.860  0.00  0.00    +0.000 C 
ATOM     17  C   UNL     1       9.204  15.695  18.526  0.00  0.00    +0.000 A 
ATOM     18  C   UNL     1      12.285  14.141  18.473  0.00  0.00    +0.000 C 
ATOM     19  C   UNL     1      11.502  13.061  17.662  0.00  0.00    +0.000 C 
ATOM     20  N   UNL     1       8.024  11.142  24.243  0.00  0.00    +0.000 NA
ATOM     21  N   UNL     1       7.168  11.949  24.900  0.00  0.00    +0.000 N 
ATOM     22  C   UNL     1       6.835  11.668  26.277  0.00  0.00    +0.000 C 
ATOM     23  H   UNL     1       9.231  10.221  22.159  0.00  0.00    +0.000 HD
ENDROOT
BRANCH  17  24
ATOM     24  C   UNL     1       7.997  15.495  17.664  0.00  0.00    +0.000 C 
BRANCH  24  25
ATOM     25  C   UNL     1       6.644  15.514  18.322  0.00  0.00    +0.000 A 
ATOM     26  C   UNL     1       5.614  14.702  17.814  0.00  0.00    +0.000 A 
ATOM     27  C   UNL     1       4.413  14.558  18.511  0.00  0.00    +0.000 A 
ATOM     28  C   UNL     1       4.230  15.221  19.723  0.00  0.00    +0.000 A 
ATOM     29  C   UNL     1       5.240  16.039  20.228  0.00  0.00    +0.000 A 
ATOM     30  C   UNL     1       6.440  16.189  19.531  0.00  0.00    +0.000 A 
ENDBRANCH  24  25
ENDBRANCH  17  24
TORSDOF 2
ENDMDL
MODEL 3
REMARK VINA RESULT:      -7.2      8.773     11.074
REMARK  Name = 
REMARK  5 active torsions:
REMARK  status: ('A' for Active; 'I' for Inactive)
REMARK    1  A    between atoms: C_1  and  C_2
REMARK    2  A    between atoms: N_15  and  C_16
REMARK    3  A    between atoms: C_17  and  C_18
REMARK    4  A    between atoms: C_18  and  C_19
REMARK    5  A    between atoms: N_28  and  C_29
REMARK                            x       y       z     vdW  Elec       q    Type
REMARK                         _______ _______ _______ _____ _____    ______ ____
ROOT
ATOM      1  C   UNL     1       4.188   2.546  11.052  0.00  0.00    +0.000 C 
ATOM      2  C   UNL     1       5.324   3.027  11.873  0.00  0.00    +0.000 A 
ATOM      3  C   UNL     1       5.319   3.681  13.077  0.00  0.00    +0.000 A 
ATOM      4  C   UNL     1       6.671   3.983  13.353  0.00  0.00    +0.000 A 
ATOM      5  N   UNL     1       7.084   4.717  14.398  0.00  0.00    +0.000 N 
ATOM      6  C   UNL     1       6.433   5.114  15.562  0.00  0.00    +0.000 A 
ATOM      7  N   UNL     1       7.108   6.008  16.312  0.00  0.00    +0.000 NA
ATOM      8  C   UNL     1       6.698   6.207  17.572  0.00  0.00    +0.000 A 
ATOM      9  C   UNL     1       5.684   5.482  18.128  0.00  0.00    +0.000 A 
ATOM     10  C   UNL     1       4.936   4.720  17.240  0.00  0.00    +0.000 A 
ATOM     11  N   UNL     1       5.286   4.529  15.958  0.00  0.00    +0.000 NA
ATOM     12  C   UNL     1       3.956   3.809  17.830  0.00  0.00    +0.000 A 
ATOM     13  C   UNL     1       4.234   3.262  19.118  0.00  0.00    +0.000 A 
ATOM     14  N   UNL     1       3.171   2.697  19.687  0.00  0.00    +0.000 NA
ATOM     15  N   UNL     1       2.167   3.061  18.854  0.00  0.00    +0.000 N 
ATOM     16  C   UNL     1       0.820   2.746  19.272  0.00  0.00    +0.000 C 
ATOM     17  C   UNL     1       2.583   4.014  17.938  0.00  0.00    +0.000 A 
ATOM     18  C   UNL     1       5.414   3.764  19.897  0.00  0.00    +0.000 C 
ATOM     19  C   UNL     1       5.499   5.298  19.615  0.00  0.00    +0.000 C 
ATOM     20  N   UNL     1       7.474   3.511  12.405  0.00  0.00    +0.000 NA
ATOM     21  N   UNL     1       6.642   2.918  11.526  0.00  0.00    +0.000 N 
ATOM     22  C   UNL     1       7.180   2.308  10.333  0.00  0.00    +0.000 C 
ATOM     23  H   UNL     1       8.056   4.986  14.437  0.00  0.00    +0.000 HD
ENDROOT
BRANCH  17  24
ATOM     24  C   UNL     1       1.756   5.205  17.568  0.00  0.00    +0.000 C 
BRANCH  24  25
ATOM     25  C   UNL     1       1.916   6.460  18.382  0.00  0.00    +0.000 A 
ATOM     26  C   UNL     1       1.925   7.709  17.736  0.00  0.00    +0.000 A 
ATOM     27  C   UNL     1       1.884   8.892  18.476  0.00  0.00    +0.000 A 
ATOM     28  C   UNL     1       1.829   8.840  19.868  0.00  0.00    +0.000 A 
ATOM     29  C   UNL     1       1.834   7.606  20.518  0.00  0.00    +0.000 A 
ATOM     30  C   UNL     1       1.880   6.421  19.781  0.00  0.00    +0.000 A 
ENDBRANCH  24  25
ENDBRANCH  17  24
TORSDOF 2
ENDMDL
MODEL 4
REMARK VINA RESULT:      -7.1      4.069      9.530
REMARK  Name = 
REMARK  5 active torsions:
REMARK  status: ('A' for Active; 'I' for Inactive)
REMARK    1  A    between atoms: C_1  and  C_2
REMARK    2  A    between atoms: N_15  and  C_16
REMARK    3  A    between atoms: C_17  and  C_18
REMARK    4  A    between atoms: C_18  and  C_19
REMARK    5  A    between atoms: N_28  and  C_29
REMARK                            x       y       z     vdW  Elec       q    Type
REMARK                         _______ _______ _______ _____ _____    ______ ____
ROOT
ATOM      1  C   UNL     1       3.205  13.753  20.305  0.00  0.00    +0.000 C 
ATOM      2  C   UNL     1       3.771  14.985  19.705  0.00  0.00    +0.000 A 
ATOM      3  C   UNL     1       5.071  15.420  19.662  0.00  0.00    +0.000 A 
ATOM      4  C   UNL     1       5.026  16.694  19.056  0.00  0.00    +0.000 A 
ATOM      5  N   UNL     1       6.087  17.506  18.922  0.00  0.00    +0.000 N 
ATOM      6  C   UNL     1       7.453  17.267  19.046  0.00  0.00    +0.000 A 
ATOM      7  N   UNL     1       8.225  18.372  19.021  0.00  0.00    +0.000 NA
ATOM      8  C   UNL     1       9.542  18.212  18.831  0.00  0.00    +0.000 A 
ATOM      9  C   UNL     1      10.097  16.990  18.588  0.00  0.00    +0.000 A 
ATOM     10  C   UNL     1       9.265  15.900  18.808  0.00  0.00    +0.000 A 
ATOM     11  N   UNL     1       7.949  16.015  19.044  0.00  0.00    +0.000 NA
ATOM     12  C   UNL     1       9.780  14.595  18.396  0.00  0.00    +0.000 A 
ATOM     13  C   UNL     1      10.678  14.544  17.288  0.00  0.00    +0.000 A 
ATOM     14  N   UNL     1      11.311  13.378  17.181  0.00  0.00    +0.000 NA
ATOM     15  N   UNL     1      10.974  12.756  18.336  0.00  0.00    +0.000 N 
ATOM     16  C   UNL     1      11.636  11.505  18.627  0.00  0.00    +0.000 C 
ATOM     17  C   UNL     1      10.342  13.620  19.216  0.00  0.00    +0.000 A 
ATOM     18  C   UNL     1      11.202  15.821  16.700  0.00  0.00    +0.000 C 
ATOM     19  C   UNL     1      11.427  16.792  17.901  0.00  0.00    +0.000 C 
ATOM     20  N   UNL     1       3.786  17.018  18.704  0.00  0.00    +0.000 NA
ATOM     21  N   UNL     1       3.042  15.963  19.087  0.00  0.00    +0.000 N 
ATOM     22  C   UNL     1       1.613  15.982  18.880  0.00  0.00    +0.000 C 
ATOM     23  H   UNL     1       5.929  18.447  18.595  0.00  0.00    +0.000 HD
ENDROOT
BRANCH  17  24
ATOM     24  C   UNL     1      10.641  13.653  20.682  0.00  0.00    +0.000 C 
BRANCH  24  25
ATOM     25  C   UNL     1       9.508  13.411  21.642  0.00  0.00    +0.000 A 
ATOM     26  C   UNL     1       8.982  12.115  21.784  0.00  0.00    +0.000 A 
ATOM     27  C   UNL     1       8.064  11.827  22.796  0.00  0.00    +0.000 A 
ATOM     28  C   UNL     1       7.665  12.830  23.677  0.00  0.00    +0.000 A 
ATOM     29  C   UNL     1       8.169  14.122  23.536  0.00  0.00    +0.000 A 
ATOM     30  C   UNL     1       9.084  14.414  22.522  0.00  0.00    +0.000 A 
ENDBRANCH  24  25
ENDBRANCH  17  24
TORSDOF 2
ENDMDL
MODEL 5
REMARK VINA RESULT:      -6.9      4.455      6.462
REMARK  Name = 
REMARK  5 active torsions:
REMARK  status: ('A' for Active; 'I' for Inactive)
REMARK    1  A    between atoms: C_1  and  C_2
REMARK    2  A    between atoms: N_15  and  C_16
REMARK    3  A    between atoms: C_17  and  C_18
REMARK    4  A    between atoms: C_18  and  C_19
REMARK    5  A    between atoms: N_28  and  C_29
REMARK                            x       y       z     vdW  Elec       q    Type
REMARK                         _______ _______ _______ _____ _____    ______ ____
ROOT
ATOM      1  C   UNL     1      -1.563   9.807  17.177  0.00  0.00    +0.000 C 
ATOM      2  C   UNL     1      -0.789  10.396  18.296  0.00  0.00    +0.000 A 
ATOM      3  C   UNL     1      -1.161  11.342  19.214  0.00  0.00    +0.000 A 
ATOM      4  C   UNL     1      -0.007  11.598  19.987  0.00  0.00    +0.000 A 
ATOM      5  N   UNL     1       0.076  12.547  20.933  0.00  0.00    +0.000 N 
ATOM      6  C   UNL     1      -0.906  13.287  21.585  0.00  0.00    +0.000 A 
ATOM      7  N   UNL     1      -0.440  14.291  22.355  0.00  0.00    +0.000 NA
ATOM      8  C   UNL     1      -1.281  14.847  23.238  0.00  0.00    +0.000 A 
ATOM      9  C   UNL     1      -2.548  14.378  23.427  0.00  0.00    +0.000 A 
ATOM     10  C   UNL     1      -2.999  13.470  22.477  0.00  0.00    +0.000 A 
ATOM     11  N   UNL     1      -2.202  12.920  21.548  0.00  0.00    +0.000 NA
ATOM     12  C   UNL     1      -4.284  12.828  22.750  0.00  0.00    +0.000 A 
ATOM     13  C   UNL     1      -4.660  12.620  24.111  0.00  0.00    +0.000 A 
ATOM     14  N   UNL     1      -5.946  12.311  24.258  0.00  0.00    +0.000 NA
ATOM     15  N   UNL     1      -6.440  12.522  23.014  0.00  0.00    +0.000 N 
ATOM     16  C   UNL     1      -7.873  12.437  22.853  0.00  0.00    +0.000 C 
ATOM     17  C   UNL     1      -5.519  13.162  22.201  0.00  0.00    +0.000 A 
ATOM     18  C   UNL     1      -3.826  13.215  25.207  0.00  0.00    +0.000 C 
ATOM     19  C   UNL     1      -3.351  14.608  24.685  0.00  0.00    +0.000 C 
ATOM     20  N   UNL     1       1.009  10.830  19.606  0.00  0.00    +0.000 NA
ATOM     21  N   UNL     1       0.511  10.094  18.593  0.00  0.00    +0.000 N 
ATOM     22  C   UNL     1       1.363   9.150  17.909  0.00  0.00    +0.000 C 
ATOM     23  H   UNL     1       0.980  12.738  21.339  0.00  0.00    +0.000 HD
ENDROOT
BRANCH  17  24
ATOM     24  C   UNL     1      -5.889  14.276  21.271  0.00  0.00    +0.000 C 
BRANCH  24  25
ATOM     25  C   UNL     1      -6.209  13.931  19.842  0.00  0.00    +0.000 A 
ATOM     26  C   UNL     1      -6.857  14.876  19.028  0.00  0.00    +0.000 A 
ATOM     27  C   UNL     1      -6.998  14.656  17.657  0.00  0.00    +0.000 A 
ATOM     28  C   UNL     1      -6.489  13.492  17.084  0.00  0.00    +0.000 A 
ATOM     29  C   UNL     1      -5.857  12.541  17.885  0.00  0.00    +0.000 A 
ATOM     30  C   UNL     1      -5.719  12.756  19.258  0.00  0.00    +0.000 A 
ENDBRANCH  24  25
ENDBRANCH  17  24
TORSDOF 2
ENDMDL
MODEL 6
REMARK VINA RESULT:      -6.9      3.976      8.328
REMARK  Name = 
REMARK  5 active torsions:
REMARK  status: ('A' for Active; 'I' for Inactive)
REMARK    1  A    between atoms: C_1  and  C_2
REMARK    2  A    between atoms: N_15  and  C_16
REMARK    3  A    between atoms: C_17  and  C_18
REMARK    4  A    between atoms: C_18  and  C_19
REMARK    5  A    between atoms: N_28  and  C_29
REMARK                            x       y       z     vdW  Elec       q    Type
REMARK                         _______ _______ _______ _____ _____    ______ ____
ROOT
ATOM      1  C   UNL     1      -4.393  14.021  24.219  0.00  0.00    +0.000 C 
ATOM      2  C   UNL     1      -5.145  13.335  23.141  0.00  0.00    +0.000 A 
ATOM      3  C   UNL     1      -4.802  13.125  21.831  0.00  0.00    +0.000 A 
ATOM      4  C   UNL     1      -5.924  12.507  21.237  0.00  0.00    +0.000 A 
ATOM      5  N   UNL     1      -6.031  12.230  19.928  0.00  0.00    +0.000 N 
ATOM      6  C   UNL     1      -5.079  12.190  18.913  0.00  0.00    +0.000 A 
ATOM      7  N   UNL     1      -5.583  12.051  17.670  0.00  0.00    +0.000 NA
ATOM      8  C   UNL     1      -4.741  11.705  16.687  0.00  0.00    +0.000 A 
ATOM      9  C   UNL     1      -3.428  11.417  16.924  0.00  0.00    +0.000 A 
ATOM     10  C   UNL     1      -2.959  11.757  18.187  0.00  0.00    +0.000 A 
ATOM     11  N   UNL     1      -3.761  12.150  19.188  0.00  0.00    +0.000 NA
ATOM     12  C   UNL     1      -1.608  11.308  18.521  0.00  0.00    +0.000 A 
ATOM     13  C   UNL     1      -1.133  10.100  17.928  0.00  0.00    +0.000 A 
ATOM     14  N   UNL     1       0.182   9.937  18.054  0.00  0.00    +0.000 NA
ATOM     15  N   UNL     1       0.578  11.136  18.545  0.00  0.00    +0.000 N 
ATOM     16  C   UNL     1       2.001  11.366  18.649  0.00  0.00    +0.000 C 
ATOM     17  C   UNL     1      -0.443  12.070  18.497  0.00  0.00    +0.000 A 
ATOM     18  C   UNL     1      -1.946   9.429  16.860  0.00  0.00    +0.000 C 
ATOM     19  C   UNL     1      -2.572  10.577  16.006  0.00  0.00    +0.000 C 
ATOM     20  N   UNL     1      -6.890  12.303  22.127  0.00  0.00    +0.000 NA
ATOM     21  N   UNL     1      -6.393  12.794  23.279  0.00  0.00    +0.000 N 
ATOM     22  C   UNL     1      -7.200  12.762  24.476  0.00  0.00    +0.000 C 
ATOM     23  H   UNL     1      -6.921  11.907  19.580  0.00  0.00    +0.000 HD
ENDROOT
BRANCH  17  24
ATOM     24  C   UNL     1      -0.231  13.489  18.068  0.00  0.00    +0.000 C 
BRANCH  24  25
ATOM     25  C   UNL     1      -0.480  14.579  19.073  0.00  0.00    +0.000 A 
ATOM     26  C   UNL     1      -0.269  15.921  18.710  0.00  0.00    +0.000 A 
ATOM     27  C   UNL     1      -0.667  16.958  19.554  0.00  0.00    +0.000 A 
ATOM     28  C   UNL     1      -1.284  16.666  20.769  0.00  0.00    +0.000 A 
ATOM     29  C   UNL     1      -1.485  15.339  21.146  0.00  0.00    +0.000 A 
ATOM     30  C   UNL     1      -1.084  14.299  20.305  0.00  0.00    +0.000 A 
ENDBRANCH  24  25
ENDBRANCH  17  24
TORSDOF 2
ENDMDL
MODEL 7
REMARK VINA RESULT:      -6.8      5.777      8.476
REMARK  Name = 
REMARK  5 active torsions:
REMARK  status: ('A' for Active; 'I' for Inactive)
REMARK    1  A    between atoms: C_1  and  C_2
REMARK    2  A    between atoms: N_15  and  C_16
REMARK    3  A    between atoms: C_17  and  C_18
REMARK    4  A    between atoms: C_18  and  C_19
REMARK    5  A    between atoms: N_28  and  C_29
REMARK                            x       y       z     vdW  Elec       q    Type
REMARK                         _______ _______ _______ _____ _____    ______ ____
ROOT
ATOM      1  C   UNL     1      -1.258  11.814  17.440  0.00  0.00    +0.000 C 
ATOM      2  C   UNL     1      -2.711  11.551  17.572  0.00  0.00    +0.000 A 
ATOM      3  C   UNL     1      -3.536  11.722  18.653  0.00  0.00    +0.000 A 
ATOM      4  C   UNL     1      -4.796  11.227  18.253  0.00  0.00    +0.000 A 
ATOM      5  N   UNL     1      -5.859  11.117  19.065  0.00  0.00    +0.000 N 
ATOM      6  C   UNL     1      -6.123  11.662  20.318  0.00  0.00    +0.000 A 
ATOM      7  N   UNL     1      -7.229  11.184  20.922  0.00  0.00    +0.000 NA
ATOM      8  C   UNL     1      -7.713  11.862  21.972  0.00  0.00    +0.000 A 
ATOM      9  C   UNL     1      -7.170  13.043  22.386  0.00  0.00    +0.000 A 
ATOM     10  C   UNL     1      -5.939  13.365  21.827  0.00  0.00    +0.000 A 
ATOM     11  N   UNL     1      -5.397  12.688  20.803  0.00  0.00    +0.000 NA
ATOM     12  C   UNL     1      -5.418  14.698  22.126  0.00  0.00    +0.000 A 
ATOM     13  C   UNL     1      -6.353  15.753  22.349  0.00  0.00    +0.000 A 
ATOM     14  N   UNL     1      -5.802  16.834  22.896  0.00  0.00    +0.000 NA
ATOM     15  N   UNL     1      -4.558  16.398  23.212  0.00  0.00    +0.000 N 
ATOM     16  C   UNL     1      -3.727  17.290  23.987  0.00  0.00    +0.000 C 
ATOM     17  C   UNL     1      -4.447  15.025  23.068  0.00  0.00    +0.000 A 
ATOM     18  C   UNL     1      -7.816  15.437  22.448  0.00  0.00    +0.000 C 
ATOM     19  C   UNL     1      -7.916  14.072  23.201  0.00  0.00    +0.000 C 
ATOM     20  N   UNL     1      -4.773  10.812  16.989  0.00  0.00    +0.000 NA
ATOM     21  N   UNL     1      -3.506  11.035  16.587  0.00  0.00    +0.000 N 
ATOM     22  C   UNL     1      -3.108  10.672  15.248  0.00  0.00    +0.000 C 
ATOM     23  H   UNL     1      -6.674  10.632  18.721  0.00  0.00    +0.000 HD
ENDROOT
BRANCH  17  24
ATOM     24  C   UNL     1      -3.737  14.156  24.059  0.00  0.00    +0.000 C 
BRANCH  24  25
ATOM     25  C   UNL     1      -2.561  13.349  23.581  0.00  0.00    +0.000 A 
ATOM     26  C   UNL     1      -2.647  11.945  23.557  0.00  0.00    +0.000 A 
ATOM     27  C   UNL     1      -1.649  11.183  22.947  0.00  0.00    +0.000 A 
ATOM     28  C   UNL     1      -0.558  11.814  22.353  0.00  0.00    +0.000 A 
ATOM     29  C   UNL     1      -0.456  13.204  22.385  0.00  0.00    +0.000 A 
ATOM     30  C   UNL     1      -1.450  13.970  22.998  0.00  0.00    +0.000 A 
ENDBRANCH  24  25
ENDBRANCH  17  24
TORSDOF 2
ENDMDL
MODEL 8
REMARK VINA RESULT:      -6.8      4.779      9.594
REMARK  Name = 
REMARK  5 active torsions:
REMARK  status: ('A' for Active; 'I' for Inactive)
REMARK    1  A    between atoms: C_1  and  C_2
REMARK    2  A    between atoms: N_15  and  C_16
REMARK    3  A    between atoms: C_17  and  C_18
REMARK    4  A    between atoms: C_18  and  C_19
REMARK    5  A    between atoms: N_28  and  C_29
REMARK                            x       y       z     vdW  Elec       q    Type
REMARK                         _______ _______ _______ _____ _____    ______ ____
ROOT
ATOM      1  C   UNL     1       2.842  17.124  16.794  0.00  0.00    +0.000 C 
ATOM      2  C   UNL     1       3.075  16.734  18.205  0.00  0.00    +0.000 A 
ATOM      3  C   UNL     1       4.170  16.144  18.780  0.00  0.00    +0.000 A 
ATOM      4  C   UNL     1       3.816  15.914  20.128  0.00  0.00    +0.000 A 
ATOM      5  N   UNL     1       4.582  15.252  21.009  0.00  0.00    +0.000 N 
ATOM      6  C   UNL     1       5.926  14.889  20.974  0.00  0.00    +0.000 A 
ATOM      7  N   UNL     1       6.315  14.064  21.967  0.00  0.00    +0.000 NA
ATOM      8  C   UNL     1       7.630  13.914  22.178  0.00  0.00    +0.000 A 
ATOM      9  C   UNL     1       8.563  14.623  21.479  0.00  0.00    +0.000 A 
ATOM     10  C   UNL     1       8.086  15.306  20.367  0.00  0.00    +0.000 A 
ATOM     11  N   UNL     1       6.780  15.445  20.093  0.00  0.00    +0.000 NA
ATOM     12  C   UNL     1       9.029  16.205  19.702  0.00  0.00    +0.000 A 
ATOM     13  C   UNL     1      10.039  16.829  20.494  0.00  0.00    +0.000 A 
ATOM     14  N   UNL     1      11.009  17.378  19.767  0.00  0.00    +0.000 NA
ATOM     15  N   UNL     1      10.729  16.928  18.520  0.00  0.00    +0.000 N 
ATOM     16  C   UNL     1      11.700  17.208  17.487  0.00  0.00    +0.000 C 
ATOM     17  C   UNL     1       9.750  15.948  18.539  0.00  0.00    +0.000 A 
ATOM     18  C   UNL     1      10.216  16.417  21.926  0.00  0.00    +0.000 C 
ATOM     19  C   UNL     1       9.968  14.876  21.969  0.00  0.00    +0.000 C 
ATOM     20  N   UNL     1       2.595  16.370  20.390  0.00  0.00    +0.000 NA
ATOM     21  N   UNL     1       2.169  16.881  19.219  0.00  0.00    +0.000 N 
ATOM     22  C   UNL     1       0.845  17.450  19.126  0.00  0.00    +0.000 C 
ATOM     23  H   UNL     1       4.187  15.027  21.910  0.00  0.00    +0.000 HD
ENDROOT
BRANCH  17  24
ATOM     24  C   UNL     1       9.825  14.706  17.708  0.00  0.00    +0.000 C 
BRANCH  24  25
ATOM     25  C   UNL     1      10.235  13.425  18.382  0.00  0.00    +0.000 A 
ATOM     26  C   UNL     1      11.455  13.366  19.078  0.00  0.00    +0.000 A 
ATOM     27  C   UNL     1      11.772  12.257  19.865  0.00  0.00    +0.000 A 
ATOM     28  C   UNL     1      10.872  11.198  19.967  0.00  0.00    +0.000 A 
ATOM     29  C   UNL     1       9.666  11.240  19.269  0.00  0.00    +0.000 A 
ATOM     30  C   UNL     1       9.348  12.345  18.478  0.00  0.00    +0.000 A 
ENDBRANCH  24  25
ENDBRANCH  17  24
TORSDOF 2
ENDMDL
MODEL 9
REMARK VINA RESULT:      -6.8      5.401      8.151
REMARK  Name = 
REMARK  5 active torsions:
REMARK  status: ('A' for Active; 'I' for Inactive)
REMARK    1  A    between atoms: C_1  and  C_2
REMARK    2  A    between atoms: N_15  and  C_16
REMARK    3  A    between atoms: C_17  and  C_18
REMARK    4  A    between atoms: C_18  and  C_19
REMARK    5  A    between atoms: N_28  and  C_29
REMARK                            x       y       z     vdW  Elec       q    Type
REMARK                         _______ _______ _______ _____ _____    ______ ____
ROOT
ATOM      1  C   UNL     1       0.722  10.730  19.734  0.00  0.00    +0.000 C 
ATOM      2  C   UNL     1       0.052  10.668  21.055  0.00  0.00    +0.000 A 
ATOM      3  C   UNL     1      -1.059  11.332  21.505  0.00  0.00    +0.000 A 
ATOM      4  C   UNL     1      -1.197  10.969  22.862  0.00  0.00    +0.000 A 
ATOM      5  N   UNL     1      -2.110  11.491  23.697  0.00  0.00    +0.000 N 
ATOM      6  C   UNL     1      -3.260  12.238  23.456  0.00  0.00    +0.000 A 
ATOM      7  N   UNL     1      -3.842  12.752  24.558  0.00  0.00    +0.000 NA
ATOM      8  C   UNL     1      -5.094  13.216  24.447  0.00  0.00    +0.000 A 
ATOM      9  C   UNL     1      -5.807  13.110  23.288  0.00  0.00    +0.000 A 
ATOM     10  C   UNL     1      -5.077  12.736  22.168  0.00  0.00    +0.000 A 
ATOM     11  N   UNL     1      -3.807  12.305  22.227  0.00  0.00    +0.000 NA
ATOM     12  C   UNL     1      -5.845  12.453  20.956  0.00  0.00    +0.000 A 
ATOM     13  C   UNL     1      -7.168  11.938  21.101  0.00  0.00    +0.000 A 
ATOM     14  N   UNL     1      -7.878  11.995  19.976  0.00  0.00    +0.000 NA
ATOM     15  N   UNL     1      -7.081  12.733  19.166  0.00  0.00    +0.000 N 
ATOM     16  C   UNL     1      -7.631  13.134  17.892  0.00  0.00    +0.000 C 
ATOM     17  C   UNL     1      -6.026  13.298  19.864  0.00  0.00    +0.000 A 
ATOM     18  C   UNL     1      -7.791  11.870  22.464  0.00  0.00    +0.000 C 
ATOM     19  C   UNL     1      -7.315  13.149  23.223  0.00  0.00    +0.000 C 
ATOM     20  N   UNL     1      -0.259  10.100  23.227  0.00  0.00    +0.000 NA
ATOM     21  N   UNL     1       0.477   9.914  22.114  0.00  0.00    +0.000 N 
ATOM     22  C   UNL     1       1.621   9.034  22.152  0.00  0.00    +0.000 C 
ATOM     23  H   UNL     1      -2.045  11.264  24.678  0.00  0.00    +0.000 HD
ENDROOT
BRANCH  17  24
ATOM     24  C   UNL     1      -5.572  14.708  19.654  0.00  0.00    +0.000 C 
BRANCH  24  25
ATOM     25  C   UNL     1      -6.051  15.759  20.617  0.00  0.00    +0.000 A 
ATOM     26  C   UNL     1      -7.429  16.017  20.734  0.00  0.00    +0.000 A 
ATOM     27  C   UNL     1      -7.913  16.848  21.746  0.00  0.00    +0.000 A 
ATOM     28  C   UNL     1      -7.027  17.427  22.653  0.00  0.00    +0.000 A 
ATOM     29  C   UNL     1      -5.658  17.189  22.537  0.00  0.00    +0.000 A 
ATOM     30  C   UNL     1      -5.170  16.362  21.523  0.00  0.00    +0.000 A 
ENDBRANCH  24  25
ENDBRANCH  17  24
TORSDOF 2
ENDMDL
