MODEL 1
REMARK VINA RESULT:      -6.4      0.000      0.000
REMARK  Name = 
REMARK  15 active torsions:
REMARK  status: ('A' for Active; 'I' for Inactive)
REMARK    1  A    between atoms: N_10  and  C_11
REMARK    2  A    between atoms: C_11  and  C_12
REMARK    3  A    between atoms: C_12  and  N_13
REMARK    4  A    between atoms: N_13  and  C_14
REMARK    5  A    between atoms: N_13  and  C_20
REMARK    6  A    between atoms: C_14  and  C_15
REMARK    7  A    between atoms: C_15  and  P_16
REMARK    8  A    between atoms: P_16  and  O_18
REMARK    9  A    between atoms: P_16  and  O_19
REMARK   10  A    between atoms: C_20  and  O_21
REMARK   11  A    between atoms: O_21  and  C_22
REMARK   12  A    between atoms: C_22  and  C_23
REMARK   13  A    between atoms: C_23  and  P_24
REMARK   14  A    between atoms: P_24  and  O_26
REMARK   15  A    between atoms: P_24  and  O_27
REMARK                            x       y       z     vdW  Elec       q    Type
REMARK                         _______ _______ _______ _____ _____    ______ ____
ROOT
ATOM      1  N   UNL     1       3.871   5.153  17.603  0.00  0.00    +0.000 NA
ENDROOT
BRANCH   1   2
ATOM      2  C   UNL     1       3.328   6.541  17.602  0.00  0.00    +0.000 C 
BRANCH   2   3
ATOM      3  C   UNL     1       2.782   6.983  18.970  0.00  0.00    +0.000 C 
BRANCH   3  13
ATOM      4  O   UNL     1       0.058  12.048  20.428  0.00  0.00    +0.000 OA
ATOM      5  C   UNL     1       0.392  10.884  20.635  0.00  0.00    +0.000 A 
ATOM      6  N   UNL     1       0.290  10.302  21.883  0.00  0.00    +0.000 N 
ATOM      7  C   UNL     1       0.718   9.021  22.172  0.00  0.00    +0.000 A 
ATOM      8  N   UNL     1       1.261   8.205  21.316  0.00  0.00    +0.000 NA
ATOM      9  C   UNL     1       1.348   8.730  20.074  0.00  0.00    +0.000 A 
ATOM     10  C   UNL     1       0.955   9.981  19.647  0.00  0.00    +0.000 A 
ATOM     11  N   UNL     1       1.241  10.174  18.320  0.00  0.00    +0.000 NA
ATOM     12  C   UNL     1       1.833   9.055  17.947  0.00  0.00    +0.000 A 
ATOM     13  N   UNL     1       1.923   8.151  18.978  0.00  0.00    +0.000 N 
ATOM     14  H   UNL     1      -0.083  10.896  22.609  0.00  0.00    +0.000 HD
ENDBRANCH   3  13
ENDBRANCH   2   3
ENDBRANCH   1   2
BRANCH   1  15
ATOM     15  C   UNL     1       2.767   4.159  17.549  0.00  0.00    +0.000 C 
BRANCH  15  16
ATOM     16  C   UNL     1       3.245   2.727  17.726  0.00  0.00    +0.000 C 
BRANCH  16  17
ATOM     17  P   UNL     1       3.854   2.346  19.409  0.00  0.00    +0.000 P 
ATOM     18  O   UNL     1       3.954   0.854  19.093  0.00  0.00    +0.000 OA
BRANCH  17  19
ATOM     19  O   UNL     1       5.316   2.998  19.073  0.00  0.00    +0.000 OA
ATOM     20  H   UNL     1       5.502   3.064  18.117  0.00  0.00    +0.000 HD
ENDBRANCH  17  19
BRANCH  17  21
ATOM     21  O   UNL     1       4.431   1.986  21.000  0.00  0.00    +0.000 OA
ATOM     22  H   UNL     1       4.232   1.028  21.096  0.00  0.00    +0.000 HD
ENDBRANCH  17  21
ENDBRANCH  16  17
ENDBRANCH  15  16
ENDBRANCH   1  15
BRANCH   1  23
ATOM     23  C   UNL     1       4.722   4.971  16.412  0.00  0.00    +0.000 C 
BRANCH  23  24
ATOM     24  O   UNL     1       5.970   4.336  16.694  0.00  0.00    +0.000 OA
BRANCH  24  25
ATOM     25  C   UNL     1       7.023   5.270  16.425  0.00  0.00    +0.000 C 
BRANCH  25  26
ATOM     26  C   UNL     1       7.020   6.383  17.448  0.00  0.00    +0.000 C 
BRANCH  26  27
ATOM     27  P   UNL     1       7.684   5.807  19.053  0.00  0.00    +0.000 P 
ATOM     28  O   UNL     1       6.285   5.666  19.650  0.00  0.00    +0.000 OA
BRANCH  27  29
ATOM     29  O   UNL     1       8.072   4.357  18.415  0.00  0.00    +0.000 OA
ATOM     30  H   UNL     1       8.722   4.399  17.687  0.00  0.00    +0.000 HD
ENDBRANCH  27  29
BRANCH  27  31
ATOM     31  O   UNL     1       8.311   5.261  20.571  0.00  0.00    +0.000 OA
ATOM     32  H   UNL     1       8.276   6.073  21.125  0.00  0.00    +0.000 HD
ENDBRANCH  27  31
ENDBRANCH  26  27
ENDBRANCH  25  26
ENDBRANCH  24  25
ENDBRANCH  23  24
ENDBRANCH   1  23
TORSDOF 15
ENDMDL
MODEL 2
REMARK VINA RESULT:      -6.2      1.883      4.121
REMARK  Name = 
REMARK  15 active torsions:
REMARK  status: ('A' for Active; 'I' for Inactive)
REMARK    1  A    between atoms: N_10  and  C_11
REMARK    2  A    between atoms: C_11  and  C_12
REMARK    3  A    between atoms: C_12  and  N_13
REMARK    4  A    between atoms: N_13  and  C_14
REMARK    5  A    between atoms: N_13  and  C_20
REMARK    6  A    between atoms: C_14  and  C_15
REMARK    7  A    between atoms: C_15  and  P_16
REMARK    8  A    between atoms: P_16  and  O_18
REMARK    9  A    between atoms: P_16  and  O_19
REMARK   10  A    between atoms: C_20  and  O_21
REMARK   11  A    between atoms: O_21  and  C_22
REMARK   12  A    between atoms: C_22  and  C_23
REMARK   13  A    between atoms: C_23  and  P_24
REMARK   14  A    between atoms: P_24  and  O_26
REMARK   15  A    between atoms: P_24  and  O_27
REMARK                            x       y       z     vdW  Elec       q    Type
REMARK                         _______ _______ _______ _____ _____    ______ ____
ROOT
ATOM      1  N   UNL     1       3.252   5.466  17.479  0.00  0.00    +0.000 NA
ENDROOT
BRANCH   1   2
ATOM      2  C   UNL     1       2.270   5.910  18.510  0.00  0.00    +0.000 C 
BRANCH   2   3
ATOM      3  C   UNL     1       2.718   7.167  19.275  0.00  0.00    +0.000 C 
BRANCH   3  13
ATOM      4  O   UNL     1      -0.166  12.220  20.436  0.00  0.00    +0.000 OA
ATOM      5  C   UNL     1       0.181  11.071  20.698  0.00  0.00    +0.000 A 
ATOM      6  N   UNL     1       0.037  10.531  21.961  0.00  0.00    +0.000 N 
ATOM      7  C   UNL     1       0.477   9.270  22.313  0.00  0.00    +0.000 A 
ATOM      8  N   UNL     1       1.072   8.436  21.509  0.00  0.00    +0.000 NA
ATOM      9  C   UNL     1       1.203   8.920  20.255  0.00  0.00    +0.000 A 
ATOM     10  C   UNL     1       0.804  10.147  19.767  0.00  0.00    +0.000 A 
ATOM     11  N   UNL     1       1.143  10.299  18.448  0.00  0.00    +0.000 NA
ATOM     12  C   UNL     1       1.773   9.181  18.140  0.00  0.00    +0.000 A 
ATOM     13  N   UNL     1       1.836   8.316  19.206  0.00  0.00    +0.000 N 
ATOM     14  H   UNL     1      -0.379  11.142  22.648  0.00  0.00    +0.000 HD
ENDBRANCH   3  13
ENDBRANCH   2   3
ENDBRANCH   1   2
BRANCH   1  15
ATOM     15  C   UNL     1       4.594   6.044  17.752  0.00  0.00    +0.000 C 
BRANCH  15  16
ATOM     16  C   UNL     1       5.709   5.013  17.701  0.00  0.00    +0.000 C 
BRANCH  16  17
ATOM     17  P   UNL     1       6.785   5.149  16.227  0.00  0.00    +0.000 P 
ATOM     18  O   UNL     1       7.166   6.588  16.570  0.00  0.00    +0.000 OA
BRANCH  17  19
ATOM     19  O   UNL     1       7.916   4.186  16.911  0.00  0.00    +0.000 OA
ATOM     20  H   UNL     1       7.664   3.243  16.931  0.00  0.00    +0.000 HD
ENDBRANCH  17  19
BRANCH  17  21
ATOM     21  O   UNL     1       7.802   5.277  14.833  0.00  0.00    +0.000 OA
ATOM     22  H   UNL     1       8.255   6.138  14.967  0.00  0.00    +0.000 HD
ENDBRANCH  17  21
ENDBRANCH  16  17
ENDBRANCH  15  16
ENDBRANCH   1  15
BRANCH   1  23
ATOM     23  C   UNL     1       3.359   3.996  17.523  0.00  0.00    +0.000 C 
BRANCH  23  24
ATOM     24  O   UNL     1       2.118   3.326  17.297  0.00  0.00    +0.000 OA
BRANCH  24  25
ATOM     25  C   UNL     1       2.055   2.186  18.162  0.00  0.00    +0.000 C 
BRANCH  25  26
ATOM     26  C   UNL     1       2.913   2.400  19.388  0.00  0.00    +0.000 C 
BRANCH  26  27
ATOM     27  P   UNL     1       1.887   2.528  20.898  0.00  0.00    +0.000 P 
ATOM     28  O   UNL     1       2.548   3.843  21.309  0.00  0.00    +0.000 OA
BRANCH  27  29
ATOM     29  O   UNL     1       0.572   2.918  20.016  0.00  0.00    +0.000 OA
ATOM     30  H   UNL     1      -0.071   2.191  19.910  0.00  0.00    +0.000 HD
ENDBRANCH  27  29
BRANCH  27  31
ATOM     31  O   UNL     1       0.916   2.650  22.325  0.00  0.00    +0.000 OA
ATOM     32  H   UNL     1       0.481   3.525  22.218  0.00  0.00    +0.000 HD
ENDBRANCH  27  31
ENDBRANCH  26  27
ENDBRANCH  25  26
ENDBRANCH  24  25
ENDBRANCH  23  24
ENDBRANCH   1  23
TORSDOF 15
ENDMDL
MODEL 3
REMARK VINA RESULT:      -6.1      1.222      3.604
REMARK  Name = 
REMARK  15 active torsions:
REMARK  status: ('A' for Active; 'I' for Inactive)
REMARK    1  A    between atoms: N_10  and  C_11
REMARK    2  A    between atoms: C_11  and  C_12
REMARK    3  A    between atoms: C_12  and  N_13
REMARK    4  A    between atoms: N_13  and  C_14
REMARK    5  A    between atoms: N_13  and  C_20
REMARK    6  A    between atoms: C_14  and  C_15
REMARK    7  A    between atoms: C_15  and  P_16
REMARK    8  A    between atoms: P_16  and  O_18
REMARK    9  A    between atoms: P_16  and  O_19
REMARK   10  A    between atoms: C_20  and  O_21
REMARK   11  A    between atoms: O_21  and  C_22
REMARK   12  A    between atoms: C_22  and  C_23
REMARK   13  A    between atoms: C_23  and  P_24
REMARK   14  A    between atoms: P_24  and  O_26
REMARK   15  A    between atoms: P_24  and  O_27
REMARK                            x       y       z     vdW  Elec       q    Type
REMARK                         _______ _______ _______ _____ _____    ______ ____
ROOT
ATOM      1  N   UNL     1       4.311   5.611  16.912  0.00  0.00    +0.000 NA
ENDROOT
BRANCH   1   2
ATOM      2  C   UNL     1       4.108   6.857  17.705  0.00  0.00    +0.000 C 
BRANCH   2   3
ATOM      3  C   UNL     1       2.876   6.801  18.624  0.00  0.00    +0.000 C 
BRANCH   3  13
ATOM      4  O   UNL     1       0.370  11.917  20.281  0.00  0.00    +0.000 OA
ATOM      5  C   UNL     1       0.669  10.737  20.450  0.00  0.00    +0.000 A 
ATOM      6  N   UNL     1       0.582  10.128  21.687  0.00  0.00    +0.000 N 
ATOM      7  C   UNL     1       0.974   8.827  21.933  0.00  0.00    +0.000 A 
ATOM      8  N   UNL     1       1.464   8.014  21.041  0.00  0.00    +0.000 NA
ATOM      9  C   UNL     1       1.535   8.566  19.811  0.00  0.00    +0.000 A 
ATOM     10  C   UNL     1       1.173   9.841  19.424  0.00  0.00    +0.000 A 
ATOM     11  N   UNL     1       1.428  10.056  18.095  0.00  0.00    +0.000 NA
ATOM     12  C   UNL     1       1.971   8.928  17.678  0.00  0.00    +0.000 A 
ATOM     13  N   UNL     1       2.058   7.996  18.685  0.00  0.00    +0.000 N 
ATOM     14  H   UNL     1       0.250  10.717  22.437  0.00  0.00    +0.000 HD
ENDBRANCH   3  13
ENDBRANCH   2   3
ENDBRANCH   1   2
BRANCH   1  15
ATOM     15  C   UNL     1       5.666   5.050  17.155  0.00  0.00    +0.000 C 
BRANCH  15  16
ATOM     16  C   UNL     1       6.677   6.100  17.585  0.00  0.00    +0.000 C 
BRANCH  16  17
ATOM     17  P   UNL     1       7.563   5.692  19.134  0.00  0.00    +0.000 P 
ATOM     18  O   UNL     1       6.283   5.178  19.793  0.00  0.00    +0.000 OA
BRANCH  17  19
ATOM     19  O   UNL     1       8.283   4.402  18.432  0.00  0.00    +0.000 OA
ATOM     20  H   UNL     1       9.105   4.124  18.879  0.00  0.00    +0.000 HD
ENDBRANCH  17  19
BRANCH  17  21
ATOM     21  O   UNL     1       8.400   5.306  20.598  0.00  0.00    +0.000 OA
ATOM     22  H   UNL     1       9.324   5.165  20.295  0.00  0.00    +0.000 HD
ENDBRANCH  17  21
ENDBRANCH  16  17
ENDBRANCH  15  16
ENDBRANCH   1  15
BRANCH   1  23
ATOM     23  C   UNL     1       3.310   4.612  17.328  0.00  0.00    +0.000 C 
BRANCH  23  24
ATOM     24  O   UNL     1       3.884   3.387  17.789  0.00  0.00    +0.000 OA
BRANCH  24  25
ATOM     25  C   UNL     1       2.821   2.498  18.152  0.00  0.00    +0.000 C 
BRANCH  25  26
ATOM     26  C   UNL     1       1.736   3.243  18.895  0.00  0.00    +0.000 C 
BRANCH  26  27
ATOM     27  P   UNL     1       2.114   3.350  20.683  0.00  0.00    +0.000 P 
ATOM     28  O   UNL     1       1.022   2.341  21.036  0.00  0.00    +0.000 OA
BRANCH  27  29
ATOM     29  O   UNL     1       3.492   2.501  20.480  0.00  0.00    +0.000 OA
ATOM     30  H   UNL     1       4.118   2.567  21.226  0.00  0.00    +0.000 HD
ENDBRANCH  27  29
BRANCH  27  31
ATOM     31  O   UNL     1       2.472   3.450  22.373  0.00  0.00    +0.000 OA
ATOM     32  H   UNL     1       2.985   2.627  22.535  0.00  0.00    +0.000 HD
ENDBRANCH  27  31
ENDBRANCH  26  27
ENDBRANCH  25  26
ENDBRANCH  24  25
ENDBRANCH  23  24
ENDBRANCH   1  23
TORSDOF 15
ENDMDL
MODEL 4
REMARK VINA RESULT:      -6.1      2.673      6.950
REMARK  Name = 
REMARK  15 active torsions:
REMARK  status: ('A' for Active; 'I' for Inactive)
REMARK    1  A    between atoms: N_10  and  C_11
REMARK    2  A    between atoms: C_11  and  C_12
REMARK    3  A    between atoms: C_12  and  N_13
REMARK    4  A    between atoms: N_13  and  C_14
REMARK    5  A    between atoms: N_13  and  C_20
REMARK    6  A    between atoms: C_14  and  C_15
REMARK    7  A    between atoms: C_15  and  P_16
REMARK    8  A    between atoms: P_16  and  O_18
REMARK    9  A    between atoms: P_16  and  O_19
REMARK   10  A    between atoms: C_20  and  O_21
REMARK   11  A    between atoms: O_21  and  C_22
REMARK   12  A    between atoms: C_22  and  C_23
REMARK   13  A    between atoms: C_23  and  P_24
REMARK   14  A    between atoms: P_24  and  O_26
REMARK   15  A    between atoms: P_24  and  O_27
REMARK                            x       y       z     vdW  Elec       q    Type
REMARK                         _______ _______ _______ _____ _____    ______ ____
ROOT
ATOM      1  N   UNL     1       2.288   6.808  19.958  0.00  0.00    +0.000 NA
ENDROOT
BRANCH   1   2
ATOM      2  C   UNL     1       2.442   6.573  18.494  0.00  0.00    +0.000 C 
BRANCH   2   3
ATOM      3  C   UNL     1       3.388   7.577  17.813  0.00  0.00    +0.000 C 
BRANCH   3  13
ATOM      4  O   UNL     1       7.899   4.049  16.262  0.00  0.00    +0.000 OA
ATOM      5  C   UNL     1       7.234   4.685  17.077  0.00  0.00    +0.000 A 
ATOM      6  N   UNL     1       7.367   4.497  18.439  0.00  0.00    +0.000 N 
ATOM      7  C   UNL     1       6.592   5.140  19.383  0.00  0.00    +0.000 A 
ATOM      8  N   UNL     1       5.651   6.000  19.117  0.00  0.00    +0.000 NA
ATOM      9  C   UNL     1       5.513   6.232  17.793  0.00  0.00    +0.000 A 
ATOM     10  C   UNL     1       6.220   5.671  16.749  0.00  0.00    +0.000 A 
ATOM     11  N   UNL     1       5.771   6.123  15.536  0.00  0.00    +0.000 NA
ATOM     12  C   UNL     1       4.773   6.933  15.837  0.00  0.00    +0.000 A 
ATOM     13  N   UNL     1       4.578   7.028  17.194  0.00  0.00    +0.000 N 
ATOM     14  H   UNL     1       8.052   3.808  18.716  0.00  0.00    +0.000 HD
ENDBRANCH   3  13
ENDBRANCH   2   3
ENDBRANCH   1   2
BRANCH   1  15
ATOM     15  C   UNL     1       1.638   8.122  20.212  0.00  0.00    +0.000 C 
BRANCH  15  16
ATOM     16  C   UNL     1       1.443   8.414  21.690  0.00  0.00    +0.000 C 
BRANCH  16  17
ATOM     17  P   UNL     1       0.209   9.720  22.036  0.00  0.00    +0.000 P 
ATOM     18  O   UNL     1       0.489   9.663  23.538  0.00  0.00    +0.000 OA
BRANCH  17  19
ATOM     19  O   UNL     1       1.191  10.871  21.417  0.00  0.00    +0.000 OA
ATOM     20  H   UNL     1       0.972  11.118  20.498  0.00  0.00    +0.000 HD
ENDBRANCH  17  19
BRANCH  17  21
ATOM     21  O   UNL     1      -0.958  10.955  22.363  0.00  0.00    +0.000 OA
ATOM     22  H   UNL     1      -0.700  11.674  21.745  0.00  0.00    +0.000 HD
ENDBRANCH  17  21
ENDBRANCH  16  17
ENDBRANCH  15  16
ENDBRANCH   1  15
BRANCH   1  23
ATOM     23  C   UNL     1       1.434   5.748  20.525  0.00  0.00    +0.000 C 
BRANCH  23  24
ATOM     24  O   UNL     1       2.050   4.459  20.526  0.00  0.00    +0.000 OA
BRANCH  24  25
ATOM     25  C   UNL     1       1.079   3.493  20.107  0.00  0.00    +0.000 C 
BRANCH  25  26
ATOM     26  C   UNL     1       1.684   2.527  19.114  0.00  0.00    +0.000 C 
BRANCH  26  27
ATOM     27  P   UNL     1       3.497   2.404  19.335  0.00  0.00    +0.000 P 
ATOM     28  O   UNL     1       3.550   1.044  18.639  0.00  0.00    +0.000 OA
BRANCH  27  29
ATOM     29  O   UNL     1       3.751   3.532  18.184  0.00  0.00    +0.000 OA
ATOM     30  H   UNL     1       4.393   4.223  18.434  0.00  0.00    +0.000 HD
ENDBRANCH  27  29
BRANCH  27  31
ATOM     31  O   UNL     1       5.211   2.287  19.542  0.00  0.00    +0.000 OA
ATOM     32  H   UNL     1       5.300   2.091  20.502  0.00  0.00    +0.000 HD
ENDBRANCH  27  31
ENDBRANCH  26  27
ENDBRANCH  25  26
ENDBRANCH  24  25
ENDBRANCH  23  24
ENDBRANCH   1  23
TORSDOF 15
ENDMDL
MODEL 5
REMARK VINA RESULT:      -6.0      1.950      2.711
REMARK  Name = 
REMARK  15 active torsions:
REMARK  status: ('A' for Active; 'I' for Inactive)
REMARK    1  A    between atoms: N_10  and  C_11
REMARK    2  A    between atoms: C_11  and  C_12
REMARK    3  A    between atoms: C_12  and  N_13
REMARK    4  A    between atoms: N_13  and  C_14
REMARK    5  A    between atoms: N_13  and  C_20
REMARK    6  A    between atoms: C_14  and  C_15
REMARK    7  A    between atoms: C_15  and  P_16
REMARK    8  A    between atoms: P_16  and  O_18
REMARK    9  A    between atoms: P_16  and  O_19
REMARK   10  A    between atoms: C_20  and  O_21
REMARK   11  A    between atoms: O_21  and  C_22
REMARK   12  A    between atoms: C_22  and  C_23
REMARK   13  A    between atoms: C_23  and  P_24
REMARK   14  A    between atoms: P_24  and  O_26
REMARK   15  A    between atoms: P_24  and  O_27
REMARK                            x       y       z     vdW  Elec       q    Type
REMARK                         _______ _______ _______ _____ _____    ______ ____
ROOT
ATOM      1  N   UNL     1       3.221   6.060  19.430  0.00  0.00    +0.000 NA
ENDROOT
BRANCH   1   2
ATOM      2  C   UNL     1       2.328   7.224  19.165  0.00  0.00    +0.000 C 
BRANCH   2   3
ATOM      3  C   UNL     1       1.686   7.801  20.438  0.00  0.00    +0.000 C 
BRANCH   3  13
ATOM      4  O   UNL     1      -0.837  13.093  21.345  0.00  0.00    +0.000 OA
ATOM      5  C   UNL     1      -0.638  11.913  21.620  0.00  0.00    +0.000 A 
ATOM      6  N   UNL     1      -0.998  11.371  22.839  0.00  0.00    +0.000 N 
ATOM      7  C   UNL     1      -0.729  10.069  23.212  0.00  0.00    +0.000 A 
ATOM      8  N   UNL     1      -0.114   9.193  22.472  0.00  0.00    +0.000 NA
ATOM      9  C   UNL     1       0.227   9.678  21.258  0.00  0.00    +0.000 A 
ATOM     10  C   UNL     1       0.014  10.945  20.755  0.00  0.00    +0.000 A 
ATOM     11  N   UNL     1       0.536  11.082  19.495  0.00  0.00    +0.000 NA
ATOM     12  C   UNL     1       1.093   9.912  19.243  0.00  0.00    +0.000 A 
ATOM     13  N   UNL     1       0.933   9.030  20.285  0.00  0.00    +0.000 N 
ATOM     14  H   UNL     1      -1.442  12.010  23.482  0.00  0.00    +0.000 HD
ENDBRANCH   3  13
ENDBRANCH   2   3
ENDBRANCH   1   2
BRANCH   1  15
ATOM     15  C   UNL     1       2.481   4.783  19.256  0.00  0.00    +0.000 C 
BRANCH  15  16
ATOM     16  C   UNL     1       3.023   3.657  20.120  0.00  0.00    +0.000 C 
BRANCH  16  17
ATOM     17  P   UNL     1       3.654   2.225  19.171  0.00  0.00    +0.000 P 
ATOM     18  O   UNL     1       3.147   2.807  17.852  0.00  0.00    +0.000 OA
BRANCH  17  19
ATOM     19  O   UNL     1       5.198   2.735  19.348  0.00  0.00    +0.000 OA
ATOM     20  H   UNL     1       5.837   2.007  19.471  0.00  0.00    +0.000 HD
ENDBRANCH  17  19
BRANCH  17  21
ATOM     21  O   UNL     1       4.252   0.872  18.273  0.00  0.00    +0.000 OA
ATOM     22  H   UNL     1       3.441   0.345  18.098  0.00  0.00    +0.000 HD
ENDBRANCH  17  21
ENDBRANCH  16  17
ENDBRANCH  15  16
ENDBRANCH   1  15
BRANCH   1  23
ATOM     23  C   UNL     1       4.339   6.087  18.468  0.00  0.00    +0.000 C 
BRANCH  23  24
ATOM     24  O   UNL     1       4.282   7.186  17.557  0.00  0.00    +0.000 OA
BRANCH  24  25
ATOM     25  C   UNL     1       4.854   6.771  16.311  0.00  0.00    +0.000 C 
BRANCH  25  26
ATOM     26  C   UNL     1       6.059   5.889  16.548  0.00  0.00    +0.000 C 
BRANCH  26  27
ATOM     27  P   UNL     1       6.184   4.585  15.270  0.00  0.00    +0.000 P 
ATOM     28  O   UNL     1       7.706   4.701  15.213  0.00  0.00    +0.000 OA
BRANCH  27  29
ATOM     29  O   UNL     1       5.840   3.427  16.365  0.00  0.00    +0.000 OA
ATOM     30  H   UNL     1       4.897   3.177  16.404  0.00  0.00    +0.000 HD
ENDBRANCH  27  29
BRANCH  27  31
ATOM     31  O   UNL     1       6.301   3.351  14.062  0.00  0.00    +0.000 OA
ATOM     32  H   UNL     1       5.391   2.980  14.042  0.00  0.00    +0.000 HD
ENDBRANCH  27  31
ENDBRANCH  26  27
ENDBRANCH  25  26
ENDBRANCH  24  25
ENDBRANCH  23  24
ENDBRANCH   1  23
TORSDOF 15
ENDMDL
MODEL 6
REMARK VINA RESULT:      -6.0      2.900      7.188
REMARK  Name = 
REMARK  15 active torsions:
REMARK  status: ('A' for Active; 'I' for Inactive)
REMARK    1  A    between atoms: N_10  and  C_11
REMARK    2  A    between atoms: C_11  and  C_12
REMARK    3  A    between atoms: C_12  and  N_13
REMARK    4  A    between atoms: N_13  and  C_14
REMARK    5  A    between atoms: N_13  and  C_20
REMARK    6  A    between atoms: C_14  and  C_15
REMARK    7  A    between atoms: C_15  and  P_16
REMARK    8  A    between atoms: P_16  and  O_18
REMARK    9  A    between atoms: P_16  and  O_19
REMARK   10  A    between atoms: C_20  and  O_21
REMARK   11  A    between atoms: O_21  and  C_22
REMARK   12  A    between atoms: C_22  and  C_23
REMARK   13  A    between atoms: C_23  and  P_24
REMARK   14  A    between atoms: P_24  and  O_26
REMARK   15  A    between atoms: P_24  and  O_27
REMARK                            x       y       z     vdW  Elec       q    Type
REMARK                         _______ _______ _______ _____ _____    ______ ____
ROOT
ATOM      1  N   UNL     1       2.530   6.827  20.200  0.00  0.00    +0.000 NA
ENDROOT
BRANCH   1   2
ATOM      2  C   UNL     1       2.671   7.066  18.735  0.00  0.00    +0.000 C 
BRANCH   2   3
ATOM      3  C   UNL     1       3.178   5.836  17.964  0.00  0.00    +0.000 C 
BRANCH   3  13
ATOM      4  O   UNL     1       7.845   5.478  14.318  0.00  0.00    +0.000 OA
ATOM      5  C   UNL     1       6.933   4.992  14.982  0.00  0.00    +0.000 A 
ATOM      6  N   UNL     1       6.521   3.683  14.816  0.00  0.00    +0.000 N 
ATOM      7  C   UNL     1       5.456   3.121  15.491  0.00  0.00    +0.000 A 
ATOM      8  N   UNL     1       4.715   3.740  16.365  0.00  0.00    +0.000 NA
ATOM      9  C   UNL     1       5.109   5.015  16.576  0.00  0.00    +0.000 A 
ATOM     10  C   UNL     1       6.151   5.696  15.982  0.00  0.00    +0.000 A 
ATOM     11  N   UNL     1       6.221   6.993  16.420  0.00  0.00    +0.000 NA
ATOM     12  C   UNL     1       5.206   7.112  17.256  0.00  0.00    +0.000 A 
ATOM     13  N   UNL     1       4.501   5.938  17.380  0.00  0.00    +0.000 N 
ATOM     14  H   UNL     1       7.025   3.156  14.118  0.00  0.00    +0.000 HD
ENDBRANCH   3  13
ENDBRANCH   2   3
ENDBRANCH   1   2
BRANCH   1  15
ATOM     15  C   UNL     1       1.222   7.337  20.690  0.00  0.00    +0.000 C 
BRANCH  15  16
ATOM     16  C   UNL     1       1.053   8.834  20.492  0.00  0.00    +0.000 C 
BRANCH  16  17
ATOM     17  P   UNL     1       0.412   9.713  21.963  0.00  0.00    +0.000 P 
ATOM     18  O   UNL     1      -0.602   8.606  22.250  0.00  0.00    +0.000 OA
BRANCH  17  19
ATOM     19  O   UNL     1       1.758   9.353  22.818  0.00  0.00    +0.000 OA
ATOM     20  H   UNL     1       2.121  10.113  23.311  0.00  0.00    +0.000 HD
ENDBRANCH  17  19
BRANCH  17  21
ATOM     21  O   UNL     1      -0.195  10.544  23.354  0.00  0.00    +0.000 OA
ATOM     22  H   UNL     1      -1.109  10.786  23.088  0.00  0.00    +0.000 HD
ENDBRANCH  17  21
ENDBRANCH  16  17
ENDBRANCH  15  16
ENDBRANCH   1  15
BRANCH   1  23
ATOM     23  C   UNL     1       2.591   5.376  20.456  0.00  0.00    +0.000 C 
BRANCH  23  24
ATOM     24  O   UNL     1       1.309   4.778  20.659  0.00  0.00    +0.000 OA
BRANCH  24  25
ATOM     25  C   UNL     1       1.444   3.359  20.516  0.00  0.00    +0.000 C 
BRANCH  25  26
ATOM     26  C   UNL     1       2.878   2.936  20.741  0.00  0.00    +0.000 C 
BRANCH  26  27
ATOM     27  P   UNL     1       3.473   1.868  19.379  0.00  0.00    +0.000 P 
ATOM     28  O   UNL     1       2.450   2.442  18.401  0.00  0.00    +0.000 OA
BRANCH  27  29
ATOM     29  O   UNL     1       4.828   2.762  19.222  0.00  0.00    +0.000 OA
ATOM     30  H   UNL     1       5.648   2.238  19.136  0.00  0.00    +0.000 HD
ENDBRANCH  27  29
BRANCH  27  31
ATOM     31  O   UNL     1       4.036   0.859  18.091  0.00  0.00    +0.000 OA
ATOM     32  H   UNL     1       5.005   1.026  18.093  0.00  0.00    +0.000 HD
ENDBRANCH  27  31
ENDBRANCH  26  27
ENDBRANCH  25  26
ENDBRANCH  24  25
ENDBRANCH  23  24
ENDBRANCH   1  23
TORSDOF 15
ENDMDL
MODEL 7
REMARK VINA RESULT:      -6.0      1.608      2.236
REMARK  Name = 
REMARK  15 active torsions:
REMARK  status: ('A' for Active; 'I' for Inactive)
REMARK    1  A    between atoms: N_10  and  C_11
REMARK    2  A    between atoms: C_11  and  C_12
REMARK    3  A    between atoms: C_12  and  N_13
REMARK    4  A    between atoms: N_13  and  C_14
REMARK    5  A    between atoms: N_13  and  C_20
REMARK    6  A    between atoms: C_14  and  C_15
REMARK    7  A    between atoms: C_15  and  P_16
REMARK    8  A    between atoms: P_16  and  O_18
REMARK    9  A    between atoms: P_16  and  O_19
REMARK   10  A    between atoms: C_20  and  O_21
REMARK   11  A    between atoms: O_21  and  C_22
REMARK   12  A    between atoms: C_22  and  C_23
REMARK   13  A    between atoms: C_23  and  P_24
REMARK   14  A    between atoms: P_24  and  O_26
REMARK   15  A    between atoms: P_24  and  O_27
REMARK                            x       y       z     vdW  Elec       q    Type
REMARK                         _______ _______ _______ _____ _____    ______ ____
ROOT
ATOM      1  N   UNL     1       3.198   5.253  18.374  0.00  0.00    +0.000 NA
ENDROOT
BRANCH   1   2
ATOM      2  C   UNL     1       3.307   6.718  18.125  0.00  0.00    +0.000 C 
BRANCH   2   3
ATOM      3  C   UNL     1       1.967   7.460  18.257  0.00  0.00    +0.000 C 
BRANCH   3  13
ATOM      4  O   UNL     1      -0.110  11.253  22.319  0.00  0.00    +0.000 OA
ATOM      5  C   UNL     1       0.317  10.968  21.203  0.00  0.00    +0.000 A 
ATOM      6  N   UNL     1       0.201  11.830  20.130  0.00  0.00    +0.000 N 
ATOM      7  C   UNL     1       0.605  11.519  18.847  0.00  0.00    +0.000 A 
ATOM      8  N   UNL     1       1.146  10.390  18.487  0.00  0.00    +0.000 NA
ATOM      9  C   UNL     1       1.304   9.533  19.519  0.00  0.00    +0.000 A 
ATOM     10  C   UNL     1       0.957   9.715  20.842  0.00  0.00    +0.000 A 
ATOM     11  N   UNL     1       1.235   8.604  21.594  0.00  0.00    +0.000 NA
ATOM     12  C   UNL     1       1.722   7.735  20.728  0.00  0.00    +0.000 A 
ATOM     13  N   UNL     1       1.780   8.254  19.456  0.00  0.00    +0.000 N 
ATOM     14  H   UNL     1      -0.252  12.710  20.328  0.00  0.00    +0.000 HD
ENDBRANCH   3  13
ENDBRANCH   2   3
ENDBRANCH   1   2
BRANCH   1  15
ATOM     15  C   UNL     1       1.775   4.822  18.348  0.00  0.00    +0.000 C 
BRANCH  15  16
ATOM     16  C   UNL     1       1.595   3.338  18.621  0.00  0.00    +0.000 C 
BRANCH  16  17
ATOM     17  P   UNL     1       1.567   2.904  20.398  0.00  0.00    +0.000 P 
ATOM     18  O   UNL     1       3.057   2.564  20.394  0.00  0.00    +0.000 OA
BRANCH  17  19
ATOM     19  O   UNL     1       1.445   4.479  20.823  0.00  0.00    +0.000 OA
ATOM     20  H   UNL     1       0.975   4.619  21.667  0.00  0.00    +0.000 HD
ENDBRANCH  17  19
BRANCH  17  21
ATOM     21  O   UNL     1       1.541   2.495  22.079  0.00  0.00    +0.000 OA
ATOM     22  H   UNL     1       0.812   3.052  22.432  0.00  0.00    +0.000 HD
ENDBRANCH  17  21
ENDBRANCH  16  17
ENDBRANCH  15  16
ENDBRANCH   1  15
BRANCH   1  23
ATOM     23  C   UNL     1       3.923   4.532  17.311  0.00  0.00    +0.000 C 
BRANCH  23  24
ATOM     24  O   UNL     1       5.318   4.378  17.577  0.00  0.00    +0.000 OA
BRANCH  24  25
ATOM     25  C   UNL     1       6.052   4.984  16.506  0.00  0.00    +0.000 C 
BRANCH  25  26
ATOM     26  C   UNL     1       7.007   6.027  17.041  0.00  0.00    +0.000 C 
BRANCH  26  27
ATOM     27  P   UNL     1       7.412   5.712  18.798  0.00  0.00    +0.000 P 
ATOM     28  O   UNL     1       8.292   4.514  18.443  0.00  0.00    +0.000 OA
BRANCH  27  29
ATOM     29  O   UNL     1       8.389   7.017  18.845  0.00  0.00    +0.000 OA
ATOM     30  H   UNL     1       8.947   7.074  19.644  0.00  0.00    +0.000 HD
ENDBRANCH  27  29
BRANCH  27  31
ATOM     31  O   UNL     1       7.796   5.415  20.459  0.00  0.00    +0.000 OA
ATOM     32  H   UNL     1       8.438   6.131  20.664  0.00  0.00    +0.000 HD
ENDBRANCH  27  31
ENDBRANCH  26  27
ENDBRANCH  25  26
ENDBRANCH  24  25
ENDBRANCH  23  24
ENDBRANCH   1  23
TORSDOF 15
ENDMDL
MODEL 8
REMARK VINA RESULT:      -6.0      1.316      1.510
REMARK  Name = 
REMARK  15 active torsions:
REMARK  status: ('A' for Active; 'I' for Inactive)
REMARK    1  A    between atoms: N_10  and  C_11
REMARK    2  A    between atoms: C_11  and  C_12
REMARK    3  A    between atoms: C_12  and  N_13
REMARK    4  A    between atoms: N_13  and  C_14
REMARK    5  A    between atoms: N_13  and  C_20
REMARK    6  A    between atoms: C_14  and  C_15
REMARK    7  A    between atoms: C_15  and  P_16
REMARK    8  A    between atoms: P_16  and  O_18
REMARK    9  A    between atoms: P_16  and  O_19
REMARK   10  A    between atoms: C_20  and  O_21
REMARK   11  A    between atoms: O_21  and  C_22
REMARK   12  A    between atoms: C_22  and  C_23
REMARK   13  A    between atoms: C_23  and  P_24
REMARK   14  A    between atoms: P_24  and  O_26
REMARK   15  A    between atoms: P_24  and  O_27
REMARK                            x       y       z     vdW  Elec       q    Type
REMARK                         _______ _______ _______ _____ _____    ______ ____
ROOT
ATOM      1  N   UNL     1       3.491   4.890  18.048  0.00  0.00    +0.000 NA
ENDROOT
BRANCH   1   2
ATOM      2  C   UNL     1       2.450   5.957  18.060  0.00  0.00    +0.000 C 
BRANCH   2   3
ATOM      3  C   UNL     1       2.845   7.184  18.899  0.00  0.00    +0.000 C 
BRANCH   3  13
ATOM      4  O   UNL     1      -0.209  12.038  20.417  0.00  0.00    +0.000 OA
ATOM      5  C   UNL     1       0.225  10.907  20.622  0.00  0.00    +0.000 A 
ATOM      6  N   UNL     1       0.223  10.337  21.881  0.00  0.00    +0.000 N 
ATOM      7  C   UNL     1       0.764   9.099  22.166  0.00  0.00    +0.000 A 
ATOM      8  N   UNL     1       1.333   8.316  21.295  0.00  0.00    +0.000 NA
ATOM      9  C   UNL     1       1.325   8.827  20.045  0.00  0.00    +0.000 A 
ATOM     10  C   UNL     1       0.816  10.037  19.621  0.00  0.00    +0.000 A 
ATOM     11  N   UNL     1       1.027  10.232  18.281  0.00  0.00    +0.000 NA
ATOM     12  C   UNL     1       1.691   9.158  17.895  0.00  0.00    +0.000 A 
ATOM     13  N   UNL     1       1.897   8.279  18.932  0.00  0.00    +0.000 N 
ATOM     14  H   UNL     1      -0.165  10.911  22.615  0.00  0.00    +0.000 HD
ENDBRANCH   3  13
ENDBRANCH   2   3
ENDBRANCH   1   2
BRANCH   1  15
ATOM     15  C   UNL     1       2.860   3.544  18.016  0.00  0.00    +0.000 C 
BRANCH  15  16
ATOM     16  C   UNL     1       1.520   3.496  18.732  0.00  0.00    +0.000 C 
BRANCH  16  17
ATOM     17  P   UNL     1       1.628   2.973  20.482  0.00  0.00    +0.000 P 
ATOM     18  O   UNL     1       3.044   2.430  20.289  0.00  0.00    +0.000 OA
BRANCH  17  19
ATOM     19  O   UNL     1       1.783   4.523  20.980  0.00  0.00    +0.000 OA
ATOM     20  H   UNL     1       0.990   5.067  20.812  0.00  0.00    +0.000 HD
ENDBRANCH  17  19
BRANCH  17  21
ATOM     21  O   UNL     1       1.731   2.480  22.137  0.00  0.00    +0.000 OA
ATOM     22  H   UNL     1       2.691   2.312  22.260  0.00  0.00    +0.000 HD
ENDBRANCH  17  21
ENDBRANCH  16  17
ENDBRANCH  15  16
ENDBRANCH   1  15
BRANCH   1  23
ATOM     23  C   UNL     1       4.320   5.045  16.838  0.00  0.00    +0.000 C 
BRANCH  23  24
ATOM     24  O   UNL     1       5.134   3.905  16.555  0.00  0.00    +0.000 OA
BRANCH  24  25
ATOM     25  C   UNL     1       6.503   4.325  16.517  0.00  0.00    +0.000 C 
BRANCH  25  26
ATOM     26  C   UNL     1       6.668   5.663  17.201  0.00  0.00    +0.000 C 
BRANCH  26  27
ATOM     27  P   UNL     1       7.581   5.491  18.778  0.00  0.00    +0.000 P 
ATOM     28  O   UNL     1       8.124   6.916  18.690  0.00  0.00    +0.000 OA
BRANCH  27  29
ATOM     29  O   UNL     1       6.193   5.568  19.633  0.00  0.00    +0.000 OA
ATOM     30  H   UNL     1       6.223   5.103  20.491  0.00  0.00    +0.000 HD
ENDBRANCH  27  29
BRANCH  27  31
ATOM     31  O   UNL     1       8.443   5.328  20.270  0.00  0.00    +0.000 OA
ATOM     32  H   UNL     1       9.382   5.319  19.977  0.00  0.00    +0.000 HD
ENDBRANCH  27  31
ENDBRANCH  26  27
ENDBRANCH  25  26
ENDBRANCH  24  25
ENDBRANCH  23  24
ENDBRANCH   1  23
TORSDOF 15
ENDMDL
MODEL 9
REMARK VINA RESULT:      -5.9      1.801      2.526
REMARK  Name = 
REMARK  15 active torsions:
REMARK  status: ('A' for Active; 'I' for Inactive)
REMARK    1  A    between atoms: N_10  and  C_11
REMARK    2  A    between atoms: C_11  and  C_12
REMARK    3  A    between atoms: C_12  and  N_13
REMARK    4  A    between atoms: N_13  and  C_14
REMARK    5  A    between atoms: N_13  and  C_20
REMARK    6  A    between atoms: C_14  and  C_15
REMARK    7  A    between atoms: C_15  and  P_16
REMARK    8  A    between atoms: P_16  and  O_18
REMARK    9  A    between atoms: P_16  and  O_19
REMARK   10  A    between atoms: C_20  and  O_21
REMARK   11  A    between atoms: O_21  and  C_22
REMARK   12  A    between atoms: C_22  and  C_23
REMARK   13  A    between atoms: C_23  and  P_24
REMARK   14  A    between atoms: P_24  and  O_26
REMARK   15  A    between atoms: P_24  and  O_27
REMARK                            x       y       z     vdW  Elec       q    Type
REMARK                         _______ _______ _______ _____ _____    ______ ____
ROOT
ATOM      1  N   UNL     1       2.752   5.638  19.281  0.00  0.00    +0.000 NA
ENDROOT
BRANCH   1   2
ATOM      2  C   UNL     1       2.368   7.070  19.121  0.00  0.00    +0.000 C 
BRANCH   2   3
ATOM      3  C   UNL     1       1.774   7.687  20.399  0.00  0.00    +0.000 C 
BRANCH   3  13
ATOM      4  O   UNL     1      -0.747  12.992  21.236  0.00  0.00    +0.000 OA
ATOM      5  C   UNL     1      -0.533  11.820  21.536  0.00  0.00    +0.000 A 
ATOM      6  N   UNL     1      -0.856  11.311  22.779  0.00  0.00    +0.000 N 
ATOM      7  C   UNL     1      -0.570  10.020  23.179  0.00  0.00    +0.000 A 
ATOM      8  N   UNL     1       0.027   9.126  22.445  0.00  0.00    +0.000 NA
ATOM      9  C   UNL     1       0.330   9.580  21.210  0.00  0.00    +0.000 A 
ATOM     10  C   UNL     1       0.097  10.832  20.679  0.00  0.00    +0.000 A 
ATOM     11  N   UNL     1       0.583  10.937  19.402  0.00  0.00    +0.000 NA
ATOM     12  C   UNL     1       1.138   9.763  19.165  0.00  0.00    +0.000 A 
ATOM     13  N   UNL     1       1.012   8.909  20.234  0.00  0.00    +0.000 N 
ATOM     14  H   UNL     1      -1.284  11.965  23.418  0.00  0.00    +0.000 HD
ENDBRANCH   3  13
ENDBRANCH   2   3
ENDBRANCH   1   2
BRANCH   1  15
ATOM     15  C   UNL     1       2.527   4.892  18.015  0.00  0.00    +0.000 C 
BRANCH  15  16
ATOM     16  C   UNL     1       1.794   3.576  18.221  0.00  0.00    +0.000 C 
BRANCH  16  17
ATOM     17  P   UNL     1       2.892   2.113  18.285  0.00  0.00    +0.000 P 
ATOM     18  O   UNL     1       3.876   2.741  17.298  0.00  0.00    +0.000 OA
BRANCH  17  19
ATOM     19  O   UNL     1       3.408   2.513  19.784  0.00  0.00    +0.000 OA
ATOM     20  H   UNL     1       3.181   1.851  20.464  0.00  0.00    +0.000 HD
ENDBRANCH  17  19
BRANCH  17  21
ATOM     21  O   UNL     1       3.930   0.730  18.346  0.00  0.00    +0.000 OA
ATOM     22  H   UNL     1       3.302  -0.013  18.481  0.00  0.00    +0.000 HD
ENDBRANCH  17  21
ENDBRANCH  16  17
ENDBRANCH  15  16
ENDBRANCH   1  15
BRANCH   1  23
ATOM     23  C   UNL     1       4.185   5.563  19.619  0.00  0.00    +0.000 C 
BRANCH  23  24
ATOM     24  O   UNL     1       5.026   5.328  18.489  0.00  0.00    +0.000 OA
BRANCH  24  25
ATOM     25  C   UNL     1       6.391   5.373  18.923  0.00  0.00    +0.000 C 
BRANCH  25  26
ATOM     26  C   UNL     1       7.327   5.163  17.755  0.00  0.00    +0.000 C 
BRANCH  26  27
ATOM     27  P   UNL     1       6.415   5.173  16.168  0.00  0.00    +0.000 P 
ATOM     28  O   UNL     1       7.690   5.437  15.367  0.00  0.00    +0.000 OA
BRANCH  27  29
ATOM     29  O   UNL     1       6.222   3.555  16.226  0.00  0.00    +0.000 OA
ATOM     30  H   UNL     1       6.859   3.054  15.681  0.00  0.00    +0.000 HD
ENDBRANCH  27  29
BRANCH  27  31
ATOM     31  O   UNL     1       5.553   5.182  14.667  0.00  0.00    +0.000 OA
ATOM     32  H   UNL     1       6.252   5.421  14.017  0.00  0.00    +0.000 HD
ENDBRANCH  27  31
ENDBRANCH  26  27
ENDBRANCH  25  26
ENDBRANCH  24  25
ENDBRANCH  23  24
ENDBRANCH   1  23
TORSDOF 15
ENDMDL
