MODEL 1
REMARK VINA RESULT:      -9.1      0.000      0.000
REMARK  Name = 
REMARK  7 active torsions:
REMARK  status: ('A' for Active; 'I' for Inactive)
REMARK    1  A    between atoms: C_2  and  C_29
REMARK    2  A    between atoms: N_3  and  C_4
REMARK    3  A    between atoms: C_7  and  C_8
REMARK    4  A    between atoms: C_8  and  N_9
REMARK    5  A    between atoms: N_9  and  C_10
REMARK    6  A    between atoms: N_13  and  C_14
REMARK    7  A    between atoms: C_14  and  C_15
REMARK                            x       y       z     vdW  Elec       q    Type
REMARK                         _______ _______ _______ _____ _____    ______ ____
ROOT
ATOM      1  N   UNL     1       2.125   6.521  19.102  0.00  0.00    +0.000 N 
ATOM      2  H   UNL     1       2.016   6.245  18.118  0.00  0.00    +0.000 HD
ENDROOT
BRANCH   1   3
ATOM      3  C   UNL     1       3.079   5.526  19.452  0.00  0.00    +0.000 A 
ATOM      4  N   UNL     1       4.327   6.049  19.437  0.00  0.00    +0.000 NA
ATOM      5  C   UNL     1       5.376   5.212  19.333  0.00  0.00    +0.000 A 
ATOM      6  N   UNL     1       6.452   5.660  18.572  0.00  0.00    +0.000 N 
ATOM      7  N   UNL     1       5.316   3.914  19.523  0.00  0.00    +0.000 NA
ATOM      8  C   UNL     1       4.148   3.391  19.262  0.00  0.00    +0.000 A 
ATOM      9  C   UNL     1       4.266   2.139  18.687  0.00  0.00    +0.000 A 
ATOM     10  C   UNL     1       3.162   1.477  18.186  0.00  0.00    +0.000 A 
ATOM     11  C   UNL     1       1.906   2.023  18.435  0.00  0.00    +0.000 A 
ATOM     12  C   UNL     1       1.783   3.312  18.999  0.00  0.00    +0.000 A 
ATOM     13  C   UNL     1       2.931   4.104  19.291  0.00  0.00    +0.000 A 
ATOM     14  H   UNL     1       6.068   6.443  18.053  0.00  0.00    +0.000 HD
BRANCH   6  15
ATOM     15  C   UNL     1       7.043   4.623  17.701  0.00  0.00    +0.000 C 
BRANCH  15  16
ATOM     16  C   UNL     1       6.586   4.490  16.264  0.00  0.00    +0.000 A 
ATOM     17  C   UNL     1       5.401   4.158  15.635  0.00  0.00    +0.000 A 
ATOM     18  C   UNL     1       5.621   4.292  14.238  0.00  0.00    +0.000 A 
ATOM     19  C   UNL     1       6.928   4.680  14.090  0.00  0.00    +0.000 A 
ATOM     20  O   UNL     1       7.523   4.801  15.308  0.00  0.00    +0.000 OA
ENDBRANCH  15  16
ENDBRANCH   6  15
ENDBRANCH   1   3
BRANCH   1  21
ATOM     21  C   UNL     1       2.393   7.982  18.988  0.00  0.00    +0.000 C 
BRANCH  21  25
ATOM     22  C   UNL     1      -0.227  10.741  21.459  0.00  0.00    +0.000 A 
ATOM     23  C   UNL     1       0.289   9.535  21.954  0.00  0.00    +0.000 A 
ATOM     24  C   UNL     1       1.063   8.636  21.142  0.00  0.00    +0.000 A 
ATOM     25  C   UNL     1       1.377   8.891  19.795  0.00  0.00    +0.000 A 
ATOM     26  C   UNL     1       0.825  10.090  19.290  0.00  0.00    +0.000 A 
ATOM     27  C   UNL     1       0.034  10.985  20.104  0.00  0.00    +0.000 A 
BRANCH  22  30
ATOM     28  O   UNL     1       0.490  13.514  22.268  0.00  0.00    +0.000 OA
ATOM     29  C   UNL     1      -0.563  13.002  22.592  0.00  0.00    +0.000 C 
ATOM     30  N   UNL     1      -0.974  11.710  22.239  0.00  0.00    +0.000 N 
ATOM     31  H   UNL     1      -1.939  11.472  22.437  0.00  0.00    +0.000 HD
BRANCH  29  32
ATOM     32  C   UNL     1      -1.524  13.886  23.398  0.00  0.00    +0.000 A 
ATOM     33  C   UNL     1      -2.818  13.400  23.704  0.00  0.00    +0.000 A 
ATOM     34  C   UNL     1      -3.772  14.201  24.365  0.00  0.00    +0.000 A 
ATOM     35  C   UNL     1      -3.455  15.501  24.711  0.00  0.00    +0.000 A 
ATOM     36  F   UNL     1      -4.358  16.281  25.324  0.00  0.00    +0.000 F 
ATOM     37  C   UNL     1      -2.188  16.023  24.416  0.00  0.00    +0.000 A 
ATOM     38  C   UNL     1      -1.233  15.216  23.753  0.00  0.00    +0.000 A 
ENDBRANCH  29  32
ENDBRANCH  22  30
ENDBRANCH  21  25
ENDBRANCH   1  21
TORSDOF 7
ENDMDL
MODEL 2
REMARK VINA RESULT:      -9.1      1.277      1.702
REMARK  Name = 
REMARK  7 active torsions:
REMARK  status: ('A' for Active; 'I' for Inactive)
REMARK    1  A    between atoms: C_2  and  C_29
REMARK    2  A    between atoms: N_3  and  C_4
REMARK    3  A    between atoms: C_7  and  C_8
REMARK    4  A    between atoms: C_8  and  N_9
REMARK    5  A    between atoms: N_9  and  C_10
REMARK    6  A    between atoms: N_13  and  C_14
REMARK    7  A    between atoms: C_14  and  C_15
REMARK                            x       y       z     vdW  Elec       q    Type
REMARK                         _______ _______ _______ _____ _____    ______ ____
ROOT
ATOM      1  N   UNL     1       2.243   6.714  18.308  0.00  0.00    +0.000 N 
ATOM      2  H   UNL     1       2.222   6.346  17.349  0.00  0.00    +0.000 HD
ENDROOT
BRANCH   1   3
ATOM      3  C   UNL     1       3.153   5.758  18.837  0.00  0.00    +0.000 A 
ATOM      4  N   UNL     1       4.399   6.285  18.899  0.00  0.00    +0.000 NA
ATOM      5  C   UNL     1       5.450   5.447  18.974  0.00  0.00    +0.000 A 
ATOM      6  N   UNL     1       6.597   5.831  18.286  0.00  0.00    +0.000 N 
ATOM      7  N   UNL     1       5.366   4.170  19.270  0.00  0.00    +0.000 NA
ATOM      8  C   UNL     1       4.227   3.620  18.942  0.00  0.00    +0.000 A 
ATOM      9  C   UNL     1       4.397   2.323  18.494  0.00  0.00    +0.000 A 
ATOM     10  C   UNL     1       3.344   1.614  17.947  0.00  0.00    +0.000 A 
ATOM     11  C   UNL     1       2.073   2.174  18.022  0.00  0.00    +0.000 A 
ATOM     12  C   UNL     1       1.899   3.508  18.455  0.00  0.00    +0.000 A 
ATOM     13  C   UNL     1       3.016   4.328  18.788  0.00  0.00    +0.000 A 
ATOM     14  H   UNL     1       6.270   6.564  17.664  0.00  0.00    +0.000 HD
BRANCH   6  15
ATOM     15  C   UNL     1       7.268   4.724  17.573  0.00  0.00    +0.000 C 
BRANCH  15  16
ATOM     16  C   UNL     1       6.947   4.457  16.117  0.00  0.00    +0.000 A 
ATOM     17  C   UNL     1       6.079   3.625  15.437  0.00  0.00    +0.000 A 
ATOM     18  C   UNL     1       6.221   3.916  14.054  0.00  0.00    +0.000 A 
ATOM     19  C   UNL     1       7.178   4.895  13.964  0.00  0.00    +0.000 A 
ATOM     20  O   UNL     1       7.626   5.229  15.204  0.00  0.00    +0.000 OA
ENDBRANCH  15  16
ENDBRANCH   6  15
ENDBRANCH   1   3
BRANCH   1  21
ATOM     21  C   UNL     1       2.530   8.159  18.081  0.00  0.00    +0.000 C 
BRANCH  21  25
ATOM     22  C   UNL     1      -0.596  10.767  20.081  0.00  0.00    +0.000 A 
ATOM     23  C   UNL     1      -0.234  10.909  18.734  0.00  0.00    +0.000 A 
ATOM     24  C   UNL     1       0.805  10.123  18.128  0.00  0.00    +0.000 A 
ATOM     25  C   UNL     1       1.535   9.141  18.823  0.00  0.00    +0.000 A 
ATOM     26  C   UNL     1       1.190   9.026  20.189  0.00  0.00    +0.000 A 
ATOM     27  C   UNL     1       0.156   9.828  20.801  0.00  0.00    +0.000 A 
BRANCH  22  30
ATOM     28  O   UNL     1      -0.799  11.759  22.880  0.00  0.00    +0.000 OA
ATOM     29  C   UNL     1      -1.693  11.922  22.073  0.00  0.00    +0.000 C 
ATOM     30  N   UNL     1      -1.664  11.496  20.739  0.00  0.00    +0.000 N 
ATOM     31  H   UNL     1      -2.404  11.840  20.139  0.00  0.00    +0.000 HD
BRANCH  29  32
ATOM     32  C   UNL     1      -2.911  12.715  22.568  0.00  0.00    +0.000 A 
ATOM     33  C   UNL     1      -3.050  12.978  23.951  0.00  0.00    +0.000 A 
ATOM     34  C   UNL     1      -4.190  13.623  24.472  0.00  0.00    +0.000 A 
ATOM     35  C   UNL     1      -5.214  13.998  23.623  0.00  0.00    +0.000 A 
ATOM     36  F   UNL     1      -6.313  14.597  24.105  0.00  0.00    +0.000 F 
ATOM     37  C   UNL     1      -5.119  13.746  22.246  0.00  0.00    +0.000 A 
ATOM     38  C   UNL     1      -3.973  13.098  21.729  0.00  0.00    +0.000 A 
ENDBRANCH  29  32
ENDBRANCH  22  30
ENDBRANCH  21  25
ENDBRANCH   1  21
TORSDOF 7
ENDMDL
MODEL 3
REMARK VINA RESULT:      -8.8      1.567      1.797
REMARK  Name = 
REMARK  7 active torsions:
REMARK  status: ('A' for Active; 'I' for Inactive)
REMARK    1  A    between atoms: C_2  and  C_29
REMARK    2  A    between atoms: N_3  and  C_4
REMARK    3  A    between atoms: C_7  and  C_8
REMARK    4  A    between atoms: C_8  and  N_9
REMARK    5  A    between atoms: N_9  and  C_10
REMARK    6  A    between atoms: N_13  and  C_14
REMARK    7  A    between atoms: C_14  and  C_15
REMARK                            x       y       z     vdW  Elec       q    Type
REMARK                         _______ _______ _______ _____ _____    ______ ____
ROOT
ATOM      1  N   UNL     1       2.167   7.189  17.989  0.00  0.00    +0.000 N 
ATOM      2  H   UNL     1       2.444   6.996  17.019  0.00  0.00    +0.000 HD
ENDROOT
BRANCH   1   3
ATOM      3  C   UNL     1       3.003   6.215  18.602  0.00  0.00    +0.000 A 
ATOM      4  N   UNL     1       4.280   6.661  18.655  0.00  0.00    +0.000 NA
ATOM      5  C   UNL     1       5.270   5.763  18.810  0.00  0.00    +0.000 A 
ATOM      6  N   UNL     1       6.452   6.022  18.122  0.00  0.00    +0.000 N 
ATOM      7  N   UNL     1       5.096   4.518  19.192  0.00  0.00    +0.000 NA
ATOM      8  C   UNL     1       3.928   4.024  18.878  0.00  0.00    +0.000 A 
ATOM      9  C   UNL     1       4.018   2.690  18.524  0.00  0.00    +0.000 A 
ATOM     10  C   UNL     1       2.929   2.015  18.005  0.00  0.00    +0.000 A 
ATOM     11  C   UNL     1       1.697   2.662  18.014  0.00  0.00    +0.000 A 
ATOM     12  C   UNL     1       1.606   4.031  18.350  0.00  0.00    +0.000 A 
ATOM     13  C   UNL     1       2.770   4.797  18.650  0.00  0.00    +0.000 A 
ATOM     14  H   UNL     1       6.186   6.729  17.444  0.00  0.00    +0.000 HD
BRANCH   6  15
ATOM     15  C   UNL     1       7.059   4.826  17.501  0.00  0.00    +0.000 C 
BRANCH  15  16
ATOM     16  C   UNL     1       6.790   4.510  16.044  0.00  0.00    +0.000 A 
ATOM     17  C   UNL     1       5.904   3.700  15.360  0.00  0.00    +0.000 A 
ATOM     18  C   UNL     1       6.129   3.917  13.974  0.00  0.00    +0.000 A 
ATOM     19  C   UNL     1       7.148   4.831  13.889  0.00  0.00    +0.000 A 
ATOM     20  O   UNL     1       7.558   5.195  15.134  0.00  0.00    +0.000 OA
ENDBRANCH  15  16
ENDBRANCH   6  15
ENDBRANCH   1   3
BRANCH   1  21
ATOM     21  C   UNL     1       2.345   8.667  18.074  0.00  0.00    +0.000 C 
BRANCH  21  25
ATOM     22  C   UNL     1      -0.737  11.032  20.416  0.00  0.00    +0.000 A 
ATOM     23  C   UNL     1       0.012   9.991  20.980  0.00  0.00    +0.000 A 
ATOM     24  C   UNL     1       0.938   9.203  20.212  0.00  0.00    +0.000 A 
ATOM     25  C   UNL     1       1.180   9.416  18.842  0.00  0.00    +0.000 A 
ATOM     26  C   UNL     1       0.396  10.444  18.271  0.00  0.00    +0.000 A 
ATOM     27  C   UNL     1      -0.545  11.223  19.040  0.00  0.00    +0.000 A 
BRANCH  22  30
ATOM     28  O   UNL     1      -3.301  12.274  19.554  0.00  0.00    +0.000 OA
ATOM     29  C   UNL     1      -2.843  12.451  20.665  0.00  0.00    +0.000 C 
ATOM     30  N   UNL     1      -1.652  11.891  21.145  0.00  0.00    +0.000 N 
ATOM     31  H   UNL     1      -1.474  11.990  22.137  0.00  0.00    +0.000 HD
BRANCH  29  32
ATOM     32  C   UNL     1      -3.688  13.311  21.615  0.00  0.00    +0.000 A 
ATOM     33  C   UNL     1      -3.441  13.249  23.007  0.00  0.00    +0.000 A 
ATOM     34  C   UNL     1      -4.243  13.947  23.932  0.00  0.00    +0.000 A 
ATOM     35  C   UNL     1      -5.311  14.701  23.484  0.00  0.00    +0.000 A 
ATOM     36  F   UNL     1      -6.094  15.357  24.353  0.00  0.00    +0.000 F 
ATOM     37  C   UNL     1      -5.595  14.780  22.113  0.00  0.00    +0.000 A 
ATOM     38  C   UNL     1      -4.788  14.076  21.187  0.00  0.00    +0.000 A 
ENDBRANCH  29  32
ENDBRANCH  22  30
ENDBRANCH  21  25
ENDBRANCH   1  21
TORSDOF 7
ENDMDL
MODEL 4
REMARK VINA RESULT:      -8.7      1.338      1.534
REMARK  Name = 
REMARK  7 active torsions:
REMARK  status: ('A' for Active; 'I' for Inactive)
REMARK    1  A    between atoms: C_2  and  C_29
REMARK    2  A    between atoms: N_3  and  C_4
REMARK    3  A    between atoms: C_7  and  C_8
REMARK    4  A    between atoms: C_8  and  N_9
REMARK    5  A    between atoms: N_9  and  C_10
REMARK    6  A    between atoms: N_13  and  C_14
REMARK    7  A    between atoms: C_14  and  C_15
REMARK                            x       y       z     vdW  Elec       q    Type
REMARK                         _______ _______ _______ _____ _____    ______ ____
ROOT
ATOM      1  N   UNL     1       2.507   7.601  17.594  0.00  0.00    +0.000 N 
ATOM      2  H   UNL     1       2.748   7.449  16.607  0.00  0.00    +0.000 HD
ENDROOT
BRANCH   1   3
ATOM      3  C   UNL     1       3.321   6.565  18.130  0.00  0.00    +0.000 A 
ATOM      4  N   UNL     1       4.630   6.860  17.950  0.00  0.00    +0.000 NA
ATOM      5  C   UNL     1       5.529   5.860  18.004  0.00  0.00    +0.000 A 
ATOM      6  N   UNL     1       6.603   5.944  17.122  0.00  0.00    +0.000 N 
ATOM      7  N   UNL     1       5.287   4.664  18.491  0.00  0.00    +0.000 NA
ATOM      8  C   UNL     1       4.036   4.296  18.400  0.00  0.00    +0.000 A 
ATOM      9  C   UNL     1       3.921   2.945  18.126  0.00  0.00    +0.000 A 
ATOM     10  C   UNL     1       2.695   2.379  17.832  0.00  0.00    +0.000 A 
ATOM     11  C   UNL     1       1.559   3.166  17.993  0.00  0.00    +0.000 A 
ATOM     12  C   UNL     1       1.674   4.551  18.248  0.00  0.00    +0.000 A 
ATOM     13  C   UNL     1       2.947   5.188  18.307  0.00  0.00    +0.000 A 
ATOM     14  H   UNL     1       6.306   6.644  16.450  0.00  0.00    +0.000 HD
BRANCH   6  15
ATOM     15  C   UNL     1       6.965   4.657  16.494  0.00  0.00    +0.000 C 
BRANCH  15  16
ATOM     16  C   UNL     1       6.915   4.509  14.987  0.00  0.00    +0.000 A 
ATOM     17  C   UNL     1       6.175   3.756  14.096  0.00  0.00    +0.000 A 
ATOM     18  C   UNL     1       6.576   4.145  12.790  0.00  0.00    +0.000 A 
ATOM     19  C   UNL     1       7.549   5.098  12.955  0.00  0.00    +0.000 A 
ATOM     20  O   UNL     1       7.764   5.324  14.279  0.00  0.00    +0.000 OA
ENDBRANCH  15  16
ENDBRANCH   6  15
ENDBRANCH   1   3
BRANCH   1  21
ATOM     21  C   UNL     1       2.743   9.064  17.751  0.00  0.00    +0.000 C 
BRANCH  21  25
ATOM     22  C   UNL     1      -0.480  11.260  20.068  0.00  0.00    +0.000 A 
ATOM     23  C   UNL     1      -0.391   9.862  20.026  0.00  0.00    +0.000 A 
ATOM     24  C   UNL     1       0.594   9.175  19.235  0.00  0.00    +0.000 A 
ATOM     25  C   UNL     1       1.553   9.840  18.450  0.00  0.00    +0.000 A 
ATOM     26  C   UNL     1       1.436  11.249  18.467  0.00  0.00    +0.000 A 
ATOM     27  C   UNL     1       0.436  11.937  19.251  0.00  0.00    +0.000 A 
BRANCH  22  30
ATOM     28  O   UNL     1      -0.467  11.823  22.991  0.00  0.00    +0.000 OA
ATOM     29  C   UNL     1      -1.352  12.225  22.262  0.00  0.00    +0.000 C 
ATOM     30  N   UNL     1      -1.419  12.012  20.879  0.00  0.00    +0.000 N 
ATOM     31  H   UNL     1      -2.121  12.539  20.374  0.00  0.00    +0.000 HD
BRANCH  29  32
ATOM     32  C   UNL     1      -2.436  13.084  22.929  0.00  0.00    +0.000 A 
ATOM     33  C   UNL     1      -3.781  12.944  22.512  0.00  0.00    +0.000 A 
ATOM     34  C   UNL     1      -4.804  13.767  23.025  0.00  0.00    +0.000 A 
ATOM     35  C   UNL     1      -4.497  14.751  23.946  0.00  0.00    +0.000 A 
ATOM     36  F   UNL     1      -5.456  15.554  24.430  0.00  0.00    +0.000 F 
ATOM     37  C   UNL     1      -3.174  14.929  24.376  0.00  0.00    +0.000 A 
ATOM     38  C   UNL     1      -2.151  14.100  23.858  0.00  0.00    +0.000 A 
ENDBRANCH  29  32
ENDBRANCH  22  30
ENDBRANCH  21  25
ENDBRANCH   1  21
TORSDOF 7
ENDMDL
MODEL 5
REMARK VINA RESULT:      -8.7      1.477      1.814
REMARK  Name = 
REMARK  7 active torsions:
REMARK  status: ('A' for Active; 'I' for Inactive)
REMARK    1  A    between atoms: C_2  and  C_29
REMARK    2  A    between atoms: N_3  and  C_4
REMARK    3  A    between atoms: C_7  and  C_8
REMARK    4  A    between atoms: C_8  and  N_9
REMARK    5  A    between atoms: N_9  and  C_10
REMARK    6  A    between atoms: N_13  and  C_14
REMARK    7  A    between atoms: C_14  and  C_15
REMARK                            x       y       z     vdW  Elec       q    Type
REMARK                         _______ _______ _______ _____ _____    ______ ____
ROOT
ATOM      1  N   UNL     1       2.353   7.302  17.799  0.00  0.00    +0.000 N 
ATOM      2  H   UNL     1       2.447   7.078  16.801  0.00  0.00    +0.000 HD
ENDROOT
BRANCH   1   3
ATOM      3  C   UNL     1       3.236   6.298  18.283  0.00  0.00    +0.000 A 
ATOM      4  N   UNL     1       4.521   6.655  18.052  0.00  0.00    +0.000 NA
ATOM      5  C   UNL     1       5.467   5.696  18.053  0.00  0.00    +0.000 A 
ATOM      6  N   UNL     1       6.495   5.842  17.127  0.00  0.00    +0.000 N 
ATOM      7  N   UNL     1       5.299   4.484  18.530  0.00  0.00    +0.000 NA
ATOM      8  C   UNL     1       4.065   4.060  18.487  0.00  0.00    +0.000 A 
ATOM      9  C   UNL     1       3.999   2.710  18.197  0.00  0.00    +0.000 A 
ATOM     10  C   UNL     1       2.788   2.092  17.947  0.00  0.00    +0.000 A 
ATOM     11  C   UNL     1       1.625   2.824  18.169  0.00  0.00    +0.000 A 
ATOM     12  C   UNL     1       1.689   4.209  18.440  0.00  0.00    +0.000 A 
ATOM     13  C   UNL     1       2.933   4.903  18.455  0.00  0.00    +0.000 A 
ATOM     14  H   UNL     1       6.138   6.537  16.478  0.00  0.00    +0.000 HD
BRANCH   6  15
ATOM     15  C   UNL     1       6.888   4.581  16.463  0.00  0.00    +0.000 C 
BRANCH  15  16
ATOM     16  C   UNL     1       6.795   4.458  14.956  0.00  0.00    +0.000 A 
ATOM     17  C   UNL     1       7.494   4.975  13.882  0.00  0.00    +0.000 A 
ATOM     18  C   UNL     1       6.937   4.399  12.709  0.00  0.00    +0.000 A 
ATOM     19  C   UNL     1       5.921   3.578  13.128  0.00  0.00    +0.000 A 
ATOM     20  O   UNL     1       5.824   3.607  14.485  0.00  0.00    +0.000 OA
ENDBRANCH  15  16
ENDBRANCH   6  15
ENDBRANCH   1   3
BRANCH   1  21
ATOM     21  C   UNL     1       2.611   8.770  17.813  0.00  0.00    +0.000 C 
BRANCH  21  25
ATOM     22  C   UNL     1      -0.454  11.083  20.228  0.00  0.00    +0.000 A 
ATOM     23  C   UNL     1       0.326  11.672  19.223  0.00  0.00    +0.000 A 
ATOM     24  C   UNL     1       1.341  10.946  18.510  0.00  0.00    +0.000 A 
ATOM     25  C   UNL     1       1.630   9.590  18.747  0.00  0.00    +0.000 A 
ATOM     26  C   UNL     1       0.865   9.011  19.785  0.00  0.00    +0.000 A 
ATOM     27  C   UNL     1      -0.144   9.746  20.512  0.00  0.00    +0.000 A 
BRANCH  22  30
ATOM     28  O   UNL     1      -0.458  12.316  22.937  0.00  0.00    +0.000 OA
ATOM     29  C   UNL     1      -1.452  12.296  22.239  0.00  0.00    +0.000 C 
ATOM     30  N   UNL     1      -1.523  11.747  20.952  0.00  0.00    +0.000 N 
ATOM     31  H   UNL     1      -2.364  11.944  20.422  0.00  0.00    +0.000 HD
BRANCH  29  32
ATOM     32  C   UNL     1      -2.695  12.989  22.814  0.00  0.00    +0.000 A 
ATOM     33  C   UNL     1      -3.524  12.282  23.717  0.00  0.00    +0.000 A 
ATOM     34  C   UNL     1      -4.724  12.835  24.208  0.00  0.00    +0.000 A 
ATOM     35  C   UNL     1      -5.122  14.091  23.791  0.00  0.00    +0.000 A 
ATOM     36  F   UNL     1      -6.270  14.624  24.236  0.00  0.00    +0.000 F 
ATOM     37  C   UNL     1      -4.333  14.820  22.889  0.00  0.00    +0.000 A 
ATOM     38  C   UNL     1      -3.129  14.260  22.399  0.00  0.00    +0.000 A 
ENDBRANCH  29  32
ENDBRANCH  22  30
ENDBRANCH  21  25
ENDBRANCH   1  21
TORSDOF 7
ENDMDL
MODEL 6
REMARK VINA RESULT:      -8.7      3.385      5.170
REMARK  Name = 
REMARK  7 active torsions:
REMARK  status: ('A' for Active; 'I' for Inactive)
REMARK    1  A    between atoms: C_2  and  C_29
REMARK    2  A    between atoms: N_3  and  C_4
REMARK    3  A    between atoms: C_7  and  C_8
REMARK    4  A    between atoms: C_8  and  N_9
REMARK    5  A    between atoms: N_9  and  C_10
REMARK    6  A    between atoms: N_13  and  C_14
REMARK    7  A    between atoms: C_14  and  C_15
REMARK                            x       y       z     vdW  Elec       q    Type
REMARK                         _______ _______ _______ _____ _____    ______ ____
ROOT
ATOM      1  N   UNL     1       4.559   4.090  19.528  0.00  0.00    +0.000 N 
ATOM      2  H   UNL     1       4.663   3.074  19.638  0.00  0.00    +0.000 HD
ENDROOT
BRANCH   1   3
ATOM      3  C   UNL     1       5.710   4.292  18.717  0.00  0.00    +0.000 A 
ATOM      4  N   UNL     1       6.618   5.050  19.375  0.00  0.00    +0.000 NA
ATOM      5  C   UNL     1       7.565   5.687  18.660  0.00  0.00    +0.000 A 
ATOM      6  N   UNL     1       7.932   6.952  19.109  0.00  0.00    +0.000 N 
ATOM      7  N   UNL     1       7.860   5.420  17.409  0.00  0.00    +0.000 NA
ATOM      8  C   UNL     1       6.863   4.933  16.719  0.00  0.00    +0.000 A 
ATOM      9  C   UNL     1       6.870   5.397  15.416  0.00  0.00    +0.000 A 
ATOM     10  C   UNL     1       5.817   5.133  14.560  0.00  0.00    +0.000 A 
ATOM     11  C   UNL     1       4.837   4.242  14.987  0.00  0.00    +0.000 A 
ATOM     12  C   UNL     1       4.813   3.787  16.324  0.00  0.00    +0.000 A 
ATOM     13  C   UNL     1       5.761   4.254  17.280  0.00  0.00    +0.000 A 
ATOM     14  H   UNL     1       7.189   7.203  19.753  0.00  0.00    +0.000 HD
BRANCH   6  15
ATOM     15  C   UNL     1       8.118   7.941  18.028  0.00  0.00    +0.000 C 
BRANCH  15  16
ATOM     16  C   UNL     1       8.564   9.350  18.358  0.00  0.00    +0.000 A 
ATOM     17  C   UNL     1       9.369   9.927  19.322  0.00  0.00    +0.000 A 
ATOM     18  C   UNL     1       9.438  11.315  19.029  0.00  0.00    +0.000 A 
ATOM     19  C   UNL     1       8.661  11.512  17.916  0.00  0.00    +0.000 A 
ATOM     20  O   UNL     1       8.125  10.332  17.503  0.00  0.00    +0.000 OA
ENDBRANCH  15  16
ENDBRANCH   6  15
ENDBRANCH   1   3
BRANCH   1  21
ATOM     21  C   UNL     1       3.143   4.211  19.077  0.00  0.00    +0.000 C 
BRANCH  21  25
ATOM     22  C   UNL     1       1.912   8.577  19.101  0.00  0.00    +0.000 A 
ATOM     23  C   UNL     1       1.762   7.737  20.213  0.00  0.00    +0.000 A 
ATOM     24  C   UNL     1       2.093   6.339  20.174  0.00  0.00    +0.000 A 
ATOM     25  C   UNL     1       2.604   5.699  19.030  0.00  0.00    +0.000 A 
ATOM     26  C   UNL     1       2.720   6.542  17.901  0.00  0.00    +0.000 A 
ATOM     27  C   UNL     1       2.372   7.943  17.938  0.00  0.00    +0.000 A 
BRANCH  22  30
ATOM     28  O   UNL     1      -0.554  10.051  18.322  0.00  0.00    +0.000 OA
ATOM     29  C   UNL     1       0.449  10.627  18.694  0.00  0.00    +0.000 C 
ATOM     30  N   UNL     1       1.639  10.002  19.089  0.00  0.00    +0.000 N 
ATOM     31  H   UNL     1       2.335  10.592  19.529  0.00  0.00    +0.000 HD
BRANCH  29  32
ATOM     32  C   UNL     1       0.353  12.156  18.789  0.00  0.00    +0.000 A 
ATOM     33  C   UNL     1       1.503  12.938  18.527  0.00  0.00    +0.000 A 
ATOM     34  C   UNL     1       1.497  14.339  18.684  0.00  0.00    +0.000 A 
ATOM     35  C   UNL     1       0.351  14.975  19.121  0.00  0.00    +0.000 A 
ATOM     36  F   UNL     1       0.335  16.306  19.293  0.00  0.00    +0.000 F 
ATOM     37  C   UNL     1      -0.807  14.235  19.401  0.00  0.00    +0.000 A 
ATOM     38  C   UNL     1      -0.796  12.829  19.242  0.00  0.00    +0.000 A 
ENDBRANCH  29  32
ENDBRANCH  22  30
ENDBRANCH  21  25
ENDBRANCH   1  21
TORSDOF 7
ENDMDL
MODEL 7
REMARK VINA RESULT:      -8.6      2.018      2.534
REMARK  Name = 
REMARK  7 active torsions:
REMARK  status: ('A' for Active; 'I' for Inactive)
REMARK    1  A    between atoms: C_2  and  C_29
REMARK    2  A    between atoms: N_3  and  C_4
REMARK    3  A    between atoms: C_7  and  C_8
REMARK    4  A    between atoms: C_8  and  N_9
REMARK    5  A    between atoms: N_9  and  C_10
REMARK    6  A    between atoms: N_13  and  C_14
REMARK    7  A    between atoms: C_14  and  C_15
REMARK                            x       y       z     vdW  Elec       q    Type
REMARK                         _______ _______ _______ _____ _____    ______ ____
ROOT
ATOM      1  N   UNL     1       2.879   6.895  19.653  0.00  0.00    +0.000 N 
ATOM      2  H   UNL     1       2.007   6.507  20.033  0.00  0.00    +0.000 HD
ENDROOT
BRANCH   1   3
ATOM      3  C   UNL     1       3.539   5.653  19.439  0.00  0.00    +0.000 A 
ATOM      4  N   UNL     1       4.715   5.852  18.798  0.00  0.00    +0.000 NA
ATOM      5  C   UNL     1       5.279   4.816  18.151  0.00  0.00    +0.000 A 
ATOM      6  N   UNL     1       5.928   5.113  16.956  0.00  0.00    +0.000 N 
ATOM      7  N   UNL     1       4.936   3.558  18.313  0.00  0.00    +0.000 NA
ATOM      8  C   UNL     1       3.693   3.388  18.676  0.00  0.00    +0.000 A 
ATOM      9  C   UNL     1       3.140   2.263  18.091  0.00  0.00    +0.000 A 
ATOM     10  C   UNL     1       1.791   1.986  18.213  0.00  0.00    +0.000 A 
ATOM     11  C   UNL     1       1.041   2.769  19.085  0.00  0.00    +0.000 A 
ATOM     12  C   UNL     1       1.596   3.933  19.664  0.00  0.00    +0.000 A 
ATOM     13  C   UNL     1       2.917   4.359  19.343  0.00  0.00    +0.000 A 
ATOM     14  H   UNL     1       5.594   6.044  16.726  0.00  0.00    +0.000 HD
BRANCH   6  15
ATOM     15  C   UNL     1       5.685   4.130  15.880  0.00  0.00    +0.000 C 
BRANCH  15  16
ATOM     16  C   UNL     1       6.365   4.293  14.537  0.00  0.00    +0.000 A 
ATOM     17  C   UNL     1       6.183   3.767  13.272  0.00  0.00    +0.000 A 
ATOM     18  C   UNL     1       7.130   4.398  12.420  0.00  0.00    +0.000 A 
ATOM     19  C   UNL     1       7.847   5.257  13.213  0.00  0.00    +0.000 A 
ATOM     20  O   UNL     1       7.395   5.201  14.495  0.00  0.00    +0.000 OA
ENDBRANCH  15  16
ENDBRANCH   6  15
ENDBRANCH   1   3
BRANCH   1  21
ATOM     21  C   UNL     1       2.376   7.808  18.588  0.00  0.00    +0.000 C 
BRANCH  21  25
ATOM     22  C   UNL     1      -0.616  10.910  20.004  0.00  0.00    +0.000 A 
ATOM     23  C   UNL     1      -0.193  10.812  18.671  0.00  0.00    +0.000 A 
ATOM     24  C   UNL     1       0.805   9.869  18.245  0.00  0.00    +0.000 A 
ATOM     25  C   UNL     1       1.431   8.962  19.120  0.00  0.00    +0.000 A 
ATOM     26  C   UNL     1       1.028   9.089  20.468  0.00  0.00    +0.000 A 
ATOM     27  C   UNL     1       0.036  10.048  20.897  0.00  0.00    +0.000 A 
BRANCH  22  30
ATOM     28  O   UNL     1      -3.130  11.823  18.697  0.00  0.00    +0.000 OA
ATOM     29  C   UNL     1      -2.807  12.202  19.805  0.00  0.00    +0.000 C 
ATOM     30  N   UNL     1      -1.649  11.807  20.488  0.00  0.00    +0.000 N 
ATOM     31  H   UNL     1      -1.587  12.072  21.463  0.00  0.00    +0.000 HD
BRANCH  29  32
ATOM     32  C   UNL     1      -3.795  13.139  20.512  0.00  0.00    +0.000 A 
ATOM     33  C   UNL     1      -3.318  14.020  21.512  0.00  0.00    +0.000 A 
ATOM     34  C   UNL     1      -4.192  14.839  22.255  0.00  0.00    +0.000 A 
ATOM     35  C   UNL     1      -5.553  14.777  22.024  0.00  0.00    +0.000 A 
ATOM     36  F   UNL     1      -6.399  15.537  22.735  0.00  0.00    +0.000 F 
ATOM     37  C   UNL     1      -6.067  13.910  21.049  0.00  0.00    +0.000 A 
ATOM     38  C   UNL     1      -5.186  13.090  20.305  0.00  0.00    +0.000 A 
ENDBRANCH  29  32
ENDBRANCH  22  30
ENDBRANCH  21  25
ENDBRANCH   1  21
TORSDOF 7
ENDMDL
MODEL 8
REMARK VINA RESULT:      -8.6      1.427      1.834
REMARK  Name = 
REMARK  7 active torsions:
REMARK  status: ('A' for Active; 'I' for Inactive)
REMARK    1  A    between atoms: C_2  and  C_29
REMARK    2  A    between atoms: N_3  and  C_4
REMARK    3  A    between atoms: C_7  and  C_8
REMARK    4  A    between atoms: C_8  and  N_9
REMARK    5  A    between atoms: N_9  and  C_10
REMARK    6  A    between atoms: N_13  and  C_14
REMARK    7  A    between atoms: C_14  and  C_15
REMARK                            x       y       z     vdW  Elec       q    Type
REMARK                         _______ _______ _______ _____ _____    ______ ____
ROOT
ATOM      1  N   UNL     1       1.971   7.349  18.261  0.00  0.00    +0.000 N 
ATOM      2  H   UNL     1       1.688   6.643  17.571  0.00  0.00    +0.000 HD
ENDROOT
BRANCH   1   3
ATOM      3  C   UNL     1       3.245   6.793  18.560  0.00  0.00    +0.000 A 
ATOM      4  N   UNL     1       4.161   7.208  17.653  0.00  0.00    +0.000 NA
ATOM      5  C   UNL     1       5.294   6.496  17.509  0.00  0.00    +0.000 A 
ATOM      6  N   UNL     1       5.797   6.388  16.216  0.00  0.00    +0.000 N 
ATOM      7  N   UNL     1       5.721   5.592  18.362  0.00  0.00    +0.000 NA
ATOM      8  C   UNL     1       4.768   5.008  19.040  0.00  0.00    +0.000 A 
ATOM      9  C   UNL     1       5.042   3.669  19.254  0.00  0.00    +0.000 A 
ATOM     10  C   UNL     1       4.096   2.828  19.810  0.00  0.00    +0.000 A 
ATOM     11  C   UNL     1       2.931   3.400  20.311  0.00  0.00    +0.000 A 
ATOM     12  C   UNL     1       2.637   4.761  20.071  0.00  0.00    +0.000 A 
ATOM     13  C   UNL     1       3.499   5.575  19.281  0.00  0.00    +0.000 A 
ATOM     14  H   UNL     1       5.020   6.679  15.631  0.00  0.00    +0.000 HD
BRANCH   6  15
ATOM     15  C   UNL     1       6.301   5.040  15.879  0.00  0.00    +0.000 C 
BRANCH  15  16
ATOM     16  C   UNL     1       6.645   4.697  14.444  0.00  0.00    +0.000 A 
ATOM     17  C   UNL     1       6.161   3.811  13.501  0.00  0.00    +0.000 A 
ATOM     18  C   UNL     1       6.889   4.041  12.303  0.00  0.00    +0.000 A 
ATOM     19  C   UNL     1       7.787   5.039  12.585  0.00  0.00    +0.000 A 
ATOM     20  O   UNL     1       7.651   5.442  13.877  0.00  0.00    +0.000 OA
ENDBRANCH  15  16
ENDBRANCH   6  15
ENDBRANCH   1   3
BRANCH   1  21
ATOM     21  C   UNL     1       1.728   8.621  17.523  0.00  0.00    +0.000 C 
BRANCH  21  25
ATOM     22  C   UNL     1      -0.445  11.569  20.200  0.00  0.00    +0.000 A 
ATOM     23  C   UNL     1      -1.065  10.916  19.127  0.00  0.00    +0.000 A 
ATOM     24  C   UNL     1      -0.351  10.034  18.243  0.00  0.00    +0.000 A 
ATOM     25  C   UNL     1       1.018   9.744  18.386  0.00  0.00    +0.000 A 
ATOM     26  C   UNL     1       1.647  10.433  19.448  0.00  0.00    +0.000 A 
ATOM     27  C   UNL     1       0.931  11.330  20.325  0.00  0.00    +0.000 A 
BRANCH  22  30
ATOM     28  O   UNL     1      -0.630  11.380  23.165  0.00  0.00    +0.000 OA
ATOM     29  C   UNL     1      -1.172  12.272  22.543  0.00  0.00    +0.000 C 
ATOM     30  N   UNL     1      -1.118  12.433  21.152  0.00  0.00    +0.000 N 
ATOM     31  H   UNL     1      -1.476  13.307  20.784  0.00  0.00    +0.000 HD
BRANCH  29  32
ATOM     32  C   UNL     1      -1.914  13.324  23.379  0.00  0.00    +0.000 A 
ATOM     33  C   UNL     1      -3.318  13.223  23.527  0.00  0.00    +0.000 A 
ATOM     34  C   UNL     1      -4.063  14.207  24.209  0.00  0.00    +0.000 A 
ATOM     35  C   UNL     1      -3.420  15.312  24.734  0.00  0.00    +0.000 A 
ATOM     36  F   UNL     1      -4.117  16.266  25.370  0.00  0.00    +0.000 F 
ATOM     37  C   UNL     1      -2.031  15.454  24.600  0.00  0.00    +0.000 A 
ATOM     38  C   UNL     1      -1.288  14.463  23.915  0.00  0.00    +0.000 A 
ENDBRANCH  29  32
ENDBRANCH  22  30
ENDBRANCH  21  25
ENDBRANCH   1  21
TORSDOF 7
ENDMDL
MODEL 9
REMARK VINA RESULT:      -8.6      1.187      1.797
REMARK  Name = 
REMARK  7 active torsions:
REMARK  status: ('A' for Active; 'I' for Inactive)
REMARK    1  A    between atoms: C_2  and  C_29
REMARK    2  A    between atoms: N_3  and  C_4
REMARK    3  A    between atoms: C_7  and  C_8
REMARK    4  A    between atoms: C_8  and  N_9
REMARK    5  A    between atoms: N_9  and  C_10
REMARK    6  A    between atoms: N_13  and  C_14
REMARK    7  A    between atoms: C_14  and  C_15
REMARK                            x       y       z     vdW  Elec       q    Type
REMARK                         _______ _______ _______ _____ _____    ______ ____
ROOT
ATOM      1  N   UNL     1       3.083   6.711  20.031  0.00  0.00    +0.000 N 
ATOM      2  H   UNL     1       2.538   6.351  20.823  0.00  0.00    +0.000 HD
ENDROOT
BRANCH   1   3
ATOM      3  C   UNL     1       3.635   5.464  19.625  0.00  0.00    +0.000 A 
ATOM      4  N   UNL     1       4.742   5.666  18.871  0.00  0.00    +0.000 NA
ATOM      5  C   UNL     1       5.164   4.673  18.066  0.00  0.00    +0.000 A 
ATOM      6  N   UNL     1       5.693   5.056  16.837  0.00  0.00    +0.000 N 
ATOM      7  N   UNL     1       4.763   3.425  18.149  0.00  0.00    +0.000 NA
ATOM      8  C   UNL     1       3.560   3.283  18.638  0.00  0.00    +0.000 A 
ATOM      9  C   UNL     1       2.875   2.253  18.019  0.00  0.00    +0.000 A 
ATOM     10  C   UNL     1       1.535   2.035  18.273  0.00  0.00    +0.000 A 
ATOM     11  C   UNL     1       0.938   2.764  19.297  0.00  0.00    +0.000 A 
ATOM     12  C   UNL     1       1.626   3.833  19.913  0.00  0.00    +0.000 A 
ATOM     13  C   UNL     1       2.927   4.221  19.481  0.00  0.00    +0.000 A 
ATOM     14  H   UNL     1       5.393   6.021  16.737  0.00  0.00    +0.000 HD
BRANCH   6  15
ATOM     15  C   UNL     1       5.269   4.200  15.710  0.00  0.00    +0.000 C 
BRANCH  15  16
ATOM     16  C   UNL     1       6.033   4.236  14.403  0.00  0.00    +0.000 A 
ATOM     17  C   UNL     1       5.920   3.603  13.179  0.00  0.00    +0.000 A 
ATOM     18  C   UNL     1       6.929   4.144  12.338  0.00  0.00    +0.000 A 
ATOM     19  C   UNL     1       7.613   5.060  13.096  0.00  0.00    +0.000 A 
ATOM     20  O   UNL     1       7.081   5.122  14.347  0.00  0.00    +0.000 OA
ENDBRANCH  15  16
ENDBRANCH   6  15
ENDBRANCH   1   3
BRANCH   1  21
ATOM     21  C   UNL     1       2.062   7.497  19.281  0.00  0.00    +0.000 C 
BRANCH  21  25
ATOM     22  C   UNL     1      -0.053  10.850  21.484  0.00  0.00    +0.000 A 
ATOM     23  C   UNL     1       0.423  10.983  20.173  0.00  0.00    +0.000 A 
ATOM     24  C   UNL     1       1.151   9.936  19.507  0.00  0.00    +0.000 A 
ATOM     25  C   UNL     1       1.436   8.695  20.105  0.00  0.00    +0.000 A 
ATOM     26  C   UNL     1       0.986   8.581  21.440  0.00  0.00    +0.000 A 
ATOM     27  C   UNL     1       0.268   9.639  22.112  0.00  0.00    +0.000 A 
BRANCH  22  30
ATOM     28  O   UNL     1      -2.588  12.208  20.716  0.00  0.00    +0.000 OA
ATOM     29  C   UNL     1      -2.017  12.455  21.759  0.00  0.00    +0.000 C 
ATOM     30  N   UNL     1      -0.831  11.849  22.194  0.00  0.00    +0.000 N 
ATOM     31  H   UNL     1      -0.555  12.030  23.152  0.00  0.00    +0.000 HD
BRANCH  29  32
ATOM     32  C   UNL     1      -2.706  13.471  22.682  0.00  0.00    +0.000 A 
ATOM     33  C   UNL     1      -2.519  14.854  22.448  0.00  0.00    +0.000 A 
ATOM     34  C   UNL     1      -3.054  15.830  23.314  0.00  0.00    +0.000 A 
ATOM     35  C   UNL     1      -3.766  15.439  24.432  0.00  0.00    +0.000 A 
ATOM     36  F   UNL     1      -4.267  16.355  25.274  0.00  0.00    +0.000 F 
ATOM     37  C   UNL     1      -3.966  14.078  24.704  0.00  0.00    +0.000 A 
ATOM     38  C   UNL     1      -3.426  13.102  23.832  0.00  0.00    +0.000 A 
ENDBRANCH  29  32
ENDBRANCH  22  30
ENDBRANCH  21  25
ENDBRANCH   1  21
TORSDOF 7
ENDMDL
