MODEL 1
REMARK VINA RESULT:      -9.5      0.000      0.000
REMARK  Name = 
REMARK  4 active torsions:
REMARK  status: ('A' for Active; 'I' for Inactive)
REMARK    1  A    between atoms: C_4  and  N_5
REMARK    2  A    between atoms: N_5  and  C_6
REMARK    3  A    between atoms: C_6  and  C_7
REMARK    4  A    between atoms: C_7  and  N_8
REMARK                            x       y       z     vdW  Elec       q    Type
REMARK                         _______ _______ _______ _____ _____    ______ ____
ROOT
ATOM      1  N   UNL     1       6.205   6.164  17.351  0.00  0.00    +0.000 NA
ATOM      2  C   UNL     1       4.890   7.349  17.575  0.00  0.00    +0.000 C 
ATOM      3  C   UNL     1       3.242   6.718  17.302  0.00  0.00    +0.000 C 
ATOM      4  C   UNL     1       3.017   5.105  17.407  0.00  0.00    +0.000 C 
ATOM      5  C   UNL     1       3.891   3.857  16.842  0.00  0.00    +0.000 C 
ATOM      6  C   UNL     1       5.750   4.141  17.030  0.00  0.00    +0.000 C 
ATOM      7  C   UNL     1       2.555   4.641  18.775  0.00  0.00    +0.000 A 
ATOM      8  C   UNL     1       1.328   3.961  18.811  0.00  0.00    +0.000 A 
ATOM      9  C   UNL     1       0.813   3.480  20.014  0.00  0.00    +0.000 A 
ATOM     10  C   UNL     1       1.500   3.699  21.204  0.00  0.00    +0.000 A 
ATOM     11  C   UNL     1       2.756   4.297  21.177  0.00  0.00    +0.000 A 
ATOM     12  C   UNL     1       3.328   4.697  19.974  0.00  0.00    +0.000 A 
ATOM     13  O   UNL     1       4.661   5.005  20.044  0.00  0.00    +0.000 OA
ATOM     14  C   UNL     1       5.322   5.044  18.858  0.00  0.00    +0.000 A 
ATOM     15  C   UNL     1       7.031   4.680  18.706  0.00  0.00    +0.000 A 
ATOM     16  C   UNL     1       7.764   4.591  17.079  0.00  0.00    +0.000 A 
ATOM     17  C   UNL     1       6.912   5.122  15.574  0.00  0.00    +0.000 A 
ATOM     18  C   UNL     1       5.190   5.528  15.661  0.00  0.00    +0.000 A 
ATOM     19  C   UNL     1       4.389   5.352  17.338  0.00  0.00    +0.000 A 
ENDROOT
BRANCH   1  20
ATOM     20  C   UNL     1       7.449   7.165  17.147  0.00  0.00    +0.000 C 
BRANCH  20  21
ATOM     21  C   UNL     1       8.007   8.193  18.194  0.00  0.00    +0.000 C 
BRANCH  21  22
ATOM     22  N   UNL     1       8.115   9.615  17.864  0.00  0.00    +0.000 N 
ATOM     23  H   UNL     1       7.217  10.038  18.118  0.00  0.00    +0.000 HD
BRANCH  22  27
ATOM     24  C   UNL     1      11.229  11.758  19.727  0.00  0.00    +0.000 A 
ATOM     25  C   UNL     1      11.070  11.749  18.344  0.00  0.00    +0.000 A 
ATOM     26  C   UNL     1       9.987  11.091  17.766  0.00  0.00    +0.000 A 
ATOM     27  C   UNL     1       9.079  10.383  18.553  0.00  0.00    +0.000 A 
ATOM     28  C   UNL     1       9.160  10.555  19.942  0.00  0.00    +0.000 A 
ATOM     29  C   UNL     1      10.244  11.204  20.532  0.00  0.00    +0.000 A 
ENDBRANCH  22  27
ENDBRANCH  21  22
ENDBRANCH  20  21
ENDBRANCH   1  20
TORSDOF 4
ENDMDL
MODEL 2
REMARK VINA RESULT:      -9.1      0.552      1.049
REMARK  Name = 
REMARK  4 active torsions:
REMARK  status: ('A' for Active; 'I' for Inactive)
REMARK    1  A    between atoms: C_4  and  N_5
REMARK    2  A    between atoms: N_5  and  C_6
REMARK    3  A    between atoms: C_6  and  C_7
REMARK    4  A    between atoms: C_7  and  N_8
REMARK                            x       y       z     vdW  Elec       q    Type
REMARK                         _______ _______ _______ _____ _____    ______ ____
ROOT
ATOM      1  N   UNL     1       6.133   6.180  17.404  0.00  0.00    +0.000 NA
ATOM      2  C   UNL     1       4.770   7.316  17.595  0.00  0.00    +0.000 C 
ATOM      3  C   UNL     1       3.152   6.620  17.303  0.00  0.00    +0.000 C 
ATOM      4  C   UNL     1       2.987   5.001  17.422  0.00  0.00    +0.000 C 
ATOM      5  C   UNL     1       3.918   3.782  16.884  0.00  0.00    +0.000 C 
ATOM      6  C   UNL     1       5.761   4.138  17.098  0.00  0.00    +0.000 C 
ATOM      7  C   UNL     1       2.521   4.533  18.787  0.00  0.00    +0.000 A 
ATOM      8  C   UNL     1       1.321   3.806  18.811  0.00  0.00    +0.000 A 
ATOM      9  C   UNL     1       0.805   3.318  20.011  0.00  0.00    +0.000 A 
ATOM     10  C   UNL     1       1.463   3.575  21.208  0.00  0.00    +0.000 A 
ATOM     11  C   UNL     1       2.696   4.221  21.195  0.00  0.00    +0.000 A 
ATOM     12  C   UNL     1       3.272   4.630  19.997  0.00  0.00    +0.000 A 
ATOM     13  O   UNL     1       4.591   4.990  20.085  0.00  0.00    +0.000 OA
ATOM     14  C   UNL     1       5.269   5.043  18.910  0.00  0.00    +0.000 A 
ATOM     15  C   UNL     1       6.993   4.743  18.789  0.00  0.00    +0.000 A 
ATOM     16  C   UNL     1       7.755   4.666  17.175  0.00  0.00    +0.000 A 
ATOM     17  C   UNL     1       6.908   5.149  15.650  0.00  0.00    +0.000 A 
ATOM     18  C   UNL     1       5.171   5.489  15.706  0.00  0.00    +0.000 A 
ATOM     19  C   UNL     1       4.350   5.300  17.371  0.00  0.00    +0.000 A 
ENDROOT
BRANCH   1  20
ATOM     20  C   UNL     1       7.341   7.227  17.210  0.00  0.00    +0.000 C 
BRANCH  20  21
ATOM     21  C   UNL     1       7.550   8.573  17.991  0.00  0.00    +0.000 C 
BRANCH  21  22
ATOM     22  N   UNL     1       8.735   8.778  18.826  0.00  0.00    +0.000 N 
ATOM     23  H   UNL     1       9.502   8.279  18.363  0.00  0.00    +0.000 HD
BRANCH  22  27
ATOM     24  C   UNL     1       9.895  12.772  19.507  0.00  0.00    +0.000 A 
ATOM     25  C   UNL     1       9.651  11.889  20.556  0.00  0.00    +0.000 A 
ATOM     26  C   UNL     1       9.342  10.556  20.295  0.00  0.00    +0.000 A 
ATOM     27  C   UNL     1       9.212  10.097  18.985  0.00  0.00    +0.000 A 
ATOM     28  C   UNL     1       9.633  10.953  17.958  0.00  0.00    +0.000 A 
ATOM     29  C   UNL     1       9.937  12.292  18.206  0.00  0.00    +0.000 A 
ENDBRANCH  22  27
ENDBRANCH  21  22
ENDBRANCH  20  21
ENDBRANCH   1  20
TORSDOF 4
ENDMDL
MODEL 3
REMARK VINA RESULT:      -7.9      3.601      9.713
REMARK  Name = 
REMARK  4 active torsions:
REMARK  status: ('A' for Active; 'I' for Inactive)
REMARK    1  A    between atoms: C_4  and  N_5
REMARK    2  A    between atoms: N_5  and  C_6
REMARK    3  A    between atoms: C_6  and  C_7
REMARK    4  A    between atoms: C_7  and  N_8
REMARK                            x       y       z     vdW  Elec       q    Type
REMARK                         _______ _______ _______ _____ _____    ______ ____
ROOT
ATOM      1  N   UNL     1       9.728  11.697  19.320  0.00  0.00    +0.000 NA
ATOM      2  C   UNL     1       9.010  11.427  20.932  0.00  0.00    +0.000 C 
ATOM      3  C   UNL     1       9.477  12.614  22.181  0.00  0.00    +0.000 C 
ATOM      4  C   UNL     1      10.030  14.066  21.684  0.00  0.00    +0.000 C 
ATOM      5  C   UNL     1      11.073  14.474  20.506  0.00  0.00    +0.000 C 
ATOM      6  C   UNL     1      10.831  13.441  18.943  0.00  0.00    +0.000 C 
ATOM      7  C   UNL     1       8.958  15.136  21.612  0.00  0.00    +0.000 A 
ATOM      8  C   UNL     1       9.173  16.275  22.404  0.00  0.00    +0.000 A 
ATOM      9  C   UNL     1       8.256  17.325  22.407  0.00  0.00    +0.000 A 
ATOM     10  C   UNL     1       7.097  17.241  21.643  0.00  0.00    +0.000 A 
ATOM     11  C   UNL     1       6.908  16.159  20.789  0.00  0.00    +0.000 A 
ATOM     12  C   UNL     1       7.858  15.148  20.701  0.00  0.00    +0.000 A 
ATOM     13  O   UNL     1       7.701  14.300  19.638  0.00  0.00    +0.000 OA
ATOM     14  C   UNL     1       8.784  13.545  19.317  0.00  0.00    +0.000 A 
ATOM     15  C   UNL     1       9.111  12.989  17.686  0.00  0.00    +0.000 A 
ATOM     16  C   UNL     1      10.650  12.152  17.341  0.00  0.00    +0.000 A 
ATOM     17  C   UNL     1      11.790  11.593  18.631  0.00  0.00    +0.000 A 
ATOM     18  C   UNL     1      11.505  12.098  20.304  0.00  0.00    +0.000 A 
ATOM     19  C   UNL     1      10.026  13.199  20.588  0.00  0.00    +0.000 A 
ENDROOT
BRANCH   1  20
ATOM     20  C   UNL     1       9.536  10.231  18.683  0.00  0.00    +0.000 C 
BRANCH  20  21
ATOM     21  C   UNL     1       8.199   9.609  18.144  0.00  0.00    +0.000 C 
BRANCH  21  22
ATOM     22  N   UNL     1       8.210   8.375  17.357  0.00  0.00    +0.000 N 
ATOM     23  H   UNL     1       9.188   8.068  17.320  0.00  0.00    +0.000 HD
BRANCH  22  27
ATOM     24  C   UNL     1       5.829   5.250  18.881  0.00  0.00    +0.000 A 
ATOM     25  C   UNL     1       5.452   5.977  17.754  0.00  0.00    +0.000 A 
ATOM     26  C   UNL     1       6.298   6.954  17.234  0.00  0.00    +0.000 A 
ATOM     27  C   UNL     1       7.505   7.262  17.862  0.00  0.00    +0.000 A 
ATOM     28  C   UNL     1       7.938   6.401  18.881  0.00  0.00    +0.000 A 
ATOM     29  C   UNL     1       7.097   5.426  19.415  0.00  0.00    +0.000 A 
ENDBRANCH  22  27
ENDBRANCH  21  22
ENDBRANCH  20  21
ENDBRANCH   1  20
TORSDOF 4
ENDMDL
MODEL 4
REMARK VINA RESULT:      -7.8      3.238      6.398
REMARK  Name = 
REMARK  4 active torsions:
REMARK  status: ('A' for Active; 'I' for Inactive)
REMARK    1  A    between atoms: C_4  and  N_5
REMARK    2  A    between atoms: N_5  and  C_6
REMARK    3  A    between atoms: C_6  and  C_7
REMARK    4  A    between atoms: C_7  and  N_8
REMARK                            x       y       z     vdW  Elec       q    Type
REMARK                         _______ _______ _______ _____ _____    ______ ____
ROOT
ATOM      1  N   UNL     1       5.450   5.200  16.506  0.00  0.00    +0.000 NA
ATOM      2  C   UNL     1       4.957   3.507  16.225  0.00  0.00    +0.000 C 
ATOM      3  C   UNL     1       4.837   2.497  17.692  0.00  0.00    +0.000 C 
ATOM      4  C   UNL     1       4.651   3.253  19.125  0.00  0.00    +0.000 C 
ATOM      5  C   UNL     1       5.374   4.568  19.750  0.00  0.00    +0.000 C 
ATOM      6  C   UNL     1       5.618   5.931  18.465  0.00  0.00    +0.000 C 
ATOM      7  C   UNL     1       3.205   3.386  19.562  0.00  0.00    +0.000 A 
ATOM      8  C   UNL     1       2.878   2.795  20.793  0.00  0.00    +0.000 A 
ATOM      9  C   UNL     1       1.580   2.866  21.297  0.00  0.00    +0.000 A 
ATOM     10  C   UNL     1       0.582   3.501  20.565  0.00  0.00    +0.000 A 
ATOM     11  C   UNL     1       0.905   4.164  19.385  0.00  0.00    +0.000 A 
ATOM     12  C   UNL     1       2.214   4.185  18.916  0.00  0.00    +0.000 A 
ATOM     13  O   UNL     1       2.454   5.092  17.918  0.00  0.00    +0.000 OA
ATOM     14  C   UNL     1       3.759   5.393  17.693  0.00  0.00    +0.000 A 
ATOM     15  C   UNL     1       4.287   6.946  17.072  0.00  0.00    +0.000 A 
ATOM     16  C   UNL     1       6.035   7.300  16.977  0.00  0.00    +0.000 A 
ATOM     17  C   UNL     1       7.319   6.049  17.230  0.00  0.00    +0.000 A 
ATOM     18  C   UNL     1       6.852   4.451  17.833  0.00  0.00    +0.000 A 
ATOM     19  C   UNL     1       5.035   4.202  18.176  0.00  0.00    +0.000 A 
ENDROOT
BRANCH   1  20
ATOM     20  C   UNL     1       5.950   5.591  15.027  0.00  0.00    +0.000 C 
BRANCH  20  21
ATOM     21  C   UNL     1       7.125   4.925  14.227  0.00  0.00    +0.000 C 
BRANCH  21  22
ATOM     22  N   UNL     1       7.123   4.914  12.763  0.00  0.00    +0.000 N 
ATOM     23  H   UNL     1       8.094   5.071  12.473  0.00  0.00    +0.000 HD
BRANCH  22  27
ATOM     24  C   UNL     1       5.786   1.289  11.081  0.00  0.00    +0.000 A 
ATOM     25  C   UNL     1       4.897   2.275  11.499  0.00  0.00    +0.000 A 
ATOM     26  C   UNL     1       5.375   3.492  11.983  0.00  0.00    +0.000 A 
ATOM     27  C   UNL     1       6.744   3.721  12.111  0.00  0.00    +0.000 A 
ATOM     28  C   UNL     1       7.610   2.789  11.522  0.00  0.00    +0.000 A 
ATOM     29  C   UNL     1       7.145   1.565  11.043  0.00  0.00    +0.000 A 
ENDBRANCH  22  27
ENDBRANCH  21  22
ENDBRANCH  20  21
ENDBRANCH   1  20
TORSDOF 4
ENDMDL
MODEL 5
REMARK VINA RESULT:      -7.5      7.227     10.157
REMARK  Name = 
REMARK  4 active torsions:
REMARK  status: ('A' for Active; 'I' for Inactive)
REMARK    1  A    between atoms: C_4  and  N_5
REMARK    2  A    between atoms: N_5  and  C_6
REMARK    3  A    between atoms: C_6  and  C_7
REMARK    4  A    between atoms: C_7  and  N_8
REMARK                            x       y       z     vdW  Elec       q    Type
REMARK                         _______ _______ _______ _____ _____    ______ ____
ROOT
ATOM      1  N   UNL     1       9.224  16.003  19.655  0.00  0.00    +0.000 NA
ATOM      2  C   UNL     1      10.707  15.630  20.575  0.00  0.00    +0.000 C 
ATOM      3  C   UNL     1      10.548  15.735  22.350  0.00  0.00    +0.000 C 
ATOM      4  C   UNL     1       9.052  15.623  22.989  0.00  0.00    +0.000 C 
ATOM      5  C   UNL     1       7.638  16.289  22.542  0.00  0.00    +0.000 C 
ATOM      6  C   UNL     1       7.409  16.295  20.666  0.00  0.00    +0.000 C 
ATOM      7  C   UNL     1       8.676  14.219  23.422  0.00  0.00    +0.000 A 
ATOM      8  C   UNL     1       8.345  14.062  24.777  0.00  0.00    +0.000 A 
ATOM      9  C   UNL     1       7.974  12.816  25.282  0.00  0.00    +0.000 A 
ATOM     10  C   UNL     1       7.957  11.704  24.448  0.00  0.00    +0.000 A 
ATOM     11  C   UNL     1       8.199  11.856  23.086  0.00  0.00    +0.000 A 
ATOM     12  C   UNL     1       8.477  13.107  22.549  0.00  0.00    +0.000 A 
ATOM     13  O   UNL     1       8.416  13.174  21.182  0.00  0.00    +0.000 OA
ATOM     14  C   UNL     1       8.323  14.422  20.654  0.00  0.00    +0.000 A 
ATOM     15  C   UNL     1       7.523  14.756  19.129  0.00  0.00    +0.000 A 
ATOM     16  C   UNL     1       7.304  16.452  18.611  0.00  0.00    +0.000 A 
ATOM     17  C   UNL     1       8.100  17.854  19.432  0.00  0.00    +0.000 A 
ATOM     18  C   UNL     1       8.946  17.583  20.965  0.00  0.00    +0.000 A 
ATOM     19  C   UNL     1       8.927  15.834  21.614  0.00  0.00    +0.000 A 
ENDROOT
BRANCH   1  20
ATOM     20  C   UNL     1       9.865  16.325  18.214  0.00  0.00    +0.000 C 
BRANCH  20  21
ATOM     21  C   UNL     1      10.795  15.383  17.369  0.00  0.00    +0.000 C 
BRANCH  21  22
ATOM     22  N   UNL     1      10.328  14.068  16.929  0.00  0.00    +0.000 N 
ATOM     23  H   UNL     1      10.926  13.800  16.141  0.00  0.00    +0.000 HD
BRANCH  22  27
ATOM     24  C   UNL     1      10.308  10.908  19.718  0.00  0.00    +0.000 A 
ATOM     25  C   UNL     1       9.368  10.989  18.694  0.00  0.00    +0.000 A 
ATOM     26  C   UNL     1       9.448  12.007  17.746  0.00  0.00    +0.000 A 
ATOM     27  C   UNL     1      10.430  12.992  17.837  0.00  0.00    +0.000 A 
ATOM     28  C   UNL     1      11.462  12.788  18.764  0.00  0.00    +0.000 A 
ATOM     29  C   UNL     1      11.389  11.779  19.724  0.00  0.00    +0.000 A 
ENDBRANCH  22  27
ENDBRANCH  21  22
ENDBRANCH  20  21
ENDBRANCH   1  20
TORSDOF 4
ENDMDL
MODEL 6
REMARK VINA RESULT:      -7.5      3.973     10.382
REMARK  Name = 
REMARK  4 active torsions:
REMARK  status: ('A' for Active; 'I' for Inactive)
REMARK    1  A    between atoms: C_4  and  N_5
REMARK    2  A    between atoms: N_5  and  C_6
REMARK    3  A    between atoms: C_6  and  C_7
REMARK    4  A    between atoms: C_7  and  N_8
REMARK                            x       y       z     vdW  Elec       q    Type
REMARK                         _______ _______ _______ _____ _____    ______ ____
ROOT
ATOM      1  N   UNL     1       9.785  12.044  18.432  0.00  0.00    +0.000 NA
ATOM      2  C   UNL     1       8.325  12.764  17.700  0.00  0.00    +0.000 C 
ATOM      3  C   UNL     1       7.742  14.260  18.480  0.00  0.00    +0.000 C 
ATOM      4  C   UNL     1       8.802  15.115  19.378  0.00  0.00    +0.000 C 
ATOM      5  C   UNL     1       9.912  14.645  20.469  0.00  0.00    +0.000 C 
ATOM      6  C   UNL     1      10.819  13.074  19.939  0.00  0.00    +0.000 C 
ATOM      7  C   UNL     1       9.486  16.233  18.616  0.00  0.00    +0.000 A 
ATOM      8  C   UNL     1       9.307  17.527  19.131  0.00  0.00    +0.000 A 
ATOM      9  C   UNL     1       9.900  18.628  18.516  0.00  0.00    +0.000 A 
ATOM     10  C   UNL     1      10.654  18.459  17.360  0.00  0.00    +0.000 A 
ATOM     11  C   UNL     1      10.912  17.177  16.883  0.00  0.00    +0.000 A 
ATOM     12  C   UNL     1      10.408  16.060  17.540  0.00  0.00    +0.000 A 
ATOM     13  O   UNL     1      10.956  14.867  17.149  0.00  0.00    +0.000 OA
ATOM     14  C   UNL     1      10.762  13.822  17.995  0.00  0.00    +0.000 A 
ATOM     15  C   UNL     1      11.892  12.488  18.138  0.00  0.00    +0.000 A 
ATOM     16  C   UNL     1      11.632  11.254  19.403  0.00  0.00    +0.000 A 
ATOM     17  C   UNL     1      10.116  11.141  20.385  0.00  0.00    +0.000 A 
ATOM     18  C   UNL     1       8.921  12.442  20.271  0.00  0.00    +0.000 A 
ATOM     19  C   UNL     1       9.352  13.855  19.131  0.00  0.00    +0.000 A 
ENDROOT
BRANCH   1  20
ATOM     20  C   UNL     1       9.672  10.544  17.858  0.00  0.00    +0.000 C 
BRANCH  20  21
ATOM     21  C   UNL     1       8.459   9.562  18.032  0.00  0.00    +0.000 C 
BRANCH  21  22
ATOM     22  N   UNL     1       8.627   8.279  18.716  0.00  0.00    +0.000 N 
ATOM     23  H   UNL     1       8.326   8.429  19.685  0.00  0.00    +0.000 HD
BRANCH  22  27
ATOM     24  C   UNL     1       6.613   4.837  17.352  0.00  0.00    +0.000 A 
ATOM     25  C   UNL     1       7.482   4.796  18.439  0.00  0.00    +0.000 A 
ATOM     26  C   UNL     1       8.074   5.967  18.909  0.00  0.00    +0.000 A 
ATOM     27  C   UNL     1       7.855   7.185  18.268  0.00  0.00    +0.000 A 
ATOM     28  C   UNL     1       6.846   7.228  17.296  0.00  0.00    +0.000 A 
ATOM     29  C   UNL     1       6.252   6.063  16.811  0.00  0.00    +0.000 A 
ENDBRANCH  22  27
ENDBRANCH  21  22
ENDBRANCH  20  21
ENDBRANCH   1  20
TORSDOF 4
ENDMDL
MODEL 7
REMARK VINA RESULT:      -7.4      3.335      7.343
REMARK  Name = 
REMARK  4 active torsions:
REMARK  status: ('A' for Active; 'I' for Inactive)
REMARK    1  A    between atoms: C_4  and  N_5
REMARK    2  A    between atoms: N_5  and  C_6
REMARK    3  A    between atoms: C_6  and  C_7
REMARK    4  A    between atoms: C_7  and  N_8
REMARK                            x       y       z     vdW  Elec       q    Type
REMARK                         _______ _______ _______ _____ _____    ______ ____
ROOT
ATOM      1  N   UNL     1       4.976   5.705  17.976  0.00  0.00    +0.000 NA
ATOM      2  C   UNL     1       4.848   6.991  16.744  0.00  0.00    +0.000 C 
ATOM      3  C   UNL     1       6.149   7.007  15.523  0.00  0.00    +0.000 C 
ATOM      4  C   UNL     1       6.992   5.630  15.289  0.00  0.00    +0.000 C 
ATOM      5  C   UNL     1       7.608   4.554  16.340  0.00  0.00    +0.000 C 
ATOM      6  C   UNL     1       6.441   4.216  17.787  0.00  0.00    +0.000 C 
ATOM      7  C   UNL     1       6.461   4.774  14.155  0.00  0.00    +0.000 A 
ATOM      8  C   UNL     1       7.365   4.502  13.116  0.00  0.00    +0.000 A 
ATOM      9  C   UNL     1       6.987   3.717  12.028  0.00  0.00    +0.000 A 
ATOM     10  C   UNL     1       5.692   3.216  11.946  0.00  0.00    +0.000 A 
ATOM     11  C   UNL     1       4.809   3.404  13.006  0.00  0.00    +0.000 A 
ATOM     12  C   UNL     1       5.201   4.105  14.142  0.00  0.00    +0.000 A 
ATOM     13  O   UNL     1       4.358   3.980  15.214  0.00  0.00    +0.000 OA
ATOM     14  C   UNL     1       4.875   4.338  16.418  0.00  0.00    +0.000 A 
ATOM     15  C   UNL     1       4.350   3.625  17.932  0.00  0.00    +0.000 A 
ATOM     16  C   UNL     1       5.216   4.039  19.439  0.00  0.00    +0.000 A 
ATOM     17  C   UNL     1       6.440   5.367  19.550  0.00  0.00    +0.000 A 
ATOM     18  C   UNL     1       6.997   6.147  18.061  0.00  0.00    +0.000 A 
ATOM     19  C   UNL     1       6.261   5.501  16.472  0.00  0.00    +0.000 A 
ENDROOT
BRANCH   1  20
ATOM     20  C   UNL     1       4.024   6.321  19.118  0.00  0.00    +0.000 C 
BRANCH  20  21
ATOM     21  C   UNL     1       2.478   6.577  19.015  0.00  0.00    +0.000 C 
BRANCH  21  22
ATOM     22  N   UNL     1       1.558   6.021  20.009  0.00  0.00    +0.000 N 
ATOM     23  H   UNL     1       0.613   6.233  19.676  0.00  0.00    +0.000 HD
BRANCH  22  27
ATOM     24  C   UNL     1       1.901   1.872  20.668  0.00  0.00    +0.000 A 
ATOM     25  C   UNL     1       2.315   2.802  21.617  0.00  0.00    +0.000 A 
ATOM     26  C   UNL     1       2.119   4.164  21.398  0.00  0.00    +0.000 A 
ATOM     27  C   UNL     1       1.563   4.623  20.205  0.00  0.00    +0.000 A 
ATOM     28  C   UNL     1       0.996   3.666  19.350  0.00  0.00    +0.000 A 
ATOM     29  C   UNL     1       1.193   2.301  19.554  0.00  0.00    +0.000 A 
ENDBRANCH  22  27
ENDBRANCH  21  22
ENDBRANCH  20  21
ENDBRANCH   1  20
TORSDOF 4
ENDMDL
MODEL 8
REMARK VINA RESULT:      -7.3      3.770      6.731
REMARK  Name = 
REMARK  4 active torsions:
REMARK  status: ('A' for Active; 'I' for Inactive)
REMARK    1  A    between atoms: C_4  and  N_5
REMARK    2  A    between atoms: N_5  and  C_6
REMARK    3  A    between atoms: C_6  and  C_7
REMARK    4  A    between atoms: C_7  and  N_8
REMARK                            x       y       z     vdW  Elec       q    Type
REMARK                         _______ _______ _______ _____ _____    ______ ____
ROOT
ATOM      1  N   UNL     1       4.254   5.213  18.052  0.00  0.00    +0.000 NA
ATOM      2  C   UNL     1       4.139   6.615  16.953  0.00  0.00    +0.000 C 
ATOM      3  C   UNL     1       5.610   6.960  16.002  0.00  0.00    +0.000 C 
ATOM      4  C   UNL     1       6.682   5.748  15.791  0.00  0.00    +0.000 C 
ATOM      5  C   UNL     1       7.270   4.640  16.824  0.00  0.00    +0.000 C 
ATOM      6  C   UNL     1       5.943   3.969  17.989  0.00  0.00    +0.000 C 
ATOM      7  C   UNL     1       6.488   4.980  14.498  0.00  0.00    +0.000 A 
ATOM      8  C   UNL     1       7.585   4.965  13.622  0.00  0.00    +0.000 A 
ATOM      9  C   UNL     1       7.521   4.280  12.410  0.00  0.00    +0.000 A 
ATOM     10  C   UNL     1       6.352   3.625  12.040  0.00  0.00    +0.000 A 
ATOM     11  C   UNL     1       5.285   3.558  12.931  0.00  0.00    +0.000 A 
ATOM     12  C   UNL     1       5.367   4.155  14.184  0.00  0.00    +0.000 A 
ATOM     13  O   UNL     1       4.385   3.784  15.064  0.00  0.00    +0.000 OA
ATOM     14  C   UNL     1       4.630   4.052  16.373  0.00  0.00    +0.000 A 
ATOM     15  C   UNL     1       3.974   3.090  17.684  0.00  0.00    +0.000 A 
ATOM     16  C   UNL     1       4.498   3.422  19.359  0.00  0.00    +0.000 A 
ATOM     17  C   UNL     1       5.467   4.877  19.828  0.00  0.00    +0.000 A 
ATOM     18  C   UNL     1       6.140   5.907  18.554  0.00  0.00    +0.000 A 
ATOM     19  C   UNL     1       5.791   5.375  16.799  0.00  0.00    +0.000 A 
ENDROOT
BRANCH   1  20
ATOM     20  C   UNL     1       3.040   5.546  19.054  0.00  0.00    +0.000 C 
BRANCH  20  21
ATOM     21  C   UNL     1       2.500   6.970  19.434  0.00  0.00    +0.000 C 
BRANCH  21  22
ATOM     22  N   UNL     1       1.903   7.220  20.747  0.00  0.00    +0.000 N 
ATOM     23  H   UNL     1       2.682   7.272  21.411  0.00  0.00    +0.000 HD
BRANCH  22  27
ATOM     24  C   UNL     1       0.046  10.981  21.151  0.00  0.00    +0.000 A 
ATOM     25  C   UNL     1       0.510  10.521  19.922  0.00  0.00    +0.000 A 
ATOM     26  C   UNL     1       1.052   9.242  19.810  0.00  0.00    +0.000 A 
ATOM     27  C   UNL     1       1.194   8.426  20.933  0.00  0.00    +0.000 A 
ATOM     28  C   UNL     1       0.562   8.841  22.114  0.00  0.00    +0.000 A 
ATOM     29  C   UNL     1       0.024  10.121  22.240  0.00  0.00    +0.000 A 
ENDBRANCH  22  27
ENDBRANCH  21  22
ENDBRANCH  20  21
ENDBRANCH   1  20
TORSDOF 4
ENDMDL
MODEL 9
REMARK VINA RESULT:      -7.3      8.334     11.349
REMARK  Name = 
REMARK  4 active torsions:
REMARK  status: ('A' for Active; 'I' for Inactive)
REMARK    1  A    between atoms: C_4  and  N_5
REMARK    2  A    between atoms: N_5  and  C_6
REMARK    3  A    between atoms: C_6  and  C_7
REMARK    4  A    between atoms: C_7  and  N_8
REMARK                            x       y       z     vdW  Elec       q    Type
REMARK                         _______ _______ _______ _____ _____    ______ ____
ROOT
ATOM      1  N   UNL     1      -1.325  12.832  20.093  0.00  0.00    +0.000 NA
ATOM      2  C   UNL     1      -2.172  11.557  19.174  0.00  0.00    +0.000 C 
ATOM      3  C   UNL     1      -1.152  10.635  18.036  0.00  0.00    +0.000 C 
ATOM      4  C   UNL     1       0.460  10.630  18.289  0.00  0.00    +0.000 C 
ATOM      5  C   UNL     1       1.490  11.824  18.684  0.00  0.00    +0.000 C 
ATOM      6  C   UNL     1       0.762  13.006  19.965  0.00  0.00    +0.000 C 
ATOM      7  C   UNL     1       0.949   9.441  19.094  0.00  0.00    +0.000 A 
ATOM      8  C   UNL     1       1.901   8.623  18.464  0.00  0.00    +0.000 A 
ATOM      9  C   UNL     1       2.427   7.509  19.116  0.00  0.00    +0.000 A 
ATOM     10  C   UNL     1       1.988   7.176  20.393  0.00  0.00    +0.000 A 
ATOM     11  C   UNL     1       1.109   8.021  21.064  0.00  0.00    +0.000 A 
ATOM     12  C   UNL     1       0.648   9.188  20.466  0.00  0.00    +0.000 A 
ATOM     13  O   UNL     1       0.027  10.065  21.315  0.00  0.00    +0.000 OA
ATOM     14  C   UNL     1      -0.108  11.337  20.859  0.00  0.00    +0.000 A 
ATOM     15  C   UNL     1      -0.155  12.732  21.921  0.00  0.00    +0.000 A 
ATOM     16  C   UNL     1      -0.159  14.371  21.210  0.00  0.00    +0.000 A 
ATOM     17  C   UNL     1      -0.392  14.689  19.444  0.00  0.00    +0.000 A 
ATOM     18  C   UNL     1      -0.378  13.322  18.317  0.00  0.00    +0.000 A 
ATOM     19  C   UNL     1      -0.104  11.638  19.074  0.00  0.00    +0.000 A 
ENDROOT
BRANCH   1  20
ATOM     20  C   UNL     1      -2.583  13.729  20.545  0.00  0.00    +0.000 C 
BRANCH  20  21
ATOM     21  C   UNL     1      -3.725  13.310  21.538  0.00  0.00    +0.000 C 
BRANCH  21  22
ATOM     22  N   UNL     1      -5.127  13.604  21.234  0.00  0.00    +0.000 N 
ATOM     23  H   UNL     1      -5.118  14.287  20.469  0.00  0.00    +0.000 HD
BRANCH  22  27
ATOM     24  C   UNL     1      -7.509  10.309  20.127  0.00  0.00    +0.000 A 
ATOM     25  C   UNL     1      -7.779  11.058  21.269  0.00  0.00    +0.000 A 
ATOM     26  C   UNL     1      -7.016  12.186  21.565  0.00  0.00    +0.000 A 
ATOM     27  C   UNL     1      -5.936  12.549  20.761  0.00  0.00    +0.000 A 
ATOM     28  C   UNL     1      -5.798  11.888  19.532  0.00  0.00    +0.000 A 
ATOM     29  C   UNL     1      -6.550  10.753  19.228  0.00  0.00    +0.000 A 
ENDBRANCH  22  27
ENDBRANCH  21  22
ENDBRANCH  20  21
ENDBRANCH   1  20
TORSDOF 4
ENDMDL
