MODEL 1
REMARK VINA RESULT:      -8.2      0.000      0.000
REMARK  Name = 
REMARK  7 active torsions:
REMARK  status: ('A' for Active; 'I' for Inactive)
REMARK    1  A    between atoms: O_1  and  C_2
REMARK    2  A    between atoms: C_5  and  C_6
REMARK    3  A    between atoms: C_10  and  C_11
REMARK    4  A    between atoms: C_14  and  O_15
REMARK    5  A    between atoms: O_15  and  C_16
REMARK    6  A    between atoms: C_16  and  C_17
REMARK    7  A    between atoms: C_17  and  N_18
REMARK                            x       y       z     vdW  Elec       q    Type
REMARK                         _______ _______ _______ _____ _____    ______ ____
ROOT
ATOM      1  C   UNL     1       2.338   6.362  19.662  0.00  0.00    +0.000 A 
ATOM      2  C   UNL     1       1.788   7.239  20.610  0.00  0.00    +0.000 A 
ATOM      3  C   UNL     1       1.480   8.553  20.272  0.00  0.00    +0.000 A 
ATOM      4  C   UNL     1       1.698   9.033  18.965  0.00  0.00    +0.000 A 
ATOM      5  C   UNL     1       2.211   8.156  18.005  0.00  0.00    +0.000 A 
ATOM      6  C   UNL     1       2.519   6.835  18.343  0.00  0.00    +0.000 A 
ENDROOT
BRANCH   1  11
ATOM      7  C   UNL     1       3.705   4.156  19.510  0.00  0.00    +0.000 A 
ATOM      8  C   UNL     1       3.697   2.871  20.037  0.00  0.00    +0.000 A 
ATOM      9 SE   UNL     1       2.463   2.572  21.326  0.00  0.00    +0.000 Se
ATOM     10  C   UNL     1       1.977   4.292  21.049  0.00  0.00    +0.000 A 
ATOM     11  C   UNL     1       2.695   4.961  20.063  0.00  0.00    +0.000 A 
BRANCH   7  15
ATOM     12  C   UNL     1       6.640   5.448  16.620  0.00  0.00    +0.000 A 
ATOM     13  C   UNL     1       5.555   4.655  16.219  0.00  0.00    +0.000 A 
ATOM     14  C   UNL     1       4.616   4.218  17.159  0.00  0.00    +0.000 A 
ATOM     15  C   UNL     1       4.735   4.581  18.513  0.00  0.00    +0.000 A 
ATOM     16  C   UNL     1       5.859   5.341  18.905  0.00  0.00    +0.000 A 
ATOM     17  C   UNL     1       6.793   5.777  17.966  0.00  0.00    +0.000 A 
BRANCH  12  18
ATOM     18  O   UNL     1       7.540   5.896  15.722  0.00  0.00    +0.000 OA
ATOM     19  H   UNL     1       7.693   6.840  15.577  0.00  0.00    +0.000 HD
ENDBRANCH  12  18
ENDBRANCH   7  15
ENDBRANCH   1  11
BRANCH   4  20
ATOM     20  O   UNL     1       1.419  10.318  18.611  0.00  0.00    +0.000 OA
BRANCH  20  21
ATOM     21  C   UNL     1       0.498  11.112  19.273  0.00  0.00    +0.000 C 
BRANCH  21  22
ATOM     22  C   UNL     1       1.172  12.030  20.296  0.00  0.00    +0.000 C 
BRANCH  22  23
ATOM     23  N   UNL     1       0.426  12.156  21.570  0.00  0.00    +0.000 NA
ATOM     24  C   UNL     1      -0.311  13.440  21.674  0.00  0.00    +0.000 C 
ATOM     25  C   UNL     1      -1.033  13.533  23.022  0.00  0.00    +0.000 C 
ATOM     26  C   UNL     1      -2.011  12.369  23.169  0.00  0.00    +0.000 C 
ATOM     27  C   UNL     1      -1.252  11.050  23.025  0.00  0.00    +0.000 C 
ATOM     28  C   UNL     1      -0.516  11.018  21.682  0.00  0.00    +0.000 C 
ENDBRANCH  22  23
ENDBRANCH  21  22
ENDBRANCH  20  21
ENDBRANCH   4  20
TORSDOF 7
ENDMDL
MODEL 2
REMARK VINA RESULT:      -8.2      2.217      3.210
REMARK  Name = 
REMARK  7 active torsions:
REMARK  status: ('A' for Active; 'I' for Inactive)
REMARK    1  A    between atoms: O_1  and  C_2
REMARK    2  A    between atoms: C_5  and  C_6
REMARK    3  A    between atoms: C_10  and  C_11
REMARK    4  A    between atoms: C_14  and  O_15
REMARK    5  A    between atoms: O_15  and  C_16
REMARK    6  A    between atoms: C_16  and  C_17
REMARK    7  A    between atoms: C_17  and  N_18
REMARK                            x       y       z     vdW  Elec       q    Type
REMARK                         _______ _______ _______ _____ _____    ______ ____
ROOT
ATOM      1  C   UNL     1       2.301   6.481  19.581  0.00  0.00    +0.000 A 
ATOM      2  C   UNL     1       1.826   7.393  20.537  0.00  0.00    +0.000 A 
ATOM      3  C   UNL     1       1.473   8.690  20.173  0.00  0.00    +0.000 A 
ATOM      4  C   UNL     1       1.571   9.116  18.834  0.00  0.00    +0.000 A 
ATOM      5  C   UNL     1       2.009   8.203  17.869  0.00  0.00    +0.000 A 
ATOM      6  C   UNL     1       2.360   6.900  18.233  0.00  0.00    +0.000 A 
ENDROOT
BRANCH   1  11
ATOM      7  C   UNL     1       3.720   4.308  19.442  0.00  0.00    +0.000 A 
ATOM      8  C   UNL     1       3.764   3.038  20.003  0.00  0.00    +0.000 A 
ATOM      9 SE   UNL     1       2.582   2.743  21.341  0.00  0.00    +0.000 Se
ATOM     10  C   UNL     1       2.042   4.442  21.035  0.00  0.00    +0.000 A 
ATOM     11  C   UNL     1       2.708   5.102  20.008  0.00  0.00    +0.000 A 
BRANCH   7  15
ATOM     12  C   UNL     1       6.597   5.469  16.440  0.00  0.00    +0.000 A 
ATOM     13  C   UNL     1       6.736   5.915  17.762  0.00  0.00    +0.000 A 
ATOM     14  C   UNL     1       5.792   5.557  18.730  0.00  0.00    +0.000 A 
ATOM     15  C   UNL     1       4.703   4.731  18.398  0.00  0.00    +0.000 A 
ATOM     16  C   UNL     1       4.554   4.331  17.052  0.00  0.00    +0.000 A 
ATOM     17  C   UNL     1       5.498   4.687  16.088  0.00  0.00    +0.000 A 
BRANCH  12  18
ATOM     18  O   UNL     1       7.511   5.785  15.502  0.00  0.00    +0.000 OA
ATOM     19  H   UNL     1       8.443   5.924  15.718  0.00  0.00    +0.000 HD
ENDBRANCH  12  18
ENDBRANCH   7  15
ENDBRANCH   1  11
BRANCH   4  20
ATOM     20  O   UNL     1       1.246  10.382  18.453  0.00  0.00    +0.000 OA
BRANCH  20  21
ATOM     21  C   UNL     1       0.338  11.177  19.130  0.00  0.00    +0.000 C 
BRANCH  21  22
ATOM     22  C   UNL     1      -1.069  10.577  19.106  0.00  0.00    +0.000 C 
BRANCH  22  23
ATOM     23  N   UNL     1      -1.858  10.949  17.909  0.00  0.00    +0.000 NA
ATOM     24  C   UNL     1      -1.844   9.894  16.866  0.00  0.00    +0.000 C 
ATOM     25  C   UNL     1      -2.644  10.345  15.639  0.00  0.00    +0.000 C 
ATOM     26  C   UNL     1      -4.085  10.646  16.040  0.00  0.00    +0.000 C 
ATOM     27  C   UNL     1      -4.092  11.708  17.140  0.00  0.00    +0.000 C 
ATOM     28  C   UNL     1      -3.252  11.230  18.329  0.00  0.00    +0.000 C 
ENDBRANCH  22  23
ENDBRANCH  21  22
ENDBRANCH  20  21
ENDBRANCH   4  20
TORSDOF 7
ENDMDL
MODEL 3
REMARK VINA RESULT:      -8.2      2.257      2.990
REMARK  Name = 
REMARK  7 active torsions:
REMARK  status: ('A' for Active; 'I' for Inactive)
REMARK    1  A    between atoms: O_1  and  C_2
REMARK    2  A    between atoms: C_5  and  C_6
REMARK    3  A    between atoms: C_10  and  C_11
REMARK    4  A    between atoms: C_14  and  O_15
REMARK    5  A    between atoms: O_15  and  C_16
REMARK    6  A    between atoms: C_16  and  C_17
REMARK    7  A    between atoms: C_17  and  N_18
REMARK                            x       y       z     vdW  Elec       q    Type
REMARK                         _______ _______ _______ _____ _____    ______ ____
ROOT
ATOM      1  C   UNL     1       2.265   6.352  19.804  0.00  0.00    +0.000 A 
ATOM      2  C   UNL     1       1.742   7.196  20.795  0.00  0.00    +0.000 A 
ATOM      3  C   UNL     1       1.437   8.525  20.513  0.00  0.00    +0.000 A 
ATOM      4  C   UNL     1       1.631   9.052  19.220  0.00  0.00    +0.000 A 
ATOM      5  C   UNL     1       2.117   8.207  18.218  0.00  0.00    +0.000 A 
ATOM      6  C   UNL     1       2.422   6.872  18.500  0.00  0.00    +0.000 A 
ENDROOT
BRANCH   1  11
ATOM      7  C   UNL     1       3.633   4.155  19.565  0.00  0.00    +0.000 A 
ATOM      8  C   UNL     1       3.622   2.847  20.034  0.00  0.00    +0.000 A 
ATOM      9 SE   UNL     1       2.379   2.491  21.299  0.00  0.00    +0.000 Se
ATOM     10  C   UNL     1       1.894   4.223  21.095  0.00  0.00    +0.000 A 
ATOM     11  C   UNL     1       2.619   4.934  20.145  0.00  0.00    +0.000 A 
BRANCH   7  15
ATOM     12  C   UNL     1       6.589   5.573  16.756  0.00  0.00    +0.000 A 
ATOM     13  C   UNL     1       5.504   4.804  16.312  0.00  0.00    +0.000 A 
ATOM     14  C   UNL     1       4.558   4.326  17.224  0.00  0.00    +0.000 A 
ATOM     15  C   UNL     1       4.670   4.624  18.594  0.00  0.00    +0.000 A 
ATOM     16  C   UNL     1       5.795   5.360  19.029  0.00  0.00    +0.000 A 
ATOM     17  C   UNL     1       6.735   5.837  18.117  0.00  0.00    +0.000 A 
BRANCH  12  18
ATOM     18  O   UNL     1       7.495   6.061  15.886  0.00  0.00    +0.000 OA
ATOM     19  H   UNL     1       7.297   6.174  14.947  0.00  0.00    +0.000 HD
ENDBRANCH  12  18
ENDBRANCH   7  15
ENDBRANCH   1  11
BRANCH   4  20
ATOM     20  O   UNL     1       1.355  10.351  18.920  0.00  0.00    +0.000 OA
BRANCH  20  21
ATOM     21  C   UNL     1       0.198  10.759  18.279  0.00  0.00    +0.000 C 
BRANCH  21  22
ATOM     22  C   UNL     1      -1.055  10.378  19.071  0.00  0.00    +0.000 C 
BRANCH  22  23
ATOM     23  N   UNL     1      -2.279  10.278  18.243  0.00  0.00    +0.000 NA
ATOM     24  C   UNL     1      -3.106  11.509  18.295  0.00  0.00    +0.000 C 
ATOM     25  C   UNL     1      -4.373  11.337  17.452  0.00  0.00    +0.000 C 
ATOM     26  C   UNL     1      -3.998  11.036  16.004  0.00  0.00    +0.000 C 
ATOM     27  C   UNL     1      -3.117   9.787  15.960  0.00  0.00    +0.000 C 
ATOM     28  C   UNL     1      -1.883   9.990  16.844  0.00  0.00    +0.000 C 
ENDBRANCH  22  23
ENDBRANCH  21  22
ENDBRANCH  20  21
ENDBRANCH   4  20
TORSDOF 7
ENDMDL
MODEL 4
REMARK VINA RESULT:      -8.1      0.726      1.117
REMARK  Name = 
REMARK  7 active torsions:
REMARK  status: ('A' for Active; 'I' for Inactive)
REMARK    1  A    between atoms: O_1  and  C_2
REMARK    2  A    between atoms: C_5  and  C_6
REMARK    3  A    between atoms: C_10  and  C_11
REMARK    4  A    between atoms: C_14  and  O_15
REMARK    5  A    between atoms: O_15  and  C_16
REMARK    6  A    between atoms: C_16  and  C_17
REMARK    7  A    between atoms: C_17  and  N_18
REMARK                            x       y       z     vdW  Elec       q    Type
REMARK                         _______ _______ _______ _____ _____    ______ ____
ROOT
ATOM      1  C   UNL     1       2.353   6.402  19.587  0.00  0.00    +0.000 A 
ATOM      2  C   UNL     1       1.841   7.319  20.519  0.00  0.00    +0.000 A 
ATOM      3  C   UNL     1       1.539   8.625  20.143  0.00  0.00    +0.000 A 
ATOM      4  C   UNL     1       1.724   9.055  18.814  0.00  0.00    +0.000 A 
ATOM      5  C   UNL     1       2.199   8.137  17.871  0.00  0.00    +0.000 A 
ATOM      6  C   UNL     1       2.501   6.825  18.248  0.00  0.00    +0.000 A 
ENDROOT
BRANCH   1  11
ATOM      7  C   UNL     1       3.709   4.186  19.496  0.00  0.00    +0.000 A 
ATOM      8  C   UNL     1       3.697   2.917  20.061  0.00  0.00    +0.000 A 
ATOM      9 SE   UNL     1       2.467   2.662  21.362  0.00  0.00    +0.000 Se
ATOM     10  C   UNL     1       1.988   4.376  21.037  0.00  0.00    +0.000 A 
ATOM     11  C   UNL     1       2.704   5.012  20.029  0.00  0.00    +0.000 A 
BRANCH   7  15
ATOM     12  C   UNL     1       6.636   5.377  16.555  0.00  0.00    +0.000 A 
ATOM     13  C   UNL     1       5.553   4.569  16.186  0.00  0.00    +0.000 A 
ATOM     14  C   UNL     1       4.615   4.165  17.142  0.00  0.00    +0.000 A 
ATOM     15  C   UNL     1       4.736   4.577  18.482  0.00  0.00    +0.000 A 
ATOM     16  C   UNL     1       5.860   5.351  18.844  0.00  0.00    +0.000 A 
ATOM     17  C   UNL     1       6.792   5.755  17.888  0.00  0.00    +0.000 A 
BRANCH  12  18
ATOM     18  O   UNL     1       7.534   5.795  15.641  0.00  0.00    +0.000 OA
ATOM     19  H   UNL     1       8.474   5.889  15.849  0.00  0.00    +0.000 HD
ENDBRANCH  12  18
ENDBRANCH   7  15
ENDBRANCH   1  11
BRANCH   4  20
ATOM     20  O   UNL     1       1.449  10.330  18.422  0.00  0.00    +0.000 OA
BRANCH  20  21
ATOM     21  C   UNL     1       0.909  11.289  19.260  0.00  0.00    +0.000 C 
BRANCH  21  22
ATOM     22  C   UNL     1      -0.615  11.354  19.141  0.00  0.00    +0.000 C 
BRANCH  22  23
ATOM     23  N   UNL     1      -1.317  11.387  20.445  0.00  0.00    +0.000 NA
ATOM     24  C   UNL     1      -0.392  11.225  21.595  0.00  0.00    +0.000 C 
ATOM     25  C   UNL     1      -1.173  11.231  22.913  0.00  0.00    +0.000 C 
ATOM     26  C   UNL     1      -1.942  12.542  23.056  0.00  0.00    +0.000 C 
ATOM     27  C   UNL     1      -2.866  12.720  21.852  0.00  0.00    +0.000 C 
ATOM     28  C   UNL     1      -2.048  12.671  20.557  0.00  0.00    +0.000 C 
ENDBRANCH  22  23
ENDBRANCH  21  22
ENDBRANCH  20  21
ENDBRANCH   4  20
TORSDOF 7
ENDMDL
MODEL 5
REMARK VINA RESULT:      -8.1      2.117      2.996
REMARK  Name = 
REMARK  7 active torsions:
REMARK  status: ('A' for Active; 'I' for Inactive)
REMARK    1  A    between atoms: O_1  and  C_2
REMARK    2  A    between atoms: C_5  and  C_6
REMARK    3  A    between atoms: C_10  and  C_11
REMARK    4  A    between atoms: C_14  and  O_15
REMARK    5  A    between atoms: O_15  and  C_16
REMARK    6  A    between atoms: C_16  and  C_17
REMARK    7  A    between atoms: C_17  and  N_18
REMARK                            x       y       z     vdW  Elec       q    Type
REMARK                         _______ _______ _______ _____ _____    ______ ____
ROOT
ATOM      1  C   UNL     1       2.049   6.265  19.439  0.00  0.00    +0.000 A 
ATOM      2  C   UNL     1       2.206   7.158  18.367  0.00  0.00    +0.000 A 
ATOM      3  C   UNL     1       1.929   8.513  18.520  0.00  0.00    +0.000 A 
ATOM      4  C   UNL     1       1.498   9.027  19.760  0.00  0.00    +0.000 A 
ATOM      5  C   UNL     1       1.375   8.151  20.843  0.00  0.00    +0.000 A 
ATOM      6  C   UNL     1       1.654   6.790  20.690  0.00  0.00    +0.000 A 
ENDROOT
BRANCH   1  11
ATOM      7  C   UNL     1       3.410   4.234  18.556  0.00  0.00    +0.000 A 
ATOM      8  C   UNL     1       3.300   2.853  18.455  0.00  0.00    +0.000 A 
ATOM      9 SE   UNL     1       1.850   2.132  19.263  0.00  0.00    +0.000 Se
ATOM     10  C   UNL     1       1.432   3.838  19.697  0.00  0.00    +0.000 A 
ATOM     11  C   UNL     1       2.320   4.804  19.235  0.00  0.00    +0.000 A 
BRANCH   7  15
ATOM     12  C   UNL     1       6.831   6.394  17.050  0.00  0.00    +0.000 A 
ATOM     13  C   UNL     1       5.776   6.055  16.192  0.00  0.00    +0.000 A 
ATOM     14  C   UNL     1       4.677   5.336  16.674  0.00  0.00    +0.000 A 
ATOM     15  C   UNL     1       4.605   4.960  18.027  0.00  0.00    +0.000 A 
ATOM     16  C   UNL     1       5.699   5.269  18.866  0.00  0.00    +0.000 A 
ATOM     17  C   UNL     1       6.793   5.988  18.383  0.00  0.00    +0.000 A 
BRANCH  12  18
ATOM     18  O   UNL     1       7.885   7.107  16.606  0.00  0.00    +0.000 OA
ATOM     19  H   UNL     1       8.037   8.023  16.877  0.00  0.00    +0.000 HD
ENDBRANCH  12  18
ENDBRANCH   7  15
ENDBRANCH   1  11
BRANCH   4  20
ATOM     20  O   UNL     1       1.207  10.345  19.934  0.00  0.00    +0.000 OA
BRANCH  20  21
ATOM     21  C   UNL     1       0.916  11.210  18.893  0.00  0.00    +0.000 C 
BRANCH  21  22
ATOM     22  C   UNL     1      -0.408  11.943  19.117  0.00  0.00    +0.000 C 
BRANCH  22  23
ATOM     23  N   UNL     1      -1.460  11.592  18.136  0.00  0.00    +0.000 NA
ATOM     24  C   UNL     1      -1.334  10.200  17.637  0.00  0.00    +0.000 C 
ATOM     25  C   UNL     1      -2.423   9.903  16.601  0.00  0.00    +0.000 C 
ATOM     26  C   UNL     1      -3.802  10.098  17.226  0.00  0.00    +0.000 C 
ATOM     27  C   UNL     1      -3.914  11.522  17.770  0.00  0.00    +0.000 C 
ATOM     28  C   UNL     1      -2.785  11.786  18.772  0.00  0.00    +0.000 C 
ENDBRANCH  22  23
ENDBRANCH  21  22
ENDBRANCH  20  21
ENDBRANCH   4  20
TORSDOF 7
ENDMDL
MODEL 6
REMARK VINA RESULT:      -8.1      4.285      7.540
REMARK  Name = 
REMARK  7 active torsions:
REMARK  status: ('A' for Active; 'I' for Inactive)
REMARK    1  A    between atoms: O_1  and  C_2
REMARK    2  A    between atoms: C_5  and  C_6
REMARK    3  A    between atoms: C_10  and  C_11
REMARK    4  A    between atoms: C_14  and  O_15
REMARK    5  A    between atoms: O_15  and  C_16
REMARK    6  A    between atoms: C_16  and  C_17
REMARK    7  A    between atoms: C_17  and  N_18
REMARK                            x       y       z     vdW  Elec       q    Type
REMARK                         _______ _______ _______ _____ _____    ______ ____
ROOT
ATOM      1  C   UNL     1       5.265   5.431  18.067  0.00  0.00    +0.000 A 
ATOM      2  C   UNL     1       5.380   6.473  17.134  0.00  0.00    +0.000 A 
ATOM      3  C   UNL     1       6.474   7.334  17.157  0.00  0.00    +0.000 A 
ATOM      4  C   UNL     1       7.500   7.172  18.109  0.00  0.00    +0.000 A 
ATOM      5  C   UNL     1       7.411   6.115  19.019  0.00  0.00    +0.000 A 
ATOM      6  C   UNL     1       6.314   5.248  18.995  0.00  0.00    +0.000 A 
ENDROOT
BRANCH   1  11
ATOM      7  C   UNL     1       2.767   4.857  18.499  0.00  0.00    +0.000 A 
ATOM      8  C   UNL     1       1.906   3.769  18.431  0.00  0.00    +0.000 A 
ATOM      9 SE   UNL     1       2.619   2.264  17.722  0.00  0.00    +0.000 Se
ATOM     10  C   UNL     1       4.138   3.235  17.572  0.00  0.00    +0.000 A 
ATOM     11  C   UNL     1       4.057   4.541  18.042  0.00  0.00    +0.000 A 
BRANCH   7  15
ATOM     12  C   UNL     1       1.465   8.742  19.860  0.00  0.00    +0.000 A 
ATOM     13  C   UNL     1       1.482   7.653  20.743  0.00  0.00    +0.000 A 
ATOM     14  C   UNL     1       1.884   6.389  20.298  0.00  0.00    +0.000 A 
ATOM     15  C   UNL     1       2.291   6.196  18.965  0.00  0.00    +0.000 A 
ATOM     16  C   UNL     1       2.221   7.293  18.079  0.00  0.00    +0.000 A 
ATOM     17  C   UNL     1       1.823   8.553  18.526  0.00  0.00    +0.000 A 
BRANCH  12  18
ATOM     18  O   UNL     1       1.104   9.970  20.280  0.00  0.00    +0.000 OA
ATOM     19  H   UNL     1       0.925  10.692  19.663  0.00  0.00    +0.000 HD
ENDBRANCH  12  18
ENDBRANCH   7  15
ENDBRANCH   1  11
BRANCH   4  20
ATOM     20  O   UNL     1       8.574   8.008  18.163  0.00  0.00    +0.000 OA
BRANCH  20  21
ATOM     21  C   UNL     1       8.471   9.388  18.184  0.00  0.00    +0.000 C 
BRANCH  21  22
ATOM     22  C   UNL     1       9.243   9.997  19.356  0.00  0.00    +0.000 C 
BRANCH  22  23
ATOM     23  N   UNL     1       9.751  11.364  19.093  0.00  0.00    +0.000 NA
ATOM     24  C   UNL     1      11.218  11.394  18.872  0.00  0.00    +0.000 C 
ATOM     25  C   UNL     1      11.693  12.832  18.640  0.00  0.00    +0.000 C 
ATOM     26  C   UNL     1      10.981  13.427  17.428  0.00  0.00    +0.000 C 
ATOM     27  C   UNL     1       9.470  13.360  17.647  0.00  0.00    +0.000 C 
ATOM     28  C   UNL     1       9.046  11.912  17.910  0.00  0.00    +0.000 C 
ENDBRANCH  22  23
ENDBRANCH  21  22
ENDBRANCH  20  21
ENDBRANCH   4  20
TORSDOF 7
ENDMDL
MODEL 7
REMARK VINA RESULT:      -8.0      0.777      1.733
REMARK  Name = 
REMARK  7 active torsions:
REMARK  status: ('A' for Active; 'I' for Inactive)
REMARK    1  A    between atoms: O_1  and  C_2
REMARK    2  A    between atoms: C_5  and  C_6
REMARK    3  A    between atoms: C_10  and  C_11
REMARK    4  A    between atoms: C_14  and  O_15
REMARK    5  A    between atoms: O_15  and  C_16
REMARK    6  A    between atoms: C_16  and  C_17
REMARK    7  A    between atoms: C_17  and  N_18
REMARK                            x       y       z     vdW  Elec       q    Type
REMARK                         _______ _______ _______ _____ _____    ______ ____
ROOT
ATOM      1  C   UNL     1       2.302   6.533  19.581  0.00  0.00    +0.000 A 
ATOM      2  C   UNL     1       2.446   6.933  18.243  0.00  0.00    +0.000 A 
ATOM      3  C   UNL     1       2.101   8.221  17.842  0.00  0.00    +0.000 A 
ATOM      4  C   UNL     1       1.613   9.160  18.772  0.00  0.00    +0.000 A 
ATOM      5  C   UNL     1       1.501   8.782  20.113  0.00  0.00    +0.000 A 
ATOM      6  C   UNL     1       1.849   7.490  20.517  0.00  0.00    +0.000 A 
ENDROOT
BRANCH   1  11
ATOM      7  C   UNL     1       3.627   4.305  19.400  0.00  0.00    +0.000 A 
ATOM      8  C   UNL     1       3.614   3.022  19.933  0.00  0.00    +0.000 A 
ATOM      9 SE   UNL     1       2.413   2.749  21.258  0.00  0.00    +0.000 Se
ATOM     10  C   UNL     1       1.948   4.476  20.988  0.00  0.00    +0.000 A 
ATOM     11  C   UNL     1       2.647   5.128  19.979  0.00  0.00    +0.000 A 
BRANCH   7  15
ATOM     12  C   UNL     1       6.568   5.406  16.438  0.00  0.00    +0.000 A 
ATOM     13  C   UNL     1       6.729   5.801  17.773  0.00  0.00    +0.000 A 
ATOM     14  C   UNL     1       5.766   5.463  18.730  0.00  0.00    +0.000 A 
ATOM     15  C   UNL     1       4.634   4.708  18.370  0.00  0.00    +0.000 A 
ATOM     16  C   UNL     1       4.466   4.361  17.012  0.00  0.00    +0.000 A 
ATOM     17  C   UNL     1       5.429   4.697  16.061  0.00  0.00    +0.000 A 
BRANCH  12  18
ATOM     18  O   UNL     1       7.500   5.703  15.510  0.00  0.00    +0.000 OA
ATOM     19  H   UNL     1       7.854   6.597  15.406  0.00  0.00    +0.000 HD
ENDBRANCH  12  18
ENDBRANCH   7  15
ENDBRANCH   1  11
BRANCH   4  20
ATOM     20  O   UNL     1       1.255  10.422  18.404  0.00  0.00    +0.000 OA
BRANCH  20  21
ATOM     21  C   UNL     1       0.803  11.380  19.294  0.00  0.00    +0.000 C 
BRANCH  21  22
ATOM     22  C   UNL     1      -0.711  11.581  19.190  0.00  0.00    +0.000 C 
BRANCH  22  23
ATOM     23  N   UNL     1      -1.415  11.510  20.492  0.00  0.00    +0.000 NA
ATOM     24  C   UNL     1      -0.481  11.407  21.640  0.00  0.00    +0.000 C 
ATOM     25  C   UNL     1      -1.262  11.300  22.955  0.00  0.00    +0.000 C 
ATOM     26  C   UNL     1      -2.154  12.526  23.130  0.00  0.00    +0.000 C 
ATOM     27  C   UNL     1      -3.089  12.647  21.927  0.00  0.00    +0.000 C 
ATOM     28  C   UNL     1      -2.268  12.714  20.635  0.00  0.00    +0.000 C 
ENDBRANCH  22  23
ENDBRANCH  21  22
ENDBRANCH  20  21
ENDBRANCH   4  20
TORSDOF 7
ENDMDL
MODEL 8
REMARK VINA RESULT:      -8.0      0.813      1.304
REMARK  Name = 
REMARK  7 active torsions:
REMARK  status: ('A' for Active; 'I' for Inactive)
REMARK    1  A    between atoms: O_1  and  C_2
REMARK    2  A    between atoms: C_5  and  C_6
REMARK    3  A    between atoms: C_10  and  C_11
REMARK    4  A    between atoms: C_14  and  O_15
REMARK    5  A    between atoms: O_15  and  C_16
REMARK    6  A    between atoms: C_16  and  C_17
REMARK    7  A    between atoms: C_17  and  N_18
REMARK                            x       y       z     vdW  Elec       q    Type
REMARK                         _______ _______ _______ _____ _____    ______ ____
ROOT
ATOM      1  C   UNL     1       2.290   6.490  19.623  0.00  0.00    +0.000 A 
ATOM      2  C   UNL     1       2.490   6.881  18.290  0.00  0.00    +0.000 A 
ATOM      3  C   UNL     1       2.153   8.164  17.864  0.00  0.00    +0.000 A 
ATOM      4  C   UNL     1       1.618   9.106  18.765  0.00  0.00    +0.000 A 
ATOM      5  C   UNL     1       1.450   8.736  20.102  0.00  0.00    +0.000 A 
ATOM      6  C   UNL     1       1.789   7.450  20.531  0.00  0.00    +0.000 A 
ENDROOT
BRANCH   1  11
ATOM      7  C   UNL     1       3.638   4.270  19.517  0.00  0.00    +0.000 A 
ATOM      8  C   UNL     1       3.610   2.991  20.058  0.00  0.00    +0.000 A 
ATOM      9 SE   UNL     1       2.355   2.718  21.332  0.00  0.00    +0.000 Se
ATOM     10  C   UNL     1       1.889   4.440  21.029  0.00  0.00    +0.000 A 
ATOM     11  C   UNL     1       2.627   5.091  20.046  0.00  0.00    +0.000 A 
BRANCH   7  15
ATOM     12  C   UNL     1       6.628   5.502  16.657  0.00  0.00    +0.000 A 
ATOM     13  C   UNL     1       5.532   4.732  16.245  0.00  0.00    +0.000 A 
ATOM     14  C   UNL     1       4.574   4.314  17.175  0.00  0.00    +0.000 A 
ATOM     15  C   UNL     1       4.686   4.675  18.530  0.00  0.00    +0.000 A 
ATOM     16  C   UNL     1       5.822   5.410  18.934  0.00  0.00    +0.000 A 
ATOM     17  C   UNL     1       6.774   5.828  18.005  0.00  0.00    +0.000 A 
BRANCH  12  18
ATOM     18  O   UNL     1       7.546   5.932  15.769  0.00  0.00    +0.000 OA
ATOM     19  H   UNL     1       8.233   5.350  15.418  0.00  0.00    +0.000 HD
ENDBRANCH  12  18
ENDBRANCH   7  15
ENDBRANCH   1  11
BRANCH   4  20
ATOM     20  O   UNL     1       1.268  10.362  18.372  0.00  0.00    +0.000 OA
BRANCH  20  21
ATOM     21  C   UNL     1       0.954  11.381  19.255  0.00  0.00    +0.000 C 
BRANCH  21  22
ATOM     22  C   UNL     1      -0.534  11.735  19.208  0.00  0.00    +0.000 C 
BRANCH  22  23
ATOM     23  N   UNL     1      -1.061  12.279  20.481  0.00  0.00    +0.000 NA
ATOM     24  C   UNL     1      -2.520  12.540  20.429  0.00  0.00    +0.000 C 
ATOM     25  C   UNL     1      -3.004  13.133  21.757  0.00  0.00    +0.000 C 
ATOM     26  C   UNL     1      -2.698  12.168  22.900  0.00  0.00    +0.000 C 
ATOM     27  C   UNL     1      -1.198  11.875  22.926  0.00  0.00    +0.000 C 
ATOM     28  C   UNL     1      -0.754  11.319  21.569  0.00  0.00    +0.000 C 
ENDBRANCH  22  23
ENDBRANCH  21  22
ENDBRANCH  20  21
ENDBRANCH   4  20
TORSDOF 7
ENDMDL
MODEL 9
REMARK VINA RESULT:      -8.0      2.158      3.150
REMARK  Name = 
REMARK  7 active torsions:
REMARK  status: ('A' for Active; 'I' for Inactive)
REMARK    1  A    between atoms: O_1  and  C_2
REMARK    2  A    between atoms: C_5  and  C_6
REMARK    3  A    between atoms: C_10  and  C_11
REMARK    4  A    between atoms: C_14  and  O_15
REMARK    5  A    between atoms: O_15  and  C_16
REMARK    6  A    between atoms: C_16  and  C_17
REMARK    7  A    between atoms: C_17  and  N_18
REMARK                            x       y       z     vdW  Elec       q    Type
REMARK                         _______ _______ _______ _____ _____    ______ ____
ROOT
ATOM      1  C   UNL     1       2.009   6.204  19.430  0.00  0.00    +0.000 A 
ATOM      2  C   UNL     1       2.158   7.178  18.430  0.00  0.00    +0.000 A 
ATOM      3  C   UNL     1       1.870   8.516  18.687  0.00  0.00    +0.000 A 
ATOM      4  C   UNL     1       1.436   8.928  19.963  0.00  0.00    +0.000 A 
ATOM      5  C   UNL     1       1.320   7.970  20.975  0.00  0.00    +0.000 A 
ATOM      6  C   UNL     1       1.611   6.627  20.717  0.00  0.00    +0.000 A 
ENDROOT
BRANCH   1  11
ATOM      7  C   UNL     1       3.394   4.257  18.405  0.00  0.00    +0.000 A 
ATOM      8  C   UNL     1       3.294   2.888  18.194  0.00  0.00    +0.000 A 
ATOM      9 SE   UNL     1       1.840   2.097  18.923  0.00  0.00    +0.000 Se
ATOM     10  C   UNL     1       1.405   3.761  19.486  0.00  0.00    +0.000 A 
ATOM     11  C   UNL     1       2.292   4.765  19.114  0.00  0.00    +0.000 A 
BRANCH   7  15
ATOM     12  C   UNL     1       6.881   6.423  17.070  0.00  0.00    +0.000 A 
ATOM     13  C   UNL     1       6.789   5.983  18.398  0.00  0.00    +0.000 A 
ATOM     14  C   UNL     1       5.650   5.300  18.837  0.00  0.00    +0.000 A 
ATOM     15  C   UNL     1       4.591   5.030  17.951  0.00  0.00    +0.000 A 
ATOM     16  C   UNL     1       4.682   5.523  16.631  0.00  0.00    +0.000 A 
ATOM     17  C   UNL     1       5.819   6.201  16.195  0.00  0.00    +0.000 A 
BRANCH  12  18
ATOM     18  O   UNL     1       7.982   7.061  16.626  0.00  0.00    +0.000 OA
ATOM     19  H   UNL     1       8.047   8.026  16.613  0.00  0.00    +0.000 HD
ENDBRANCH  12  18
ENDBRANCH   7  15
ENDBRANCH   1  11
BRANCH   4  20
ATOM     20  O   UNL     1       1.134  10.227  20.238  0.00  0.00    +0.000 OA
BRANCH  20  21
ATOM     21  C   UNL     1      -0.151  10.740  20.200  0.00  0.00    +0.000 C 
BRANCH  21  22
ATOM     22  C   UNL     1      -0.304  11.807  19.113  0.00  0.00    +0.000 C 
BRANCH  22  23
ATOM     23  N   UNL     1      -1.383  11.519  18.140  0.00  0.00    +0.000 NA
ATOM     24  C   UNL     1      -1.318  10.135  17.608  0.00  0.00    +0.000 C 
ATOM     25  C   UNL     1      -2.432   9.904  16.582  0.00  0.00    +0.000 C 
ATOM     26  C   UNL     1      -3.794  10.138  17.232  0.00  0.00    +0.000 C 
ATOM     27  C   UNL     1      -3.842  11.552  17.809  0.00  0.00    +0.000 C 
ATOM     28  C   UNL     1      -2.690  11.749  18.800  0.00  0.00    +0.000 C 
ENDBRANCH  22  23
ENDBRANCH  21  22
ENDBRANCH  20  21
ENDBRANCH   4  20
TORSDOF 7
ENDMDL
