MODEL 1
REMARK VINA RESULT:      -7.2      0.000      0.000
REMARK  Name = 
REMARK  11 active torsions:
REMARK  status: ('A' for Active; 'I' for Inactive)
REMARK    1  A    between atoms: C_1  and  O_2
REMARK    2  A    between atoms: O_2  and  C_3
REMARK    3  A    between atoms: C_6  and  C_7
REMARK    4  A    between atoms: C_8  and  C_9
REMARK    5  A    between atoms: C_9  and  C_11
REMARK    6  A    between atoms: C_12  and  C_13
REMARK    7  A    between atoms: C_16  and  N_17
REMARK    8  A    between atoms: N_17  and  C_18
REMARK    9  A    between atoms: N_17  and  C_19
REMARK   10  A    between atoms: C_22  and  O_23
REMARK   11  A    between atoms: O_23  and  C_24
REMARK                            x       y       z     vdW  Elec       q    Type
REMARK                         _______ _______ _______ _____ _____    ______ ____
ROOT
ATOM      1  C   UNL     1       2.553   5.020  20.414  0.00  0.00    +0.000 C 
ATOM      2  O   UNL     1       2.495   3.951  21.012  0.00  0.00    +0.000 OA
ENDROOT
BRANCH   1   4
ATOM      3  C   UNL     1       4.051   4.260  18.601  0.00  0.00    +0.000 C 
ATOM      4  C   UNL     1       3.512   5.273  19.299  0.00  0.00    +0.000 C 
BRANCH   3   8
ATOM      5  C   UNL     1       6.862   4.882  15.423  0.00  0.00    +0.000 A 
ATOM      6  C   UNL     1       5.502   4.720  15.166  0.00  0.00    +0.000 A 
ATOM      7  C   UNL     1       4.599   4.526  16.215  0.00  0.00    +0.000 A 
ATOM      8  C   UNL     1       5.048   4.499  17.545  0.00  0.00    +0.000 A 
ATOM      9  C   UNL     1       6.418   4.683  17.812  0.00  0.00    +0.000 A 
ATOM     10  C   UNL     1       7.313   4.865  16.744  0.00  0.00    +0.000 A 
BRANCH   5  12
ATOM     11  C   UNL     1       7.122   4.610  13.073  0.00  0.00    +0.000 C 
ATOM     12  O   UNL     1       7.651   5.057  14.317  0.00  0.00    +0.000 OA
ENDBRANCH   5  12
BRANCH   9  13
ATOM     13  O   UNL     1       6.803   4.674  19.131  0.00  0.00    +0.000 OA
ATOM     14  C   UNL     1       7.608   5.763  19.575  0.00  0.00    +0.000 C 
ENDBRANCH   9  13
ENDBRANCH   3   8
ENDBRANCH   1   4
BRANCH   1  15
ATOM     15  C   UNL     1       1.684   6.183  20.748  0.00  0.00    +0.000 C 
ATOM     16  C   UNL     1       1.919   7.407  20.247  0.00  0.00    +0.000 C 
BRANCH  16  17
ATOM     17  C   UNL     1       1.124   8.602  20.593  0.00  0.00    +0.000 A 
ATOM     18  C   UNL     1       0.642   8.751  21.893  0.00  0.00    +0.000 A 
ATOM     19  C   UNL     1      -0.160   9.852  22.248  0.00  0.00    +0.000 A 
ATOM     20  C   UNL     1      -0.499  10.866  21.338  0.00  0.00    +0.000 A 
ATOM     21  C   UNL     1       0.033  10.717  20.050  0.00  0.00    +0.000 A 
ATOM     22  C   UNL     1       0.832   9.619  19.682  0.00  0.00    +0.000 A 
BRANCH  20  23
ATOM     23  N   UNL     1      -1.339  11.915  21.685  0.00  0.00    +0.000 N 
ATOM     24  C   UNL     1      -2.033  12.711  20.674  0.00  0.00    +0.000 C 
ATOM     25  C   UNL     1      -1.844  12.103  23.044  0.00  0.00    +0.000 C 
ENDBRANCH  20  23
ENDBRANCH  16  17
ENDBRANCH   1  15
TORSDOF 7
ENDMDL
MODEL 2
REMARK VINA RESULT:      -7.2      4.997      7.929
REMARK  Name = 
REMARK  11 active torsions:
REMARK  status: ('A' for Active; 'I' for Inactive)
REMARK    1  A    between atoms: C_1  and  O_2
REMARK    2  A    between atoms: O_2  and  C_3
REMARK    3  A    between atoms: C_6  and  C_7
REMARK    4  A    between atoms: C_8  and  C_9
REMARK    5  A    between atoms: C_9  and  C_11
REMARK    6  A    between atoms: C_12  and  C_13
REMARK    7  A    between atoms: C_16  and  N_17
REMARK    8  A    between atoms: N_17  and  C_18
REMARK    9  A    between atoms: N_17  and  C_19
REMARK   10  A    between atoms: C_22  and  O_23
REMARK   11  A    between atoms: O_23  and  C_24
REMARK                            x       y       z     vdW  Elec       q    Type
REMARK                         _______ _______ _______ _____ _____    ______ ____
ROOT
ATOM      1  C   UNL     1       7.327   7.072  17.243  0.00  0.00    +0.000 C 
ATOM      2  O   UNL     1       7.881   6.478  16.323  0.00  0.00    +0.000 OA
ENDROOT
BRANCH   1   4
ATOM      3  C   UNL     1       5.055   6.188  17.649  0.00  0.00    +0.000 C 
ATOM      4  C   UNL     1       6.292   6.437  18.109  0.00  0.00    +0.000 C 
BRANCH   3   8
ATOM      5  C   UNL     1       2.074   4.404  20.162  0.00  0.00    +0.000 A 
ATOM      6  C   UNL     1       3.335   3.830  20.014  0.00  0.00    +0.000 A 
ATOM      7  C   UNL     1       4.296   4.430  19.197  0.00  0.00    +0.000 A 
ATOM      8  C   UNL     1       4.009   5.624  18.517  0.00  0.00    +0.000 A 
ATOM      9  C   UNL     1       2.744   6.220  18.679  0.00  0.00    +0.000 A 
ATOM     10  C   UNL     1       1.785   5.597  19.496  0.00  0.00    +0.000 A 
BRANCH   5  12
ATOM     11  C   UNL     1       1.721   2.561  21.625  0.00  0.00    +0.000 C 
ATOM     12  O   UNL     1       1.212   3.724  20.981  0.00  0.00    +0.000 OA
ENDBRANCH   5  12
BRANCH   9  13
ATOM     13  O   UNL     1       2.521   7.402  18.014  0.00  0.00    +0.000 OA
ATOM     14  C   UNL     1       1.987   8.480  18.777  0.00  0.00    +0.000 C 
ENDBRANCH   9  13
ENDBRANCH   3   8
ENDBRANCH   1   4
BRANCH   1  15
ATOM     15  C   UNL     1       7.619   8.493  17.580  0.00  0.00    +0.000 C 
ATOM     16  C   UNL     1       8.662   8.835  18.354  0.00  0.00    +0.000 C 
BRANCH  16  17
ATOM     17  C   UNL     1       8.960  10.221  18.765  0.00  0.00    +0.000 A 
ATOM     18  C   UNL     1       9.251  10.491  20.102  0.00  0.00    +0.000 A 
ATOM     19  C   UNL     1       9.492  11.807  20.540  0.00  0.00    +0.000 A 
ATOM     20  C   UNL     1       9.480  12.909  19.670  0.00  0.00    +0.000 A 
ATOM     21  C   UNL     1       9.228  12.606  18.324  0.00  0.00    +0.000 A 
ATOM     22  C   UNL     1       8.981  11.297  17.875  0.00  0.00    +0.000 A 
BRANCH  20  23
ATOM     23  N   UNL     1       9.660  14.208  20.125  0.00  0.00    +0.000 N 
ATOM     24  C   UNL     1      10.403  14.496  21.351  0.00  0.00    +0.000 C 
ATOM     25  C   UNL     1       9.417  15.378  19.285  0.00  0.00    +0.000 C 
ENDBRANCH  20  23
ENDBRANCH  16  17
ENDBRANCH   1  15
TORSDOF 7
ENDMDL
MODEL 3
REMARK VINA RESULT:      -7.0      5.007      8.105
REMARK  Name = 
REMARK  11 active torsions:
REMARK  status: ('A' for Active; 'I' for Inactive)
REMARK    1  A    between atoms: C_1  and  O_2
REMARK    2  A    between atoms: O_2  and  C_3
REMARK    3  A    between atoms: C_6  and  C_7
REMARK    4  A    between atoms: C_8  and  C_9
REMARK    5  A    between atoms: C_9  and  C_11
REMARK    6  A    between atoms: C_12  and  C_13
REMARK    7  A    between atoms: C_16  and  N_17
REMARK    8  A    between atoms: N_17  and  C_18
REMARK    9  A    between atoms: N_17  and  C_19
REMARK   10  A    between atoms: C_22  and  O_23
REMARK   11  A    between atoms: O_23  and  C_24
REMARK                            x       y       z     vdW  Elec       q    Type
REMARK                         _______ _______ _______ _____ _____    ______ ____
ROOT
ATOM      1  C   UNL     1       7.352   6.864  17.331  0.00  0.00    +0.000 C 
ATOM      2  O   UNL     1       7.591   6.476  16.192  0.00  0.00    +0.000 OA
ENDROOT
BRANCH   1   4
ATOM      3  C   UNL     1       5.260   5.580  17.617  0.00  0.00    +0.000 C 
ATOM      4  C   UNL     1       6.256   6.294  18.166  0.00  0.00    +0.000 C 
BRANCH   3   8
ATOM      5  C   UNL     1       2.029   4.207  20.079  0.00  0.00    +0.000 A 
ATOM      6  C   UNL     1       2.495   5.518  20.160  0.00  0.00    +0.000 A 
ATOM      7  C   UNL     1       3.544   5.949  19.344  0.00  0.00    +0.000 A 
ATOM      8  C   UNL     1       4.140   5.071  18.426  0.00  0.00    +0.000 A 
ATOM      9  C   UNL     1       3.659   3.751  18.325  0.00  0.00    +0.000 A 
ATOM     10  C   UNL     1       2.612   3.331  19.162  0.00  0.00    +0.000 A 
BRANCH   5  12
ATOM     11  C   UNL     1       1.181   2.752  21.761  0.00  0.00    +0.000 C 
ATOM     12  O   UNL     1       1.004   3.896  20.932  0.00  0.00    +0.000 OA
ENDBRANCH   5  12
BRANCH   9  13
ATOM     13  O   UNL     1       4.258   2.939  17.392  0.00  0.00    +0.000 OA
ATOM     14  C   UNL     1       4.032   1.538  17.519  0.00  0.00    +0.000 C 
ENDBRANCH   9  13
ENDBRANCH   3   8
ENDBRANCH   1   4
BRANCH   1  15
ATOM     15  C   UNL     1       8.120   7.955  17.992  0.00  0.00    +0.000 C 
ATOM     16  C   UNL     1       7.898   9.249  17.705  0.00  0.00    +0.000 C 
BRANCH  16  17
ATOM     17  C   UNL     1       8.671  10.364  18.288  0.00  0.00    +0.000 A 
ATOM     18  C   UNL     1       9.484  10.128  19.395  0.00  0.00    +0.000 A 
ATOM     19  C   UNL     1      10.198  11.175  20.008  0.00  0.00    +0.000 A 
ATOM     20  C   UNL     1      10.156  12.497  19.536  0.00  0.00    +0.000 A 
ATOM     21  C   UNL     1       9.367  12.700  18.395  0.00  0.00    +0.000 A 
ATOM     22  C   UNL     1       8.645  11.664  17.777  0.00  0.00    +0.000 A 
BRANCH  20  23
ATOM     23  N   UNL     1      10.818  13.530  20.184  0.00  0.00    +0.000 N 
ATOM     24  C   UNL     1      12.007  14.160  19.612  0.00  0.00    +0.000 C 
ATOM     25  C   UNL     1      10.223  14.273  21.293  0.00  0.00    +0.000 C 
ENDBRANCH  20  23
ENDBRANCH  16  17
ENDBRANCH   1  15
TORSDOF 7
ENDMDL
MODEL 4
REMARK VINA RESULT:      -7.0      4.841      9.356
REMARK  Name = 
REMARK  11 active torsions:
REMARK  status: ('A' for Active; 'I' for Inactive)
REMARK    1  A    between atoms: C_1  and  O_2
REMARK    2  A    between atoms: O_2  and  C_3
REMARK    3  A    between atoms: C_6  and  C_7
REMARK    4  A    between atoms: C_8  and  C_9
REMARK    5  A    between atoms: C_9  and  C_11
REMARK    6  A    between atoms: C_12  and  C_13
REMARK    7  A    between atoms: C_16  and  N_17
REMARK    8  A    between atoms: N_17  and  C_18
REMARK    9  A    between atoms: N_17  and  C_19
REMARK   10  A    between atoms: C_22  and  O_23
REMARK   11  A    between atoms: O_23  and  C_24
REMARK                            x       y       z     vdW  Elec       q    Type
REMARK                         _______ _______ _______ _____ _____    ______ ____
ROOT
ATOM      1  C   UNL     1       0.851   9.983  20.869  0.00  0.00    +0.000 C 
ATOM      2  O   UNL     1       0.976  10.772  21.800  0.00  0.00    +0.000 OA
ENDROOT
BRANCH   1   4
ATOM      3  C   UNL     1      -1.251  10.215  19.590  0.00  0.00    +0.000 C 
ATOM      4  C   UNL     1       0.088  10.309  19.629  0.00  0.00    +0.000 C 
BRANCH   3   8
ATOM      5  C   UNL     1      -3.325  10.906  15.901  0.00  0.00    +0.000 A 
ATOM      6  C   UNL     1      -2.311   9.955  15.995  0.00  0.00    +0.000 A 
ATOM      7  C   UNL     1      -1.651   9.738  17.207  0.00  0.00    +0.000 A 
ATOM      8  C   UNL     1      -2.005  10.470  18.352  0.00  0.00    +0.000 A 
ATOM      9  C   UNL     1      -3.044  11.417  18.268  0.00  0.00    +0.000 A 
ATOM     10  C   UNL     1      -3.688  11.630  17.038  0.00  0.00    +0.000 A 
BRANCH   5  12
ATOM     11  C   UNL     1      -3.719   9.951  13.757  0.00  0.00    +0.000 C 
ATOM     12  O   UNL     1      -3.894  11.036  14.662  0.00  0.00    +0.000 OA
ENDBRANCH   5  12
BRANCH   9  13
ATOM     13  O   UNL     1      -3.370  12.088  19.422  0.00  0.00    +0.000 OA
ATOM     14  C   UNL     1      -4.749  12.388  19.626  0.00  0.00    +0.000 C 
ENDBRANCH   9  13
ENDBRANCH   3   8
ENDBRANCH   1   4
BRANCH   1  15
ATOM     15  C   UNL     1       1.434   8.613  20.885  0.00  0.00    +0.000 C 
ATOM     16  C   UNL     1       1.803   7.989  19.754  0.00  0.00    +0.000 C 
BRANCH  16  17
ATOM     17  C   UNL     1       2.331   6.611  19.712  0.00  0.00    +0.000 A 
ATOM     18  C   UNL     1       3.344   6.293  18.807  0.00  0.00    +0.000 A 
ATOM     19  C   UNL     1       3.838   4.979  18.704  0.00  0.00    +0.000 A 
ATOM     20  C   UNL     1       3.368   3.928  19.508  0.00  0.00    +0.000 A 
ATOM     21  C   UNL     1       2.382   4.282  20.439  0.00  0.00    +0.000 A 
ATOM     22  C   UNL     1       1.876   5.589  20.549  0.00  0.00    +0.000 A 
BRANCH  20  23
ATOM     23  N   UNL     1       3.822   2.626  19.354  0.00  0.00    +0.000 N 
ATOM     24  C   UNL     1       4.570   1.943  20.409  0.00  0.00    +0.000 C 
ATOM     25  C   UNL     1       3.334   1.741  18.299  0.00  0.00    +0.000 C 
ENDBRANCH  20  23
ENDBRANCH  16  17
ENDBRANCH   1  15
TORSDOF 7
ENDMDL
MODEL 5
REMARK VINA RESULT:      -7.0      4.958     10.157
REMARK  Name = 
REMARK  11 active torsions:
REMARK  status: ('A' for Active; 'I' for Inactive)
REMARK    1  A    between atoms: C_1  and  O_2
REMARK    2  A    between atoms: O_2  and  C_3
REMARK    3  A    between atoms: C_6  and  C_7
REMARK    4  A    between atoms: C_8  and  C_9
REMARK    5  A    between atoms: C_9  and  C_11
REMARK    6  A    between atoms: C_12  and  C_13
REMARK    7  A    between atoms: C_16  and  N_17
REMARK    8  A    between atoms: N_17  and  C_18
REMARK    9  A    between atoms: N_17  and  C_19
REMARK   10  A    between atoms: C_22  and  O_23
REMARK   11  A    between atoms: O_23  and  C_24
REMARK                            x       y       z     vdW  Elec       q    Type
REMARK                         _______ _______ _______ _____ _____    ______ ____
ROOT
ATOM      1  C   UNL     1       1.427  10.348  18.388  0.00  0.00    +0.000 C 
ATOM      2  O   UNL     1       2.300  11.146  18.067  0.00  0.00    +0.000 OA
ENDROOT
BRANCH   1   4
ATOM      3  C   UNL     1      -0.961  10.321  17.752  0.00  0.00    +0.000 C 
ATOM      4  C   UNL     1       0.003  10.743  18.588  0.00  0.00    +0.000 C 
BRANCH   3   8
ATOM      5  C   UNL     1      -5.002  11.627  18.343  0.00  0.00    +0.000 A 
ATOM      6  C   UNL     1      -3.975  12.048  19.185  0.00  0.00    +0.000 A 
ATOM      7  C   UNL     1      -2.662  11.618  18.972  0.00  0.00    +0.000 A 
ATOM      8  C   UNL     1      -2.357  10.761  17.903  0.00  0.00    +0.000 A 
ATOM      9  C   UNL     1      -3.389  10.349  17.037  0.00  0.00    +0.000 A 
ATOM     10  C   UNL     1      -4.704  10.782  17.272  0.00  0.00    +0.000 A 
BRANCH   5  12
ATOM     11  C   UNL     1      -6.985  12.710  17.595  0.00  0.00    +0.000 C 
ATOM     12  O   UNL     1      -6.247  12.106  18.653  0.00  0.00    +0.000 OA
ENDBRANCH   5  12
BRANCH   9  13
ATOM     13  O   UNL     1      -3.034   9.532  15.990  0.00  0.00    +0.000 OA
ATOM     14  C   UNL     1      -3.080  10.101  14.684  0.00  0.00    +0.000 C 
ENDBRANCH   9  13
ENDBRANCH   3   8
ENDBRANCH   1   4
BRANCH   1  15
ATOM     15  C   UNL     1       1.700   8.903  18.628  0.00  0.00    +0.000 C 
ATOM     16  C   UNL     1       2.723   8.269  18.031  0.00  0.00    +0.000 C 
BRANCH  16  17
ATOM     17  C   UNL     1       3.001   6.828  18.189  0.00  0.00    +0.000 A 
ATOM     18  C   UNL     1       2.309   6.100  19.156  0.00  0.00    +0.000 A 
ATOM     19  C   UNL     1       2.582   4.735  19.369  0.00  0.00    +0.000 A 
ATOM     20  C   UNL     1       3.534   4.027  18.618  0.00  0.00    +0.000 A 
ATOM     21  C   UNL     1       4.186   4.771  17.624  0.00  0.00    +0.000 A 
ATOM     22  C   UNL     1       3.926   6.135  17.404  0.00  0.00    +0.000 A 
BRANCH  20  23
ATOM     23  N   UNL     1       3.835   2.698  18.879  0.00  0.00    +0.000 N 
ATOM     24  C   UNL     1       4.391   2.273  20.162  0.00  0.00    +0.000 C 
ATOM     25  C   UNL     1       3.341   1.602  18.049  0.00  0.00    +0.000 C 
ENDBRANCH  20  23
ENDBRANCH  16  17
ENDBRANCH   1  15
TORSDOF 7
ENDMDL
MODEL 6
REMARK VINA RESULT:      -7.0      0.985      1.588
REMARK  Name = 
REMARK  11 active torsions:
REMARK  status: ('A' for Active; 'I' for Inactive)
REMARK    1  A    between atoms: C_1  and  O_2
REMARK    2  A    between atoms: O_2  and  C_3
REMARK    3  A    between atoms: C_6  and  C_7
REMARK    4  A    between atoms: C_8  and  C_9
REMARK    5  A    between atoms: C_9  and  C_11
REMARK    6  A    between atoms: C_12  and  C_13
REMARK    7  A    between atoms: C_16  and  N_17
REMARK    8  A    between atoms: N_17  and  C_18
REMARK    9  A    between atoms: N_17  and  C_19
REMARK   10  A    between atoms: C_22  and  O_23
REMARK   11  A    between atoms: O_23  and  C_24
REMARK                            x       y       z     vdW  Elec       q    Type
REMARK                         _______ _______ _______ _____ _____    ______ ____
ROOT
ATOM      1  C   UNL     1       2.772   4.164  19.999  0.00  0.00    +0.000 C 
ATOM      2  O   UNL     1       2.869   3.234  20.793  0.00  0.00    +0.000 OA
ENDROOT
BRANCH   1   4
ATOM      3  C   UNL     1       4.777   4.343  18.567  0.00  0.00    +0.000 C 
ATOM      4  C   UNL     1       3.450   4.169  18.671  0.00  0.00    +0.000 C 
BRANCH   3   8
ATOM      5  C   UNL     1       6.601   4.476  14.688  0.00  0.00    +0.000 A 
ATOM      6  C   UNL     1       5.223   4.334  14.836  0.00  0.00    +0.000 A 
ATOM      7  C   UNL     1       4.645   4.300  16.108  0.00  0.00    +0.000 A 
ATOM      8  C   UNL     1       5.444   4.416  17.257  0.00  0.00    +0.000 A 
ATOM      9  C   UNL     1       6.835   4.582  17.113  0.00  0.00    +0.000 A 
ATOM     10  C   UNL     1       7.400   4.602  15.827  0.00  0.00    +0.000 A 
BRANCH   5  12
ATOM     11  C   UNL     1       8.068   5.436  13.079  0.00  0.00    +0.000 C 
ATOM     12  O   UNL     1       7.054   4.489  13.396  0.00  0.00    +0.000 OA
ENDBRANCH   5  12
BRANCH   9  13
ATOM     13  O   UNL     1       7.570   4.718  18.266  0.00  0.00    +0.000 OA
ATOM     14  C   UNL     1       7.826   6.046  18.714  0.00  0.00    +0.000 C 
ENDBRANCH   9  13
ENDBRANCH   3   8
ENDBRANCH   1   4
BRANCH   1  15
ATOM     15  C   UNL     1       1.980   5.393  20.287  0.00  0.00    +0.000 C 
ATOM     16  C   UNL     1       2.360   6.600  19.835  0.00  0.00    +0.000 C 
BRANCH  16  17
ATOM     17  C   UNL     1       1.644   7.854  20.140  0.00  0.00    +0.000 A 
ATOM     18  C   UNL     1       1.518   8.829  19.151  0.00  0.00    +0.000 A 
ATOM     19  C   UNL     1       0.885  10.057  19.420  0.00  0.00    +0.000 A 
ATOM     20  C   UNL     1       0.327  10.363  20.671  0.00  0.00    +0.000 A 
ATOM     21  C   UNL     1       0.427   9.351  21.635  0.00  0.00    +0.000 A 
ATOM     22  C   UNL     1       1.062   8.121  21.381  0.00  0.00    +0.000 A 
BRANCH  20  23
ATOM     23  N   UNL     1      -0.242  11.601  20.939  0.00  0.00    +0.000 N 
ATOM     24  C   UNL     1      -0.627  11.992  22.294  0.00  0.00    +0.000 C 
ATOM     25  C   UNL     1      -0.209  12.706  19.985  0.00  0.00    +0.000 C 
ENDBRANCH  20  23
ENDBRANCH  16  17
ENDBRANCH   1  15
TORSDOF 7
ENDMDL
MODEL 7
REMARK VINA RESULT:      -6.9      0.439      1.044
REMARK  Name = 
REMARK  11 active torsions:
REMARK  status: ('A' for Active; 'I' for Inactive)
REMARK    1  A    between atoms: C_1  and  O_2
REMARK    2  A    between atoms: O_2  and  C_3
REMARK    3  A    between atoms: C_6  and  C_7
REMARK    4  A    between atoms: C_8  and  C_9
REMARK    5  A    between atoms: C_9  and  C_11
REMARK    6  A    between atoms: C_12  and  C_13
REMARK    7  A    between atoms: C_16  and  N_17
REMARK    8  A    between atoms: N_17  and  C_18
REMARK    9  A    between atoms: N_17  and  C_19
REMARK   10  A    between atoms: C_22  and  O_23
REMARK   11  A    between atoms: O_23  and  C_24
REMARK                            x       y       z     vdW  Elec       q    Type
REMARK                         _______ _______ _______ _____ _____    ______ ____
ROOT
ATOM      1  C   UNL     1       2.379   5.087  20.449  0.00  0.00    +0.000 C 
ATOM      2  O   UNL     1       2.393   4.057  21.115  0.00  0.00    +0.000 OA
ENDROOT
BRANCH   1   4
ATOM      3  C   UNL     1       4.256   4.448  18.976  0.00  0.00    +0.000 C 
ATOM      4  C   UNL     1       3.252   5.293  19.259  0.00  0.00    +0.000 C 
BRANCH   3   8
ATOM      5  C   UNL     1       6.837   5.006  15.598  0.00  0.00    +0.000 A 
ATOM      6  C   UNL     1       5.605   4.368  15.471  0.00  0.00    +0.000 A 
ATOM      7  C   UNL     1       4.774   4.202  16.581  0.00  0.00    +0.000 A 
ATOM      8  C   UNL     1       5.164   4.682  17.841  0.00  0.00    +0.000 A 
ATOM      9  C   UNL     1       6.399   5.346  17.972  0.00  0.00    +0.000 A 
ATOM     10  C   UNL     1       7.227   5.494  16.847  0.00  0.00    +0.000 A 
BRANCH   5  12
ATOM     11  C   UNL     1       6.946   4.650  13.247  0.00  0.00    +0.000 C 
ATOM     12  O   UNL     1       7.569   5.105  14.444  0.00  0.00    +0.000 OA
ENDBRANCH   5  12
BRANCH   9  13
ATOM     13  O   UNL     1       6.723   5.821  19.220  0.00  0.00    +0.000 OA
ATOM     14  C   UNL     1       8.065   5.624  19.656  0.00  0.00    +0.000 C 
ENDBRANCH   9  13
ENDBRANCH   3   8
ENDBRANCH   1   4
BRANCH   1  15
ATOM     15  C   UNL     1       1.499   6.246  20.770  0.00  0.00    +0.000 C 
ATOM     16  C   UNL     1       1.848   7.506  20.461  0.00  0.00    +0.000 C 
BRANCH  16  17
ATOM     17  C   UNL     1       1.041   8.691  20.809  0.00  0.00    +0.000 A 
ATOM     18  C   UNL     1       0.669   9.584  19.805  0.00  0.00    +0.000 A 
ATOM     19  C   UNL     1      -0.060  10.751  20.105  0.00  0.00    +0.000 A 
ATOM     20  C   UNL     1      -0.471  11.072  21.409  0.00  0.00    +0.000 A 
ATOM     21  C   UNL     1      -0.123  10.137  22.393  0.00  0.00    +0.000 A 
ATOM     22  C   UNL     1       0.608   8.970  22.107  0.00  0.00    +0.000 A 
BRANCH  20  23
ATOM     23  N   UNL     1      -1.137  12.254  21.700  0.00  0.00    +0.000 N 
ATOM     24  C   UNL     1      -1.890  12.983  20.680  0.00  0.00    +0.000 C 
ATOM     25  C   UNL     1      -1.409  12.689  23.068  0.00  0.00    +0.000 C 
ENDBRANCH  20  23
ENDBRANCH  16  17
ENDBRANCH   1  15
TORSDOF 7
ENDMDL
MODEL 8
REMARK VINA RESULT:      -6.9      5.174      7.849
REMARK  Name = 
REMARK  11 active torsions:
REMARK  status: ('A' for Active; 'I' for Inactive)
REMARK    1  A    between atoms: C_1  and  O_2
REMARK    2  A    between atoms: O_2  and  C_3
REMARK    3  A    between atoms: C_6  and  C_7
REMARK    4  A    between atoms: C_8  and  C_9
REMARK    5  A    between atoms: C_9  and  C_11
REMARK    6  A    between atoms: C_12  and  C_13
REMARK    7  A    between atoms: C_16  and  N_17
REMARK    8  A    between atoms: N_17  and  C_18
REMARK    9  A    between atoms: N_17  and  C_19
REMARK   10  A    between atoms: C_22  and  O_23
REMARK   11  A    between atoms: O_23  and  C_24
REMARK                            x       y       z     vdW  Elec       q    Type
REMARK                         _______ _______ _______ _____ _____    ______ ____
ROOT
ATOM      1  C   UNL     1       7.404   7.332  17.183  0.00  0.00    +0.000 C 
ATOM      2  O   UNL     1       8.160   6.906  16.316  0.00  0.00    +0.000 OA
ENDROOT
BRANCH   1   4
ATOM      3  C   UNL     1       5.415   5.922  16.780  0.00  0.00    +0.000 C 
ATOM      4  C   UNL     1       6.200   6.584  17.646  0.00  0.00    +0.000 C 
BRANCH   3   8
ATOM      5  C   UNL     1       1.870   3.816  17.958  0.00  0.00    +0.000 A 
ATOM      6  C   UNL     1       2.942   3.154  17.362  0.00  0.00    +0.000 A 
ATOM      7  C   UNL     1       4.092   3.856  16.992  0.00  0.00    +0.000 A 
ATOM      8  C   UNL     1       4.189   5.237  17.221  0.00  0.00    +0.000 A 
ATOM      9  C   UNL     1       3.118   5.907  17.843  0.00  0.00    +0.000 A 
ATOM     10  C   UNL     1       1.964   5.188  18.198  0.00  0.00    +0.000 A 
BRANCH   5  12
ATOM     11  C   UNL     1       0.598   2.725  19.648  0.00  0.00    +0.000 C 
ATOM     12  O   UNL     1       0.794   3.028  18.271  0.00  0.00    +0.000 OA
ENDBRANCH   5  12
BRANCH   9  13
ATOM     13  O   UNL     1       3.272   7.254  18.070  0.00  0.00    +0.000 OA
ATOM     14  C   UNL     1       2.092   7.999  18.354  0.00  0.00    +0.000 C 
ENDBRANCH   9  13
ENDBRANCH   3   8
ENDBRANCH   1   4
BRANCH   1  15
ATOM     15  C   UNL     1       7.600   8.649  17.851  0.00  0.00    +0.000 C 
ATOM     16  C   UNL     1       8.824   9.167  18.045  0.00  0.00    +0.000 C 
BRANCH  16  17
ATOM     17  C   UNL     1       9.076  10.438  18.753  0.00  0.00    +0.000 A 
ATOM     18  C   UNL     1       9.114  11.629  18.029  0.00  0.00    +0.000 A 
ATOM     19  C   UNL     1       9.399  12.854  18.661  0.00  0.00    +0.000 A 
ATOM     20  C   UNL     1       9.635  12.956  20.042  0.00  0.00    +0.000 A 
ATOM     21  C   UNL     1       9.548  11.752  20.754  0.00  0.00    +0.000 A 
ATOM     22  C   UNL     1       9.268  10.521  20.134  0.00  0.00    +0.000 A 
BRANCH  20  23
ATOM     23  N   UNL     1       9.973  14.160  20.643  0.00  0.00    +0.000 N 
ATOM     24  C   UNL     1       9.654  14.437  22.042  0.00  0.00    +0.000 C 
ATOM     25  C   UNL     1      10.929  15.094  20.052  0.00  0.00    +0.000 C 
ENDBRANCH  20  23
ENDBRANCH  16  17
ENDBRANCH   1  15
TORSDOF 7
ENDMDL
MODEL 9
REMARK VINA RESULT:      -6.9      0.864      1.103
REMARK  Name = 
REMARK  11 active torsions:
REMARK  status: ('A' for Active; 'I' for Inactive)
REMARK    1  A    between atoms: C_1  and  O_2
REMARK    2  A    between atoms: O_2  and  C_3
REMARK    3  A    between atoms: C_6  and  C_7
REMARK    4  A    between atoms: C_8  and  C_9
REMARK    5  A    between atoms: C_9  and  C_11
REMARK    6  A    between atoms: C_12  and  C_13
REMARK    7  A    between atoms: C_16  and  N_17
REMARK    8  A    between atoms: N_17  and  C_18
REMARK    9  A    between atoms: N_17  and  C_19
REMARK   10  A    between atoms: C_22  and  O_23
REMARK   11  A    between atoms: O_23  and  C_24
REMARK                            x       y       z     vdW  Elec       q    Type
REMARK                         _______ _______ _______ _____ _____    ______ ____
ROOT
ATOM      1  C   UNL     1       1.964   4.457  20.549  0.00  0.00    +0.000 C 
ATOM      2  O   UNL     1       1.716   3.474  21.239  0.00  0.00    +0.000 OA
ENDROOT
BRANCH   1   4
ATOM      3  C   UNL     1       4.220   4.680  19.566  0.00  0.00    +0.000 C 
ATOM      4  C   UNL     1       2.913   4.420  19.399  0.00  0.00    +0.000 C 
BRANCH   3   8
ATOM      5  C   UNL     1       6.836   4.674  16.168  0.00  0.00    +0.000 A 
ATOM      6  C   UNL     1       5.476   4.400  16.036  0.00  0.00    +0.000 A 
ATOM      7  C   UNL     1       4.638   4.413  17.154  0.00  0.00    +0.000 A 
ATOM      8  C   UNL     1       5.150   4.711  18.426  0.00  0.00    +0.000 A 
ATOM      9  C   UNL     1       6.520   5.010  18.562  0.00  0.00    +0.000 A 
ATOM     10  C   UNL     1       7.350   4.979  17.430  0.00  0.00    +0.000 A 
BRANCH   5  12
ATOM     11  C   UNL     1       6.824   4.663  13.789  0.00  0.00    +0.000 C 
ATOM     12  O   UNL     1       7.560   4.624  15.007  0.00  0.00    +0.000 OA
ENDBRANCH   5  12
BRANCH   9  13
ATOM     13  O   UNL     1       6.968   5.321  19.824  0.00  0.00    +0.000 OA
ATOM     14  C   UNL     1       8.355   5.615  19.961  0.00  0.00    +0.000 C 
ENDBRANCH   9  13
ENDBRANCH   3   8
ENDBRANCH   1   4
BRANCH   1  15
ATOM     15  C   UNL     1       1.355   5.793  20.797  0.00  0.00    +0.000 C 
ATOM     16  C   UNL     1       1.882   6.916  20.280  0.00  0.00    +0.000 C 
BRANCH  16  17
ATOM     17  C   UNL     1       1.352   8.268  20.543  0.00  0.00    +0.000 A 
ATOM     18  C   UNL     1       1.025   8.634  21.848  0.00  0.00    +0.000 A 
ATOM     19  C   UNL     1       0.472   9.897  22.131  0.00  0.00    +0.000 A 
ATOM     20  C   UNL     1       0.241  10.862  21.138  0.00  0.00    +0.000 A 
ATOM     21  C   UNL     1       0.618  10.487  19.841  0.00  0.00    +0.000 A 
ATOM     22  C   UNL     1       1.167   9.227  19.544  0.00  0.00    +0.000 A 
BRANCH  20  23
ATOM     23  N   UNL     1      -0.360  12.080  21.422  0.00  0.00    +0.000 N 
ATOM     24  C   UNL     1      -0.935  12.366  22.735  0.00  0.00    +0.000 C 
ATOM     25  C   UNL     1      -0.189  13.259  20.575  0.00  0.00    +0.000 C 
ENDBRANCH  20  23
ENDBRANCH  16  17
ENDBRANCH   1  15
TORSDOF 7
ENDMDL
