MODEL 1
REMARK VINA RESULT:      -6.4      0.000      0.000
REMARK  Name = 
REMARK  8 active torsions:
REMARK  status: ('A' for Active; 'I' for Inactive)
REMARK    1  A    between atoms: C_1  and  C_2
REMARK    2  A    between atoms: C_2  and  C_3
REMARK    3  A    between atoms: C_2  and  N_4
REMARK    4  A    between atoms: N_4  and  C_15
REMARK    5  A    between atoms: C_5  and  C_7
REMARK    6  A    between atoms: C_7  and  C_8
REMARK    7  A    between atoms: C_7  and  C_9
REMARK    8  A    between atoms: N_13  and  C_14
REMARK                            x       y       z     vdW  Elec       q    Type
REMARK                         _______ _______ _______ _____ _____    ______ ____
ROOT
ATOM      1  N   UNL     1       3.200   5.087  18.714  0.00  0.00    +0.000 N 
ATOM      2  C   UNL     1       4.467   5.595  18.311  0.00  0.00    +0.000 C 
ATOM      3  O   UNL     1       4.672   6.813  18.224  0.00  0.00    +0.000 OA
ENDROOT
BRANCH   1   4
ATOM      4  C   UNL     1       2.968   3.634  18.982  0.00  0.00    +0.000 C 
ATOM      5  C   UNL     1       3.523   3.046  20.292  0.00  0.00    +0.000 C 
ATOM      6  C   UNL     1       2.587   3.081  21.497  0.00  0.00    +0.000 C 
ATOM      7  C   UNL     1       1.161   2.651  21.185  0.00  0.00    +0.000 C 
ATOM      8  C   UNL     1       0.587   3.220  19.895  0.00  0.00    +0.000 C 
ATOM      9  C   UNL     1       1.532   3.158  18.707  0.00  0.00    +0.000 C 
ENDBRANCH   1   4
BRANCH   1  11
ATOM     10  C   UNL     1       2.022   6.575  20.373  0.00  0.00    +0.000 C 
ATOM     11  C   UNL     1       2.095   6.059  18.933  0.00  0.00    +0.000 C 
ATOM     12  C   UNL     1       2.040   7.208  17.919  0.00  0.00    +0.000 C 
ENDBRANCH   1  11
BRANCH   2  13
ATOM     13  C   UNL     1       5.600   4.590  17.988  0.00  0.00    +0.000 C 
ATOM     14  C   UNL     1       6.693   4.542  19.061  0.00  0.00    +0.000 C 
BRANCH  13  15
ATOM     15  C   UNL     1       6.170   4.739  16.593  0.00  0.00    +0.000 A 
ATOM     16  C   UNL     1       5.957   3.903  15.501  0.00  0.00    +0.000 A 
ATOM     17  C   UNL     1       6.743   4.431  14.469  0.00  0.00    +0.000 A 
ATOM     18  N   UNL     1       7.400   5.524  14.846  0.00  0.00    +0.000 NA
ATOM     19  N   UNL     1       7.019   5.719  16.129  0.00  0.00    +0.000 N 
ATOM     20  C   UNL     1       7.550   6.884  16.800  0.00  0.00    +0.000 C 
ENDBRANCH  13  15
ENDBRANCH   2  13
TORSDOF 4
ENDMDL
MODEL 2
REMARK VINA RESULT:      -6.3      1.801      5.914
REMARK  Name = 
REMARK  8 active torsions:
REMARK  status: ('A' for Active; 'I' for Inactive)
REMARK    1  A    between atoms: C_1  and  C_2
REMARK    2  A    between atoms: C_2  and  C_3
REMARK    3  A    between atoms: C_2  and  N_4
REMARK    4  A    between atoms: N_4  and  C_15
REMARK    5  A    between atoms: C_5  and  C_7
REMARK    6  A    between atoms: C_7  and  C_8
REMARK    7  A    between atoms: C_7  and  C_9
REMARK    8  A    between atoms: N_13  and  C_14
REMARK                            x       y       z     vdW  Elec       q    Type
REMARK                         _______ _______ _______ _____ _____    ______ ____
ROOT
ATOM      1  N   UNL     1       5.196   5.337  18.114  0.00  0.00    +0.000 N 
ATOM      2  C   UNL     1       3.902   5.425  18.700  0.00  0.00    +0.000 C 
ATOM      3  O   UNL     1       3.544   6.437  19.316  0.00  0.00    +0.000 OA
ENDROOT
BRANCH   1   4
ATOM      4  C   UNL     1       5.601   4.200  17.232  0.00  0.00    +0.000 C 
ATOM      5  C   UNL     1       4.729   3.898  15.999  0.00  0.00    +0.000 C 
ATOM      6  C   UNL     1       5.119   4.609  14.706  0.00  0.00    +0.000 C 
ATOM      7  C   UNL     1       6.614   4.596  14.421  0.00  0.00    +0.000 C 
ATOM      8  C   UNL     1       7.500   4.892  15.623  0.00  0.00    +0.000 C 
ATOM      9  C   UNL     1       7.100   4.160  16.892  0.00  0.00    +0.000 C 
ENDBRANCH   1   4
BRANCH   1  11
ATOM     10  C   UNL     1       7.485   6.006  18.933  0.00  0.00    +0.000 C 
ATOM     11  C   UNL     1       6.145   6.459  18.345  0.00  0.00    +0.000 C 
ATOM     12  C   UNL     1       6.344   7.390  17.143  0.00  0.00    +0.000 C 
ENDBRANCH   1  11
BRANCH   2  13
ATOM     13  C   UNL     1       2.936   4.224  18.546  0.00  0.00    +0.000 C 
ATOM     14  C   UNL     1       1.706   4.540  17.689  0.00  0.00    +0.000 C 
BRANCH  13  15
ATOM     15  C   UNL     1       2.569   3.563  19.859  0.00  0.00    +0.000 A 
ATOM     16  C   UNL     1       1.395   3.728  20.588  0.00  0.00    +0.000 A 
ATOM     17  C   UNL     1       1.563   2.956  21.744  0.00  0.00    +0.000 A 
ATOM     18  N   UNL     1       2.736   2.329  21.764  0.00  0.00    +0.000 NA
ATOM     19  N   UNL     1       3.325   2.681  20.599  0.00  0.00    +0.000 N 
ATOM     20  C   UNL     1       4.620   2.103  20.320  0.00  0.00    +0.000 C 
ENDBRANCH  13  15
ENDBRANCH   2  13
TORSDOF 4
ENDMDL
MODEL 3
REMARK VINA RESULT:      -6.3      1.656      5.991
REMARK  Name = 
REMARK  8 active torsions:
REMARK  status: ('A' for Active; 'I' for Inactive)
REMARK    1  A    between atoms: C_1  and  C_2
REMARK    2  A    between atoms: C_2  and  C_3
REMARK    3  A    between atoms: C_2  and  N_4
REMARK    4  A    between atoms: N_4  and  C_15
REMARK    5  A    between atoms: C_5  and  C_7
REMARK    6  A    between atoms: C_7  and  C_8
REMARK    7  A    between atoms: C_7  and  C_9
REMARK    8  A    between atoms: N_13  and  C_14
REMARK                            x       y       z     vdW  Elec       q    Type
REMARK                         _______ _______ _______ _____ _____    ______ ____
ROOT
ATOM      1  N   UNL     1       5.707   5.497  17.517  0.00  0.00    +0.000 N 
ATOM      2  C   UNL     1       4.975   5.523  18.738  0.00  0.00    +0.000 C 
ATOM      3  O   UNL     1       5.531   5.782  19.814  0.00  0.00    +0.000 OA
ENDROOT
BRANCH   1   4
ATOM      4  C   UNL     1       5.041   5.347  16.187  0.00  0.00    +0.000 C 
ATOM      5  C   UNL     1       5.648   6.099  14.988  0.00  0.00    +0.000 C 
ATOM      6  C   UNL     1       6.700   5.344  14.180  0.00  0.00    +0.000 C 
ATOM      7  C   UNL     1       6.326   3.901  13.875  0.00  0.00    +0.000 C 
ATOM      8  C   UNL     1       5.724   3.133  15.044  0.00  0.00    +0.000 C 
ATOM      9  C   UNL     1       4.668   3.900  15.822  0.00  0.00    +0.000 C 
ENDBRANCH   1   4
BRANCH   1  11
ATOM     10  C   UNL     1       7.584   7.110  18.001  0.00  0.00    +0.000 C 
ATOM     11  C   UNL     1       7.180   5.693  17.581  0.00  0.00    +0.000 C 
ATOM     12  C   UNL     1       7.935   4.630  18.389  0.00  0.00    +0.000 C 
ENDBRANCH   1  11
BRANCH   2  13
ATOM     13  C   UNL     1       3.455   5.228  18.697  0.00  0.00    +0.000 C 
ATOM     14  C   UNL     1       2.596   6.488  18.553  0.00  0.00    +0.000 C 
BRANCH  13  15
ATOM     15  C   UNL     1       2.977   4.331  19.820  0.00  0.00    +0.000 A 
ATOM     16  C   UNL     1       2.240   4.700  20.940  0.00  0.00    +0.000 A 
ATOM     17  C   UNL     1       2.104   3.531  21.699  0.00  0.00    +0.000 A 
ATOM     18  N   UNL     1       2.687   2.485  21.120  0.00  0.00    +0.000 NA
ATOM     19  N   UNL     1       3.187   2.977  19.964  0.00  0.00    +0.000 N 
ATOM     20  C   UNL     1       3.851   2.039  19.087  0.00  0.00    +0.000 C 
ENDBRANCH  13  15
ENDBRANCH   2  13
TORSDOF 4
ENDMDL
MODEL 4
REMARK VINA RESULT:      -6.2      1.654      5.985
REMARK  Name = 
REMARK  8 active torsions:
REMARK  status: ('A' for Active; 'I' for Inactive)
REMARK    1  A    between atoms: C_1  and  C_2
REMARK    2  A    between atoms: C_2  and  C_3
REMARK    3  A    between atoms: C_2  and  N_4
REMARK    4  A    between atoms: N_4  and  C_15
REMARK    5  A    between atoms: C_5  and  C_7
REMARK    6  A    between atoms: C_7  and  C_8
REMARK    7  A    between atoms: C_7  and  C_9
REMARK    8  A    between atoms: N_13  and  C_14
REMARK                            x       y       z     vdW  Elec       q    Type
REMARK                         _______ _______ _______ _____ _____    ______ ____
ROOT
ATOM      1  N   UNL     1       5.424   5.537  17.725  0.00  0.00    +0.000 N 
ATOM      2  C   UNL     1       4.484   5.444  18.790  0.00  0.00    +0.000 C 
ATOM      3  O   UNL     1       4.834   5.590  19.969  0.00  0.00    +0.000 OA
ENDROOT
BRANCH   1   4
ATOM      4  C   UNL     1       5.010   5.525  16.288  0.00  0.00    +0.000 C 
ATOM      5  C   UNL     1       5.908   6.259  15.274  0.00  0.00    +0.000 C 
ATOM      6  C   UNL     1       7.010   5.429  14.623  0.00  0.00    +0.000 C 
ATOM      7  C   UNL     1       6.554   4.053  14.158  0.00  0.00    +0.000 C 
ATOM      8  C   UNL     1       5.666   3.305  15.142  0.00  0.00    +0.000 C 
ATOM      9  C   UNL     1       4.567   4.150  15.764  0.00  0.00    +0.000 C 
ENDBRANCH   1   4
BRANCH   1  11
ATOM     10  C   UNL     1       7.732   4.522  17.670  0.00  0.00    +0.000 C 
ATOM     11  C   UNL     1       6.859   5.715  18.073  0.00  0.00    +0.000 C 
ATOM     12  C   UNL     1       7.472   7.043  17.610  0.00  0.00    +0.000 C 
ENDBRANCH   1  11
BRANCH   2  13
ATOM     13  C   UNL     1       3.000   5.165  18.446  0.00  0.00    +0.000 C 
ATOM     14  C   UNL     1       2.164   6.439  18.288  0.00  0.00    +0.000 C 
BRANCH  13  15
ATOM     15  C   UNL     1       2.341   4.154  19.361  0.00  0.00    +0.000 A 
ATOM     16  C   UNL     1       1.457   4.409  20.405  0.00  0.00    +0.000 A 
ATOM     17  C   UNL     1       1.183   3.160  20.975  0.00  0.00    +0.000 A 
ATOM     18  N   UNL     1       1.819   2.172  20.351  0.00  0.00    +0.000 NA
ATOM     19  N   UNL     1       2.495   2.784  19.353  0.00  0.00    +0.000 N 
ATOM     20  C   UNL     1       3.257   1.939  18.463  0.00  0.00    +0.000 C 
ENDBRANCH  13  15
ENDBRANCH   2  13
TORSDOF 4
ENDMDL
MODEL 5
REMARK VINA RESULT:      -6.1      0.776      1.163
REMARK  Name = 
REMARK  8 active torsions:
REMARK  status: ('A' for Active; 'I' for Inactive)
REMARK    1  A    between atoms: C_1  and  C_2
REMARK    2  A    between atoms: C_2  and  C_3
REMARK    3  A    between atoms: C_2  and  N_4
REMARK    4  A    between atoms: N_4  and  C_15
REMARK    5  A    between atoms: C_5  and  C_7
REMARK    6  A    between atoms: C_7  and  C_8
REMARK    7  A    between atoms: C_7  and  C_9
REMARK    8  A    between atoms: N_13  and  C_14
REMARK                            x       y       z     vdW  Elec       q    Type
REMARK                         _______ _______ _______ _____ _____    ______ ____
ROOT
ATOM      1  N   UNL     1       3.209   5.644  19.059  0.00  0.00    +0.000 N 
ATOM      2  C   UNL     1       4.412   6.111  18.460  0.00  0.00    +0.000 C 
ATOM      3  O   UNL     1       4.515   7.276  18.050  0.00  0.00    +0.000 OA
ENDROOT
BRANCH   1   4
ATOM      4  C   UNL     1       3.105   4.300  19.705  0.00  0.00    +0.000 C 
ATOM      5  C   UNL     1       1.982   4.081  20.736  0.00  0.00    +0.000 C 
ATOM      6  C   UNL     1       0.657   3.557  20.190  0.00  0.00    +0.000 C 
ATOM      7  C   UNL     1       0.807   2.417  19.193  0.00  0.00    +0.000 C 
ATOM      8  C   UNL     1       1.911   2.608  18.161  0.00  0.00    +0.000 C 
ATOM      9  C   UNL     1       3.224   3.115  18.733  0.00  0.00    +0.000 C 
ENDBRANCH   1   4
BRANCH   1  11
ATOM     10  C   UNL     1       2.027   7.481  20.318  0.00  0.00    +0.000 C 
ATOM     11  C   UNL     1       2.041   6.565  19.091  0.00  0.00    +0.000 C 
ATOM     12  C   UNL     1       1.810   7.354  17.796  0.00  0.00    +0.000 C 
ENDBRANCH   1  11
BRANCH   2  13
ATOM     13  C   UNL     1       5.607   5.134  18.336  0.00  0.00    +0.000 C 
ATOM     14  C   UNL     1       6.650   5.306  19.445  0.00  0.00    +0.000 C 
BRANCH  13  15
ATOM     15  C   UNL     1       6.232   5.105  16.956  0.00  0.00    +0.000 A 
ATOM     16  C   UNL     1       6.045   4.148  15.964  0.00  0.00    +0.000 A 
ATOM     17  C   UNL     1       6.879   4.536  14.909  0.00  0.00    +0.000 A 
ATOM     18  N   UNL     1       7.543   5.656  15.179  0.00  0.00    +0.000 NA
ATOM     19  N   UNL     1       7.118   6.010  16.413  0.00  0.00    +0.000 N 
ATOM     20  C   UNL     1       7.646   7.238  16.961  0.00  0.00    +0.000 C 
ENDBRANCH  13  15
ENDBRANCH   2  13
TORSDOF 4
ENDMDL
MODEL 6
REMARK VINA RESULT:      -6.0      1.981      3.474
REMARK  Name = 
REMARK  8 active torsions:
REMARK  status: ('A' for Active; 'I' for Inactive)
REMARK    1  A    between atoms: C_1  and  C_2
REMARK    2  A    between atoms: C_2  and  C_3
REMARK    3  A    between atoms: C_2  and  N_4
REMARK    4  A    between atoms: N_4  and  C_15
REMARK    5  A    between atoms: C_5  and  C_7
REMARK    6  A    between atoms: C_7  and  C_8
REMARK    7  A    between atoms: C_7  and  C_9
REMARK    8  A    between atoms: N_13  and  C_14
REMARK                            x       y       z     vdW  Elec       q    Type
REMARK                         _______ _______ _______ _____ _____    ______ ____
ROOT
ATOM      1  N   UNL     1       4.006   4.085  17.765  0.00  0.00    +0.000 N 
ATOM      2  C   UNL     1       5.108   4.597  17.024  0.00  0.00    +0.000 C 
ATOM      3  O   UNL     1       5.961   3.843  16.538  0.00  0.00    +0.000 OA
ENDROOT
BRANCH   1   4
ATOM      4  C   UNL     1       2.878   4.951  18.226  0.00  0.00    +0.000 C 
ATOM      5  C   UNL     1       1.446   4.405  18.083  0.00  0.00    +0.000 C 
ATOM      6  C   UNL     1       0.899   3.623  19.275  0.00  0.00    +0.000 C 
ATOM      7  C   UNL     1       1.177   4.275  20.621  0.00  0.00    +0.000 C 
ATOM      8  C   UNL     1       2.588   4.823  20.790  0.00  0.00    +0.000 C 
ATOM      9  C   UNL     1       3.102   5.611  19.597  0.00  0.00    +0.000 C 
ENDBRANCH   1   4
BRANCH   1  11
ATOM     10  C   UNL     1       4.228   2.258  19.489  0.00  0.00    +0.000 C 
ATOM     11  C   UNL     1       3.960   2.621  18.025  0.00  0.00    +0.000 C 
ATOM     12  C   UNL     1       2.709   1.913  17.490  0.00  0.00    +0.000 C 
ENDBRANCH   1  11
BRANCH   2  13
ATOM     13  C   UNL     1       5.219   6.129  16.825  0.00  0.00    +0.000 C 
ATOM     14  C   UNL     1       5.064   6.564  15.364  0.00  0.00    +0.000 C 
BRANCH  13  15
ATOM     15  C   UNL     1       6.437   6.744  17.483  0.00  0.00    +0.000 A 
ATOM     16  C   UNL     1       7.128   7.883  17.083  0.00  0.00    +0.000 A 
ATOM     17  C   UNL     1       8.201   8.000  17.974  0.00  0.00    +0.000 A 
ATOM     18  N   UNL     1       8.205   7.033  18.887  0.00  0.00    +0.000 NA
ATOM     19  N   UNL     1       7.110   6.294  18.597  0.00  0.00    +0.000 N 
ATOM     20  C   UNL     1       6.826   5.175  19.467  0.00  0.00    +0.000 C 
ENDBRANCH  13  15
ENDBRANCH   2  13
TORSDOF 4
ENDMDL
MODEL 7
REMARK VINA RESULT:      -6.0      1.852      5.818
REMARK  Name = 
REMARK  8 active torsions:
REMARK  status: ('A' for Active; 'I' for Inactive)
REMARK    1  A    between atoms: C_1  and  C_2
REMARK    2  A    between atoms: C_2  and  C_3
REMARK    3  A    between atoms: C_2  and  N_4
REMARK    4  A    between atoms: N_4  and  C_15
REMARK    5  A    between atoms: C_5  and  C_7
REMARK    6  A    between atoms: C_7  and  C_8
REMARK    7  A    between atoms: C_7  and  C_9
REMARK    8  A    between atoms: N_13  and  C_14
REMARK                            x       y       z     vdW  Elec       q    Type
REMARK                         _______ _______ _______ _____ _____    ______ ____
ROOT
ATOM      1  N   UNL     1       4.117   5.370  17.725  0.00  0.00    +0.000 N 
ATOM      2  C   UNL     1       2.841   4.792  17.973  0.00  0.00    +0.000 C 
ATOM      3  O   UNL     1       1.805   5.468  17.901  0.00  0.00    +0.000 OA
ENDROOT
BRANCH   1   4
ATOM      4  C   UNL     1       5.366   4.551  17.648  0.00  0.00    +0.000 C 
ATOM      5  C   UNL     1       5.564   3.653  16.413  0.00  0.00    +0.000 C 
ATOM      6  C   UNL     1       6.295   4.283  15.231  0.00  0.00    +0.000 C 
ATOM      7  C   UNL     1       7.536   5.073  15.622  0.00  0.00    +0.000 C 
ATOM      8  C   UNL     1       7.368   5.970  16.840  0.00  0.00    +0.000 C 
ATOM      9  C   UNL     1       6.651   5.315  18.008  0.00  0.00    +0.000 C 
ENDBRANCH   1   4
BRANCH   1  11
ATOM     10  C   UNL     1       4.341   7.185  15.990  0.00  0.00    +0.000 C 
ATOM     11  C   UNL     1       4.184   6.834  17.473  0.00  0.00    +0.000 C 
ATOM     12  C   UNL     1       3.064   7.651  18.129  0.00  0.00    +0.000 C 
ENDBRANCH   1  11
BRANCH   2  13
ATOM     13  C   UNL     1       2.765   3.287  18.330  0.00  0.00    +0.000 C 
ATOM     14  C   UNL     1       1.895   2.477  17.363  0.00  0.00    +0.000 C 
BRANCH  13  15
ATOM     15  C   UNL     1       2.417   3.020  19.780  0.00  0.00    +0.000 A 
ATOM     16  C   UNL     1       1.194   3.235  20.408  0.00  0.00    +0.000 A 
ATOM     17  C   UNL     1       1.399   2.890  21.750  0.00  0.00    +0.000 A 
ATOM     18  N   UNL     1       2.641   2.471  21.977  0.00  0.00    +0.000 NA
ATOM     19  N   UNL     1       3.241   2.524  20.767  0.00  0.00    +0.000 N 
ATOM     20  C   UNL     1       4.613   2.077  20.696  0.00  0.00    +0.000 C 
ENDBRANCH  13  15
ENDBRANCH   2  13
TORSDOF 4
ENDMDL
MODEL 8
REMARK VINA RESULT:      -5.9      1.450      1.899
REMARK  Name = 
REMARK  8 active torsions:
REMARK  status: ('A' for Active; 'I' for Inactive)
REMARK    1  A    between atoms: C_1  and  C_2
REMARK    2  A    between atoms: C_2  and  C_3
REMARK    3  A    between atoms: C_2  and  N_4
REMARK    4  A    between atoms: N_4  and  C_15
REMARK    5  A    between atoms: C_5  and  C_7
REMARK    6  A    between atoms: C_7  and  C_8
REMARK    7  A    between atoms: C_7  and  C_9
REMARK    8  A    between atoms: N_13  and  C_14
REMARK                            x       y       z     vdW  Elec       q    Type
REMARK                         _______ _______ _______ _____ _____    ______ ____
ROOT
ATOM      1  N   UNL     1       4.249   4.551  19.032  0.00  0.00    +0.000 N 
ATOM      2  C   UNL     1       5.623   4.918  18.973  0.00  0.00    +0.000 C 
ATOM      3  O   UNL     1       6.104   5.735  19.769  0.00  0.00    +0.000 OA
ENDROOT
BRANCH   1   4
ATOM      4  C   UNL     1       3.675   3.455  18.193  0.00  0.00    +0.000 C 
ATOM      5  C   UNL     1       3.422   2.092  18.864  0.00  0.00    +0.000 C 
ATOM      6  C   UNL     1       2.042   1.892  19.486  0.00  0.00    +0.000 C 
ATOM      7  C   UNL     1       0.894   2.369  18.609  0.00  0.00    +0.000 C 
ATOM      8  C   UNL     1       1.118   3.715  17.933  0.00  0.00    +0.000 C 
ATOM      9  C   UNL     1       2.493   3.883  17.309  0.00  0.00    +0.000 C 
ENDBRANCH   1   4
BRANCH   1  11
ATOM     10  C   UNL     1       2.449   6.284  19.373  0.00  0.00    +0.000 C 
ATOM     11  C   UNL     1       3.381   5.253  20.016  0.00  0.00    +0.000 C 
ATOM     12  C   UNL     1       2.621   4.328  20.975  0.00  0.00    +0.000 C 
ENDBRANCH   1  11
BRANCH   2  13
ATOM     13  C   UNL     1       6.519   4.264  17.892  0.00  0.00    +0.000 C 
ATOM     14  C   UNL     1       8.015   4.504  18.117  0.00  0.00    +0.000 C 
BRANCH  13  15
ATOM     15  C   UNL     1       6.092   4.579  16.473  0.00  0.00    +0.000 A 
ATOM     16  C   UNL     1       6.088   3.717  15.381  0.00  0.00    +0.000 A 
ATOM     17  C   UNL     1       5.668   4.494  14.294  0.00  0.00    +0.000 A 
ATOM     18  N   UNL     1       5.405   5.749  14.645  0.00  0.00    +0.000 NA
ATOM     19  N   UNL     1       5.636   5.781  15.977  0.00  0.00    +0.000 N 
ATOM     20  C   UNL     1       5.386   7.033  16.655  0.00  0.00    +0.000 C 
ENDBRANCH  13  15
ENDBRANCH   2  13
TORSDOF 4
ENDMDL
MODEL 9
REMARK VINA RESULT:      -5.8      1.888      5.994
REMARK  Name = 
REMARK  8 active torsions:
REMARK  status: ('A' for Active; 'I' for Inactive)
REMARK    1  A    between atoms: C_1  and  C_2
REMARK    2  A    between atoms: C_2  and  C_3
REMARK    3  A    between atoms: C_2  and  N_4
REMARK    4  A    between atoms: N_4  and  C_15
REMARK    5  A    between atoms: C_5  and  C_7
REMARK    6  A    between atoms: C_7  and  C_8
REMARK    7  A    between atoms: C_7  and  C_9
REMARK    8  A    between atoms: N_13  and  C_14
REMARK                            x       y       z     vdW  Elec       q    Type
REMARK                         _______ _______ _______ _____ _____    ______ ____
ROOT
ATOM      1  N   UNL     1       4.631   5.196  17.237  0.00  0.00    +0.000 N 
ATOM      2  C   UNL     1       3.443   4.902  17.964  0.00  0.00    +0.000 C 
ATOM      3  O   UNL     1       2.683   5.803  18.343  0.00  0.00    +0.000 OA
ENDROOT
BRANCH   1   4
ATOM      4  C   UNL     1       5.484   4.129  16.630  0.00  0.00    +0.000 C 
ATOM      5  C   UNL     1       5.049   3.544  15.274  0.00  0.00    +0.000 C 
ATOM      6  C   UNL     1       5.604   4.235  14.031  0.00  0.00    +0.000 C 
ATOM      7  C   UNL     1       7.088   4.557  14.114  0.00  0.00    +0.000 C 
ATOM      8  C   UNL     1       7.546   5.138  15.445  0.00  0.00    +0.000 C 
ATOM      9  C   UNL     1       6.993   4.422  16.666  0.00  0.00    +0.000 C 
ENDBRANCH   1   4
BRANCH   1  11
ATOM     10  C   UNL     1       6.345   7.004  17.629  0.00  0.00    +0.000 C 
ATOM     11  C   UNL     1       4.987   6.625  17.029  0.00  0.00    +0.000 C 
ATOM     12  C   UNL     1       4.854   7.116  15.582  0.00  0.00    +0.000 C 
ENDBRANCH   1  11
BRANCH   2  13
ATOM     13  C   UNL     1       3.108   3.421  18.269  0.00  0.00    +0.000 C 
ATOM     14  C   UNL     1       2.144   2.795  17.257  0.00  0.00    +0.000 C 
BRANCH  13  15
ATOM     15  C   UNL     1       2.681   3.174  19.701  0.00  0.00    +0.000 A 
ATOM     16  C   UNL     1       1.479   3.540  20.298  0.00  0.00    +0.000 A 
ATOM     17  C   UNL     1       1.591   3.143  21.636  0.00  0.00    +0.000 A 
ATOM     18  N   UNL     1       2.757   2.555  21.890  0.00  0.00    +0.000 NA
ATOM     19  N   UNL     1       3.398   2.551  20.699  0.00  0.00    +0.000 N 
ATOM     20  C   UNL     1       4.698   1.922  20.657  0.00  0.00    +0.000 C 
ENDBRANCH  13  15
ENDBRANCH   2  13
TORSDOF 4
ENDMDL
