MODEL 1
REMARK VINA RESULT:      -8.3      0.000      0.000
REMARK  Name = 
REMARK  6 active torsions:
REMARK  status: ('A' for Active; 'I' for Inactive)
REMARK    1  A    between atoms: C_1  and  C_2
REMARK    2  A    between atoms: N_4  and  C_5
REMARK    3  A    between atoms: C_11  and  C_12
REMARK    4  A    between atoms: C_24  and  N_25
REMARK    5  A    between atoms: N_25  and  C_26
REMARK    6  A    between atoms: C_29  and  C_30
REMARK                            x       y       z     vdW  Elec       q    Type
REMARK                         _______ _______ _______ _____ _____    ______ ____
ROOT
ATOM      1  C   UNL     1       3.833   3.966  18.062  0.00  0.00    +0.000 A 
ATOM      2  C   UNL     1       4.442   3.369  16.965  0.00  0.00    +0.000 A 
ATOM      3  N   UNL     1       5.477   3.902  16.275  0.00  0.00    +0.000 NA
ATOM      4  C   UNL     1       5.996   5.048  16.717  0.00  0.00    +0.000 A 
ATOM      5  C   UNL     1       7.078   5.551  16.026  0.00  0.00    +0.000 A 
ATOM      6  C   UNL     1       7.725   6.730  16.415  0.00  0.00    +0.000 A 
ATOM      7  C   UNL     1       7.306   7.439  17.545  0.00  0.00    +0.000 A 
ATOM      8  C   UNL     1       6.215   6.901  18.253  0.00  0.00    +0.000 A 
ATOM      9  C   UNL     1       5.498   5.747  17.833  0.00  0.00    +0.000 A 
ATOM     10  C   UNL     1       4.312   5.235  18.458  0.00  0.00    +0.000 A 
ENDROOT
BRANCH   7  11
ATOM     11  C   UNL     1       7.953   8.696  17.958  0.00  0.00    +0.000 A 
ATOM     12  C   UNL     1       8.892   8.752  18.988  0.00  0.00    +0.000 A 
ATOM     13  N   UNL     1       9.484   9.880  19.450  0.00  0.00    +0.000 NA
ATOM     14  C   UNL     1       9.156  11.041  18.868  0.00  0.00    +0.000 A 
ATOM     15  C   UNL     1       9.735  12.219  19.323  0.00  0.00    +0.000 A 
ATOM     16  C   UNL     1       9.436  13.454  18.743  0.00  0.00    +0.000 A 
ATOM     17  C   UNL     1       8.538  13.522  17.683  0.00  0.00    +0.000 A 
ATOM     18  C   UNL     1       7.935  12.357  17.215  0.00  0.00    +0.000 A 
ATOM     19  C   UNL     1       8.236  11.116  17.805  0.00  0.00    +0.000 A 
ATOM     20  C   UNL     1       7.636   9.926  17.366  0.00  0.00    +0.000 A 
ENDBRANCH   7  11
BRANCH   1  24
ATOM     21  C   UNL     1       0.477   2.764  19.330  0.00  0.00    +0.000 C 
ATOM     22  C   UNL     1       1.418   3.465  18.391  0.00  0.00    +0.000 C 
ATOM     23  O   UNL     1       0.982   4.046  17.400  0.00  0.00    +0.000 OA
ATOM     24  N   UNL     1       2.749   3.366  18.756  0.00  0.00    +0.000 N 
ATOM     25  H   UNL     1       3.007   2.760  19.528  0.00  0.00    +0.000 HD
ENDBRANCH   1  24
BRANCH  10  26
ATOM     26  N   UNL     1       3.647   5.907  19.539  0.00  0.00    +0.000 N 
ATOM     27  H   UNL     1       4.279   6.002  20.332  0.00  0.00    +0.000 HD
BRANCH  26  28
ATOM     28  C   UNL     1       2.714   6.977  19.467  0.00  0.00    +0.000 A 
ATOM     29  C   UNL     1       1.976   7.403  20.580  0.00  0.00    +0.000 A 
ATOM     30  C   UNL     1       1.100   8.493  20.506  0.00  0.00    +0.000 A 
ATOM     31  C   UNL     1       0.994   9.243  19.331  0.00  0.00    +0.000 A 
ATOM     32  C   UNL     1       1.749   8.844  18.218  0.00  0.00    +0.000 A 
ATOM     33  C   UNL     1       2.599   7.729  18.289  0.00  0.00    +0.000 A 
BRANCH  31  34
ATOM     34  C   UNL     1       0.137  10.487  19.279  0.00  0.00    +0.000 C 
ATOM     35  F   UNL     1      -1.174  10.237  19.002  0.00  0.00    +0.000 F 
ATOM     36  F   UNL     1       0.141  11.160  20.464  0.00  0.00    +0.000 F 
ATOM     37  F   UNL     1       0.554  11.381  18.342  0.00  0.00    +0.000 F 
ENDBRANCH  31  34
ENDBRANCH  26  28
ENDBRANCH  10  26
TORSDOF 5
ENDMDL
MODEL 2
REMARK VINA RESULT:      -8.2      5.116      9.366
REMARK  Name = 
REMARK  6 active torsions:
REMARK  status: ('A' for Active; 'I' for Inactive)
REMARK    1  A    between atoms: C_1  and  C_2
REMARK    2  A    between atoms: N_4  and  C_5
REMARK    3  A    between atoms: C_11  and  C_12
REMARK    4  A    between atoms: C_24  and  N_25
REMARK    5  A    between atoms: N_25  and  C_26
REMARK    6  A    between atoms: C_29  and  C_30
REMARK                            x       y       z     vdW  Elec       q    Type
REMARK                         _______ _______ _______ _____ _____    ______ ____
ROOT
ATOM      1  C   UNL     1      -1.926  13.394  21.903  0.00  0.00    +0.000 A 
ATOM      2  C   UNL     1      -2.223  12.774  23.110  0.00  0.00    +0.000 A 
ATOM      3  N   UNL     1      -1.850  11.516  23.441  0.00  0.00    +0.000 NA
ATOM      4  C   UNL     1      -1.084  10.845  22.579  0.00  0.00    +0.000 A 
ATOM      5  C   UNL     1      -0.678   9.582  22.954  0.00  0.00    +0.000 A 
ATOM      6  C   UNL     1       0.152   8.798  22.145  0.00  0.00    +0.000 A 
ATOM      7  C   UNL     1       0.623   9.280  20.920  0.00  0.00    +0.000 A 
ATOM      8  C   UNL     1       0.218  10.579  20.561  0.00  0.00    +0.000 A 
ATOM      9  C   UNL     1      -0.683  11.363  21.332  0.00  0.00    +0.000 A 
ATOM     10  C   UNL     1      -1.211  12.640  20.946  0.00  0.00    +0.000 A 
ENDROOT
BRANCH   7  11
ATOM     11  C   UNL     1       1.475   8.463  20.038  0.00  0.00    +0.000 A 
ATOM     12  C   UNL     1       1.859   8.886  18.766  0.00  0.00    +0.000 A 
ATOM     13  N   UNL     1       2.595   8.164  17.887  0.00  0.00    +0.000 NA
ATOM     14  C   UNL     1       3.004   6.946  18.268  0.00  0.00    +0.000 A 
ATOM     15  C   UNL     1       3.751   6.172  17.390  0.00  0.00    +0.000 A 
ATOM     16  C   UNL     1       4.211   4.901  17.741  0.00  0.00    +0.000 A 
ATOM     17  C   UNL     1       3.921   4.383  18.999  0.00  0.00    +0.000 A 
ATOM     18  C   UNL     1       3.164   5.134  19.895  0.00  0.00    +0.000 A 
ATOM     19  C   UNL     1       2.699   6.412  19.535  0.00  0.00    +0.000 A 
ATOM     20  C   UNL     1       1.922   7.187  20.408  0.00  0.00    +0.000 A 
ENDBRANCH   7  11
BRANCH   1  24
ATOM     21  C   UNL     1      -2.439  17.136  21.669  0.00  0.00    +0.000 C 
ATOM     22  C   UNL     1      -1.778  15.867  22.132  0.00  0.00    +0.000 C 
ATOM     23  O   UNL     1      -0.822  15.915  22.901  0.00  0.00    +0.000 OA
ATOM     24  N   UNL     1      -2.339  14.719  21.602  0.00  0.00    +0.000 N 
ATOM     25  H   UNL     1      -3.050  14.801  20.882  0.00  0.00    +0.000 HD
ENDBRANCH   1  24
BRANCH  10  26
ATOM     26  N   UNL     1      -0.961  13.232  19.661  0.00  0.00    +0.000 N 
ATOM     27  H   UNL     1      -1.806  13.684  19.316  0.00  0.00    +0.000 HD
BRANCH  26  28
ATOM     28  C   UNL     1       0.217  13.882  19.207  0.00  0.00    +0.000 A 
ATOM     29  C   UNL     1       1.281  13.182  18.620  0.00  0.00    +0.000 A 
ATOM     30  C   UNL     1       2.413  13.843  18.129  0.00  0.00    +0.000 A 
ATOM     31  C   UNL     1       2.482  15.240  18.138  0.00  0.00    +0.000 A 
ATOM     32  C   UNL     1       1.412  15.954  18.696  0.00  0.00    +0.000 A 
ATOM     33  C   UNL     1       0.295  15.282  19.219  0.00  0.00    +0.000 A 
BRANCH  31  34
ATOM     34  C   UNL     1       3.649  15.963  17.506  0.00  0.00    +0.000 C 
ATOM     35  F   UNL     1       4.696  15.146  17.197  0.00  0.00    +0.000 F 
ATOM     36  F   UNL     1       3.302  16.574  16.339  0.00  0.00    +0.000 F 
ATOM     37  F   UNL     1       4.162  16.942  18.301  0.00  0.00    +0.000 F 
ENDBRANCH  31  34
ENDBRANCH  26  28
ENDBRANCH  10  26
TORSDOF 5
ENDMDL
MODEL 3
REMARK VINA RESULT:      -8.2      4.714      8.744
REMARK  Name = 
REMARK  6 active torsions:
REMARK  status: ('A' for Active; 'I' for Inactive)
REMARK    1  A    between atoms: C_1  and  C_2
REMARK    2  A    between atoms: N_4  and  C_5
REMARK    3  A    between atoms: C_11  and  C_12
REMARK    4  A    between atoms: C_24  and  N_25
REMARK    5  A    between atoms: N_25  and  C_26
REMARK    6  A    between atoms: C_29  and  C_30
REMARK                            x       y       z     vdW  Elec       q    Type
REMARK                         _______ _______ _______ _____ _____    ______ ____
ROOT
ATOM      1  C   UNL     1      -1.363  12.410  21.795  0.00  0.00    +0.000 A 
ATOM      2  C   UNL     1      -1.604  11.709  22.970  0.00  0.00    +0.000 A 
ATOM      3  N   UNL     1      -1.180  10.447  23.214  0.00  0.00    +0.000 NA
ATOM      4  C   UNL     1      -0.418   9.856  22.292  0.00  0.00    +0.000 A 
ATOM      5  C   UNL     1       0.041   8.588  22.580  0.00  0.00    +0.000 A 
ATOM      6  C   UNL     1       0.871   7.883  21.703  0.00  0.00    +0.000 A 
ATOM      7  C   UNL     1       1.291   8.452  20.496  0.00  0.00    +0.000 A 
ATOM      8  C   UNL     1       0.833   9.756  20.227  0.00  0.00    +0.000 A 
ATOM      9  C   UNL     1      -0.070  10.461  21.068  0.00  0.00    +0.000 A 
ATOM     10  C   UNL     1      -0.652  11.739  20.774  0.00  0.00    +0.000 A 
ENDROOT
BRANCH   7  11
ATOM     11  C   UNL     1       2.143   7.719  19.544  0.00  0.00    +0.000 A 
ATOM     12  C   UNL     1       2.584   8.282  18.347  0.00  0.00    +0.000 A 
ATOM     13  N   UNL     1       3.324   7.647  17.406  0.00  0.00    +0.000 NA
ATOM     14  C   UNL     1       3.677   6.376  17.643  0.00  0.00    +0.000 A 
ATOM     15  C   UNL     1       4.426   5.689  16.696  0.00  0.00    +0.000 A 
ATOM     16  C   UNL     1       4.828   4.367  16.898  0.00  0.00    +0.000 A 
ATOM     17  C   UNL     1       4.478   3.708  18.071  0.00  0.00    +0.000 A 
ATOM     18  C   UNL     1       3.717   4.371  19.032  0.00  0.00    +0.000 A 
ATOM     19  C   UNL     1       3.311   5.700  18.822  0.00  0.00    +0.000 A 
ATOM     20  C   UNL     1       2.532   6.390  19.763  0.00  0.00    +0.000 A 
ENDBRANCH   7  11
BRANCH   1  24
ATOM     21  C   UNL     1      -2.043  16.132  21.838  0.00  0.00    +0.000 C 
ATOM     22  C   UNL     1      -1.337  14.861  22.221  0.00  0.00    +0.000 C 
ATOM     23  O   UNL     1      -0.407  14.889  23.023  0.00  0.00    +0.000 OA
ATOM     24  N   UNL     1      -1.829  13.735  21.585  0.00  0.00    +0.000 N 
ATOM     25  H   UNL     1      -2.521  13.843  20.850  0.00  0.00    +0.000 HD
ENDBRANCH   1  24
BRANCH  10  26
ATOM     26  N   UNL     1      -0.460  12.414  19.521  0.00  0.00    +0.000 N 
ATOM     27  H   UNL     1      -1.351  12.766  19.175  0.00  0.00    +0.000 HD
BRANCH  26  28
ATOM     28  C   UNL     1       0.630  13.233  19.122  0.00  0.00    +0.000 A 
ATOM     29  C   UNL     1       1.808  12.700  18.577  0.00  0.00    +0.000 A 
ATOM     30  C   UNL     1       2.852  13.524  18.139  0.00  0.00    +0.000 A 
ATOM     31  C   UNL     1       2.717  14.915  18.159  0.00  0.00    +0.000 A 
ATOM     32  C   UNL     1       1.533  15.461  18.675  0.00  0.00    +0.000 A 
ATOM     33  C   UNL     1       0.504  14.629  19.145  0.00  0.00    +0.000 A 
BRANCH  31  34
ATOM     34  C   UNL     1       3.793  15.807  17.583  0.00  0.00    +0.000 C 
ATOM     35  F   UNL     1       3.417  16.449  16.441  0.00  0.00    +0.000 F 
ATOM     36  F   UNL     1       4.165  16.788  18.451  0.00  0.00    +0.000 F 
ATOM     37  F   UNL     1       4.934  15.132  17.272  0.00  0.00    +0.000 F 
ENDBRANCH  31  34
ENDBRANCH  26  28
ENDBRANCH  10  26
TORSDOF 5
ENDMDL
MODEL 4
REMARK VINA RESULT:      -8.2      4.749      8.864
REMARK  Name = 
REMARK  6 active torsions:
REMARK  status: ('A' for Active; 'I' for Inactive)
REMARK    1  A    between atoms: C_1  and  C_2
REMARK    2  A    between atoms: N_4  and  C_5
REMARK    3  A    between atoms: C_11  and  C_12
REMARK    4  A    between atoms: C_24  and  N_25
REMARK    5  A    between atoms: N_25  and  C_26
REMARK    6  A    between atoms: C_29  and  C_30
REMARK                            x       y       z     vdW  Elec       q    Type
REMARK                         _______ _______ _______ _____ _____    ______ ____
ROOT
ATOM      1  C   UNL     1      -1.471  12.750  21.735  0.00  0.00    +0.000 A 
ATOM      2  C   UNL     1      -1.659  12.137  22.967  0.00  0.00    +0.000 A 
ATOM      3  N   UNL     1      -1.212  10.901  23.288  0.00  0.00    +0.000 NA
ATOM      4  C   UNL     1      -0.480  10.248  22.384  0.00  0.00    +0.000 A 
ATOM      5  C   UNL     1       0.003   9.009  22.748  0.00  0.00    +0.000 A 
ATOM      6  C   UNL     1       0.808   8.247  21.894  0.00  0.00    +0.000 A 
ATOM      7  C   UNL     1       1.175   8.727  20.633  0.00  0.00    +0.000 A 
ATOM      8  C   UNL     1       0.692  10.003  20.285  0.00  0.00    +0.000 A 
ATOM      9  C   UNL     1      -0.186  10.762  21.106  0.00  0.00    +0.000 A 
ATOM     10  C   UNL     1      -0.792  12.010  20.740  0.00  0.00    +0.000 A 
ENDROOT
BRANCH   7  11
ATOM     11  C   UNL     1       1.998   7.931  19.706  0.00  0.00    +0.000 A 
ATOM     12  C   UNL     1       2.421   8.422  18.472  0.00  0.00    +0.000 A 
ATOM     13  N   UNL     1       3.134   7.726  17.553  0.00  0.00    +0.000 NA
ATOM     14  C   UNL     1       3.475   6.466  17.851  0.00  0.00    +0.000 A 
ATOM     15  C   UNL     1       4.196   5.718  16.929  0.00  0.00    +0.000 A 
ATOM     16  C   UNL     1       4.586   4.404  17.196  0.00  0.00    +0.000 A 
ATOM     17  C   UNL     1       4.252   3.815  18.410  0.00  0.00    +0.000 A 
ATOM     18  C   UNL     1       3.519   4.539  19.348  0.00  0.00    +0.000 A 
ATOM     19  C   UNL     1       3.125   5.860  19.073  0.00  0.00    +0.000 A 
ATOM     20  C   UNL     1       2.375   6.612  19.990  0.00  0.00    +0.000 A 
ENDBRANCH   7  11
BRANCH   1  24
ATOM     21  C   UNL     1      -3.502  15.815  20.843  0.00  0.00    +0.000 C 
ATOM     22  C   UNL     1      -3.274  14.361  21.150  0.00  0.00    +0.000 C 
ATOM     23  O   UNL     1      -4.216  13.573  21.135  0.00  0.00    +0.000 OA
ATOM     24  N   UNL     1      -1.959  14.052  21.445  0.00  0.00    +0.000 N 
ATOM     25  H   UNL     1      -1.283  14.802  21.546  0.00  0.00    +0.000 HD
ENDBRANCH   1  24
BRANCH  10  26
ATOM     26  N   UNL     1      -0.655  12.591  19.433  0.00  0.00    +0.000 N 
ATOM     27  H   UNL     1      -1.572  12.836  19.064  0.00  0.00    +0.000 HD
BRANCH  26  28
ATOM     28  C   UNL     1       0.363  13.462  18.961  0.00  0.00    +0.000 A 
ATOM     29  C   UNL     1       0.246  14.858  19.028  0.00  0.00    +0.000 A 
ATOM     30  C   UNL     1       1.280  15.702  18.607  0.00  0.00    +0.000 A 
ATOM     31  C   UNL     1       2.501  15.173  18.177  0.00  0.00    +0.000 A 
ATOM     32  C   UNL     1       2.641  13.778  18.132  0.00  0.00    +0.000 A 
ATOM     33  C   UNL     1       1.587  12.936  18.522  0.00  0.00    +0.000 A 
BRANCH  31  34
ATOM     34  C   UNL     1       3.660  16.079  17.830  0.00  0.00    +0.000 C 
ATOM     35  F   UNL     1       4.738  15.417  17.321  0.00  0.00    +0.000 F 
ATOM     36  F   UNL     1       3.321  17.006  16.891  0.00  0.00    +0.000 F 
ATOM     37  F   UNL     1       4.124  16.782  18.899  0.00  0.00    +0.000 F 
ENDBRANCH  31  34
ENDBRANCH  26  28
ENDBRANCH  10  26
TORSDOF 5
ENDMDL
MODEL 5
REMARK VINA RESULT:      -8.1      0.822      1.376
REMARK  Name = 
REMARK  6 active torsions:
REMARK  status: ('A' for Active; 'I' for Inactive)
REMARK    1  A    between atoms: C_1  and  C_2
REMARK    2  A    between atoms: N_4  and  C_5
REMARK    3  A    between atoms: C_11  and  C_12
REMARK    4  A    between atoms: C_24  and  N_25
REMARK    5  A    between atoms: N_25  and  C_26
REMARK    6  A    between atoms: C_29  and  C_30
REMARK                            x       y       z     vdW  Elec       q    Type
REMARK                         _______ _______ _______ _____ _____    ______ ____
ROOT
ATOM      1  C   UNL     1       3.935   4.183  18.215  0.00  0.00    +0.000 A 
ATOM      2  C   UNL     1       4.616   3.528  17.197  0.00  0.00    +0.000 A 
ATOM      3  N   UNL     1       5.656   4.051  16.506  0.00  0.00    +0.000 NA
ATOM      4  C   UNL     1       6.107   5.252  16.872  0.00  0.00    +0.000 A 
ATOM      5  C   UNL     1       7.195   5.747  16.185  0.00  0.00    +0.000 A 
ATOM      6  C   UNL     1       7.773   6.981  16.500  0.00  0.00    +0.000 A 
ATOM      7  C   UNL     1       7.276   7.760  17.550  0.00  0.00    +0.000 A 
ATOM      8  C   UNL     1       6.179   7.231  18.256  0.00  0.00    +0.000 A 
ATOM      9  C   UNL     1       5.531   6.016  17.906  0.00  0.00    +0.000 A 
ATOM     10  C   UNL     1       4.343   5.501  18.524  0.00  0.00    +0.000 A 
ENDROOT
BRANCH   7  11
ATOM     11  C   UNL     1       7.850   9.075  17.882  0.00  0.00    +0.000 A 
ATOM     12  C   UNL     1       7.505  10.238  17.195  0.00  0.00    +0.000 A 
ATOM     13  N   UNL     1       8.033  11.466  17.414  0.00  0.00    +0.000 NA
ATOM     14  C   UNL     1       8.953  11.587  18.381  0.00  0.00    +0.000 A 
ATOM     15  C   UNL     1       9.524  12.829  18.627  0.00  0.00    +0.000 A 
ATOM     16  C   UNL     1      10.480  13.010  19.629  0.00  0.00    +0.000 A 
ATOM     17  C   UNL     1      10.880  11.929  20.408  0.00  0.00    +0.000 A 
ATOM     18  C   UNL     1      10.332  10.671  20.173  0.00  0.00    +0.000 A 
ATOM     19  C   UNL     1       9.373  10.492  19.160  0.00  0.00    +0.000 A 
ATOM     20  C   UNL     1       8.812   9.235  18.889  0.00  0.00    +0.000 A 
ENDBRANCH   7  11
BRANCH   1  24
ATOM     21  C   UNL     1       0.585   2.918  19.435  0.00  0.00    +0.000 C 
ATOM     22  C   UNL     1       1.536   3.578  18.476  0.00  0.00    +0.000 C 
ATOM     23  O   UNL     1       1.124   4.031  17.412  0.00  0.00    +0.000 OA
ATOM     24  N   UNL     1       2.849   3.592  18.913  0.00  0.00    +0.000 N 
ATOM     25  H   UNL     1       3.098   3.082  19.754  0.00  0.00    +0.000 HD
ENDBRANCH   1  24
BRANCH  10  26
ATOM     26  N   UNL     1       3.603   6.228  19.517  0.00  0.00    +0.000 N 
ATOM     27  H   UNL     1       4.192   6.406  20.329  0.00  0.00    +0.000 HD
BRANCH  26  28
ATOM     28  C   UNL     1       2.639   7.253  19.321  0.00  0.00    +0.000 A 
ATOM     29  C   UNL     1       1.872   7.773  20.374  0.00  0.00    +0.000 A 
ATOM     30  C   UNL     1       0.964   8.820  20.173  0.00  0.00    +0.000 A 
ATOM     31  C   UNL     1       0.852   9.435  18.923  0.00  0.00    +0.000 A 
ATOM     32  C   UNL     1       1.634   8.943  17.868  0.00  0.00    +0.000 A 
ATOM     33  C   UNL     1       2.517   7.870  18.067  0.00  0.00    +0.000 A 
BRANCH  31  34
ATOM     34  C   UNL     1      -0.041  10.638  18.728  0.00  0.00    +0.000 C 
ATOM     35  F   UNL     1      -0.918  10.507  17.692  0.00  0.00    +0.000 F 
ATOM     36  F   UNL     1      -0.807  10.891  19.827  0.00  0.00    +0.000 F 
ATOM     37  F   UNL     1       0.653  11.784  18.487  0.00  0.00    +0.000 F 
ENDBRANCH  31  34
ENDBRANCH  26  28
ENDBRANCH  10  26
TORSDOF 5
ENDMDL
MODEL 6
REMARK VINA RESULT:      -8.1      0.864      1.325
REMARK  Name = 
REMARK  6 active torsions:
REMARK  status: ('A' for Active; 'I' for Inactive)
REMARK    1  A    between atoms: C_1  and  C_2
REMARK    2  A    between atoms: N_4  and  C_5
REMARK    3  A    between atoms: C_11  and  C_12
REMARK    4  A    between atoms: C_24  and  N_25
REMARK    5  A    between atoms: N_25  and  C_26
REMARK    6  A    between atoms: C_29  and  C_30
REMARK                            x       y       z     vdW  Elec       q    Type
REMARK                         _______ _______ _______ _____ _____    ______ ____
ROOT
ATOM      1  C   UNL     1       3.326   4.305  17.992  0.00  0.00    +0.000 A 
ATOM      2  C   UNL     1       3.899   3.647  16.911  0.00  0.00    +0.000 A 
ATOM      3  N   UNL     1       4.989   4.080  16.236  0.00  0.00    +0.000 NA
ATOM      4  C   UNL     1       5.601   5.180  16.679  0.00  0.00    +0.000 A 
ATOM      5  C   UNL     1       6.735   5.579  16.005  0.00  0.00    +0.000 A 
ATOM      6  C   UNL     1       7.476   6.698  16.397  0.00  0.00    +0.000 A 
ATOM      7  C   UNL     1       7.103   7.452  17.514  0.00  0.00    +0.000 A 
ATOM      8  C   UNL     1       5.956   7.019  18.205  0.00  0.00    +0.000 A 
ATOM      9  C   UNL     1       5.147   5.930  17.782  0.00  0.00    +0.000 A 
ATOM     10  C   UNL     1       3.909   5.530  18.388  0.00  0.00    +0.000 A 
ENDROOT
BRANCH   7  11
ATOM     11  C   UNL     1       7.852   8.651  17.930  0.00  0.00    +0.000 A 
ATOM     12  C   UNL     1       8.823   8.617  18.930  0.00  0.00    +0.000 A 
ATOM     13  N   UNL     1       9.509   9.689  19.395  0.00  0.00    +0.000 NA
ATOM     14  C   UNL     1       9.249  10.883  18.844  0.00  0.00    +0.000 A 
ATOM     15  C   UNL     1       9.925  12.006  19.303  0.00  0.00    +0.000 A 
ATOM     16  C   UNL     1       9.698  13.271  18.756  0.00  0.00    +0.000 A 
ATOM     17  C   UNL     1       8.776  13.426  17.727  0.00  0.00    +0.000 A 
ATOM     18  C   UNL     1       8.077  12.317  17.257  0.00  0.00    +0.000 A 
ATOM     19  C   UNL     1       8.304  11.046  17.813  0.00  0.00    +0.000 A 
ATOM     20  C   UNL     1       7.606   9.912  17.372  0.00  0.00    +0.000 A 
ENDBRANCH   7  11
BRANCH   1  24
ATOM     21  C   UNL     1       0.847   2.589  20.278  0.00  0.00    +0.000 C 
ATOM     22  C   UNL     1       2.209   2.998  19.790  0.00  0.00    +0.000 C 
ATOM     23  O   UNL     1       3.215   2.621  20.384  0.00  0.00    +0.000 OA
ATOM     24  N   UNL     1       2.181   3.810  18.670  0.00  0.00    +0.000 N 
ATOM     25  H   UNL     1       1.289   4.159  18.332  0.00  0.00    +0.000 HD
ENDBRANCH   1  24
BRANCH  10  26
ATOM     26  N   UNL     1       3.287   6.269  19.451  0.00  0.00    +0.000 N 
ATOM     27  H   UNL     1       3.898   6.286  20.267  0.00  0.00    +0.000 HD
BRANCH  26  28
ATOM     28  C   UNL     1       2.486   7.438  19.358  0.00  0.00    +0.000 A 
ATOM     29  C   UNL     1       2.289   8.117  18.146  0.00  0.00    +0.000 A 
ATOM     30  C   UNL     1       1.453   9.237  18.060  0.00  0.00    +0.000 A 
ATOM     31  C   UNL     1       0.722   9.667  19.171  0.00  0.00    +0.000 A 
ATOM     32  C   UNL     1       0.888   8.979  20.382  0.00  0.00    +0.000 A 
ATOM     33  C   UNL     1       1.755   7.878  20.471  0.00  0.00    +0.000 A 
BRANCH  31  34
ATOM     34  C   UNL     1      -0.267  10.803  19.056  0.00  0.00    +0.000 C 
ATOM     35  F   UNL     1      -0.566  11.391  20.249  0.00  0.00    +0.000 F 
ATOM     36  F   UNL     1       0.195  11.806  18.258  0.00  0.00    +0.000 F 
ATOM     37  F   UNL     1      -1.458  10.420  18.520  0.00  0.00    +0.000 F 
ENDBRANCH  31  34
ENDBRANCH  26  28
ENDBRANCH  10  26
TORSDOF 5
ENDMDL
MODEL 7
REMARK VINA RESULT:      -8.1      4.883      9.028
REMARK  Name = 
REMARK  6 active torsions:
REMARK  status: ('A' for Active; 'I' for Inactive)
REMARK    1  A    between atoms: C_1  and  C_2
REMARK    2  A    between atoms: N_4  and  C_5
REMARK    3  A    between atoms: C_11  and  C_12
REMARK    4  A    between atoms: C_24  and  N_25
REMARK    5  A    between atoms: N_25  and  C_26
REMARK    6  A    between atoms: C_29  and  C_30
REMARK                            x       y       z     vdW  Elec       q    Type
REMARK                         _______ _______ _______ _____ _____    ______ ____
ROOT
ATOM      1  C   UNL     1      -1.068  13.102  21.935  0.00  0.00    +0.000 A 
ATOM      2  C   UNL     1      -1.507  12.404  23.053  0.00  0.00    +0.000 A 
ATOM      3  N   UNL     1      -1.290  11.086  23.272  0.00  0.00    +0.000 NA
ATOM      4  C   UNL     1      -0.543  10.422  22.388  0.00  0.00    +0.000 A 
ATOM      5  C   UNL     1      -0.296   9.092  22.653  0.00  0.00    +0.000 A 
ATOM      6  C   UNL     1       0.498   8.303  21.814  0.00  0.00    +0.000 A 
ATOM      7  C   UNL     1       1.097   8.846  20.673  0.00  0.00    +0.000 A 
ATOM      8  C   UNL     1       0.855  10.211  20.428  0.00  0.00    +0.000 A 
ATOM      9  C   UNL     1      -0.008  11.011  21.225  0.00  0.00    +0.000 A 
ATOM     10  C   UNL     1      -0.374  12.370  20.945  0.00  0.00    +0.000 A 
ENDROOT
BRANCH   7  11
ATOM     11  C   UNL     1       1.915   8.029  19.760  0.00  0.00    +0.000 A 
ATOM     12  C   UNL     1       2.336   8.493  18.514  0.00  0.00    +0.000 A 
ATOM     13  N   UNL     1       3.043   7.777  17.607  0.00  0.00    +0.000 NA
ATOM     14  C   UNL     1       3.383   6.522  17.931  0.00  0.00    +0.000 A 
ATOM     15  C   UNL     1       4.099   5.753  17.022  0.00  0.00    +0.000 A 
ATOM     16  C   UNL     1       4.487   4.444  17.314  0.00  0.00    +0.000 A 
ATOM     17  C   UNL     1       4.156   3.881  18.542  0.00  0.00    +0.000 A 
ATOM     18  C   UNL     1       3.428   4.626  19.467  0.00  0.00    +0.000 A 
ATOM     19  C   UNL     1       3.036   5.943  19.167  0.00  0.00    +0.000 A 
ATOM     20  C   UNL     1       2.290   6.715  20.070  0.00  0.00    +0.000 A 
ENDBRANCH   7  11
BRANCH   1  24
ATOM     21  C   UNL     1      -1.244  16.877  22.121  0.00  0.00    +0.000 C 
ATOM     22  C   UNL     1      -0.772  15.504  22.512  0.00  0.00    +0.000 C 
ATOM     23  O   UNL     1       0.037  15.366  23.425  0.00  0.00    +0.000 OA
ATOM     24  N   UNL     1      -1.320  14.487  21.750  0.00  0.00    +0.000 N 
ATOM     25  H   UNL     1      -1.886  14.723  20.941  0.00  0.00    +0.000 HD
ENDBRANCH   1  24
BRANCH  10  26
ATOM     26  N   UNL     1       0.021  13.052  19.744  0.00  0.00    +0.000 N 
ATOM     27  H   UNL     1      -0.746  13.630  19.405  0.00  0.00    +0.000 HD
BRANCH  26  28
ATOM     28  C   UNL     1       1.290  13.603  19.423  0.00  0.00    +0.000 A 
ATOM     29  C   UNL     1       1.920  14.558  20.234  0.00  0.00    +0.000 A 
ATOM     30  C   UNL     1       3.194  15.053  19.932  0.00  0.00    +0.000 A 
ATOM     31  C   UNL     1       3.915  14.546  18.847  0.00  0.00    +0.000 A 
ATOM     32  C   UNL     1       3.308  13.570  18.043  0.00  0.00    +0.000 A 
ATOM     33  C   UNL     1       2.015  13.104  18.332  0.00  0.00    +0.000 A 
BRANCH  31  34
ATOM     34  C   UNL     1       5.335  14.993  18.582  0.00  0.00    +0.000 C 
ATOM     35  F   UNL     1       6.200  14.689  19.591  0.00  0.00    +0.000 F 
ATOM     36  F   UNL     1       5.855  14.412  17.465  0.00  0.00    +0.000 F 
ATOM     37  F   UNL     1       5.443  16.335  18.390  0.00  0.00    +0.000 F 
ENDBRANCH  31  34
ENDBRANCH  26  28
ENDBRANCH  10  26
TORSDOF 5
ENDMDL
MODEL 8
REMARK VINA RESULT:      -8.1      0.378      1.117
REMARK  Name = 
REMARK  6 active torsions:
REMARK  status: ('A' for Active; 'I' for Inactive)
REMARK    1  A    between atoms: C_1  and  C_2
REMARK    2  A    between atoms: N_4  and  C_5
REMARK    3  A    between atoms: C_11  and  C_12
REMARK    4  A    between atoms: C_24  and  N_25
REMARK    5  A    between atoms: N_25  and  C_26
REMARK    6  A    between atoms: C_29  and  C_30
REMARK                            x       y       z     vdW  Elec       q    Type
REMARK                         _______ _______ _______ _____ _____    ______ ____
ROOT
ATOM      1  C   UNL     1       3.878   3.837  17.818  0.00  0.00    +0.000 A 
ATOM      2  C   UNL     1       4.533   3.262  16.736  0.00  0.00    +0.000 A 
ATOM      3  N   UNL     1       5.585   3.816  16.090  0.00  0.00    +0.000 NA
ATOM      4  C   UNL     1       6.075   4.963  16.565  0.00  0.00    +0.000 A 
ATOM      5  C   UNL     1       7.174   5.487  15.920  0.00  0.00    +0.000 A 
ATOM      6  C   UNL     1       7.792   6.668  16.347  0.00  0.00    +0.000 A 
ATOM      7  C   UNL     1       7.327   7.356  17.472  0.00  0.00    +0.000 A 
ATOM      8  C   UNL     1       6.217   6.796  18.133  0.00  0.00    +0.000 A 
ATOM      9  C   UNL     1       5.529   5.640  17.673  0.00  0.00    +0.000 A 
ATOM     10  C   UNL     1       4.329   5.106  18.249  0.00  0.00    +0.000 A 
ENDROOT
BRANCH   7  11
ATOM     11  C   UNL     1       7.943   8.615  17.925  0.00  0.00    +0.000 A 
ATOM     12  C   UNL     1       8.832   8.670  18.998  0.00  0.00    +0.000 A 
ATOM     13  N   UNL     1       9.392   9.797  19.497  0.00  0.00    +0.000 NA
ATOM     14  C   UNL     1       9.084  10.961  18.908  0.00  0.00    +0.000 A 
ATOM     15  C   UNL     1       9.631  12.140  19.399  0.00  0.00    +0.000 A 
ATOM     16  C   UNL     1       9.351  13.376  18.815  0.00  0.00    +0.000 A 
ATOM     17  C   UNL     1       8.504  13.447  17.714  0.00  0.00    +0.000 A 
ATOM     18  C   UNL     1       7.933  12.281  17.209  0.00  0.00    +0.000 A 
ATOM     19  C   UNL     1       8.215  11.038  17.803  0.00  0.00    +0.000 A 
ATOM     20  C   UNL     1       7.645   9.847  17.328  0.00  0.00    +0.000 A 
ENDBRANCH   7  11
BRANCH   1  24
ATOM     21  C   UNL     1       0.491   2.731  19.092  0.00  0.00    +0.000 C 
ATOM     22  C   UNL     1       1.447   3.516  18.237  0.00  0.00    +0.000 C 
ATOM     23  O   UNL     1       1.020   4.328  17.421  0.00  0.00    +0.000 OA
ATOM     24  N   UNL     1       2.778   3.215  18.465  0.00  0.00    +0.000 N 
ATOM     25  H   UNL     1       3.013   2.441  19.078  0.00  0.00    +0.000 HD
ENDBRANCH   1  24
BRANCH  10  26
ATOM     26  N   UNL     1       3.617   5.755  19.314  0.00  0.00    +0.000 N 
ATOM     27  H   UNL     1       4.164   5.716  20.173  0.00  0.00    +0.000 HD
BRANCH  26  28
ATOM     28  C   UNL     1       2.808   6.921  19.248  0.00  0.00    +0.000 A 
ATOM     29  C   UNL     1       2.570   7.601  18.044  0.00  0.00    +0.000 A 
ATOM     30  C   UNL     1       1.727   8.718  17.987  0.00  0.00    +0.000 A 
ATOM     31  C   UNL     1       1.031   9.143  19.122  0.00  0.00    +0.000 A 
ATOM     32  C   UNL     1       1.238   8.455  20.326  0.00  0.00    +0.000 A 
ATOM     33  C   UNL     1       2.112   7.357  20.385  0.00  0.00    +0.000 A 
BRANCH  31  34
ATOM     34  C   UNL     1       0.034  10.276  19.040  0.00  0.00    +0.000 C 
ATOM     35  F   UNL     1       0.589  11.508  19.222  0.00  0.00    +0.000 F 
ATOM     36  F   UNL     1      -0.585  10.327  17.827  0.00  0.00    +0.000 F 
ATOM     37  F   UNL     1      -0.963  10.176  19.962  0.00  0.00    +0.000 F 
ENDBRANCH  31  34
ENDBRANCH  26  28
ENDBRANCH  10  26
TORSDOF 5
ENDMDL
MODEL 9
REMARK VINA RESULT:      -8.1      5.182      9.543
REMARK  Name = 
REMARK  6 active torsions:
REMARK  status: ('A' for Active; 'I' for Inactive)
REMARK    1  A    between atoms: C_1  and  C_2
REMARK    2  A    between atoms: N_4  and  C_5
REMARK    3  A    between atoms: C_11  and  C_12
REMARK    4  A    between atoms: C_24  and  N_25
REMARK    5  A    between atoms: N_25  and  C_26
REMARK    6  A    between atoms: C_29  and  C_30
REMARK                            x       y       z     vdW  Elec       q    Type
REMARK                         _______ _______ _______ _____ _____    ______ ____
ROOT
ATOM      1  C   UNL     1      -0.722  13.827  22.002  0.00  0.00    +0.000 A 
ATOM      2  C   UNL     1      -1.300  13.277  23.140  0.00  0.00    +0.000 A 
ATOM      3  N   UNL     1      -1.304  11.958  23.441  0.00  0.00    +0.000 NA
ATOM      4  C   UNL     1      -0.647  11.131  22.626  0.00  0.00    +0.000 A 
ATOM      5  C   UNL     1      -0.625   9.797  22.974  0.00  0.00    +0.000 A 
ATOM      6  C   UNL     1       0.057   8.842  22.213  0.00  0.00    +0.000 A 
ATOM      7  C   UNL     1       0.769   9.212  21.068  0.00  0.00    +0.000 A 
ATOM      8  C   UNL     1       0.756  10.580  20.737  0.00  0.00    +0.000 A 
ATOM      9  C   UNL     1       0.009  11.554  21.454  0.00  0.00    +0.000 A 
ATOM     10  C   UNL     1      -0.125  12.934  21.083  0.00  0.00    +0.000 A 
ENDROOT
BRANCH   7  11
ATOM     11  C   UNL     1       1.472   8.220  20.234  0.00  0.00    +0.000 A 
ATOM     12  C   UNL     1       1.916   8.508  18.944  0.00  0.00    +0.000 A 
ATOM     13  N   UNL     1       2.521   7.630  18.108  0.00  0.00    +0.000 NA
ATOM     14  C   UNL     1       2.725   6.383  18.554  0.00  0.00    +0.000 A 
ATOM     15  C   UNL     1       3.332   5.452  17.721  0.00  0.00    +0.000 A 
ATOM     16  C   UNL     1       3.578   4.143  18.141  0.00  0.00    +0.000 A 
ATOM     17  C   UNL     1       3.210   3.746  19.422  0.00  0.00    +0.000 A 
ATOM     18  C   UNL     1       2.589   4.657  20.273  0.00  0.00    +0.000 A 
ATOM     19  C   UNL     1       2.341   5.972  19.845  0.00  0.00    +0.000 A 
ATOM     20  C   UNL     1       1.704   6.910  20.672  0.00  0.00    +0.000 A 
ENDBRANCH   7  11
BRANCH   1  24
ATOM     21  C   UNL     1      -0.170  17.567  21.864  0.00  0.00    +0.000 C 
ATOM     22  C   UNL     1       0.100  16.156  22.305  0.00  0.00    +0.000 C 
ATOM     23  O   UNL     1       1.008  15.919  23.096  0.00  0.00    +0.000 OA
ATOM     24  N   UNL     1      -0.742  15.220  21.730  0.00  0.00    +0.000 N 
ATOM     25  H   UNL     1      -1.381  15.511  20.997  0.00  0.00    +0.000 HD
ENDBRANCH   1  24
BRANCH  10  26
ATOM     26  N   UNL     1       0.409  13.470  19.862  0.00  0.00    +0.000 N 
ATOM     27  H   UNL     1      -0.281  14.070  19.414  0.00  0.00    +0.000 HD
BRANCH  26  28
ATOM     28  C   UNL     1       1.739  13.891  19.595  0.00  0.00    +0.000 A 
ATOM     29  C   UNL     1       2.144  14.337  18.328  0.00  0.00    +0.000 A 
ATOM     30  C   UNL     1       3.445  14.800  18.094  0.00  0.00    +0.000 A 
ATOM     31  C   UNL     1       4.362  14.905  19.144  0.00  0.00    +0.000 A 
ATOM     32  C   UNL     1       3.961  14.489  20.421  0.00  0.00    +0.000 A 
ATOM     33  C   UNL     1       2.666  13.993  20.642  0.00  0.00    +0.000 A 
BRANCH  31  34
ATOM     34  C   UNL     1       5.729  15.510  18.920  0.00  0.00    +0.000 C 
ATOM     35  F   UNL     1       5.701  16.851  18.680  0.00  0.00    +0.000 F 
ATOM     36  F   UNL     1       6.544  15.347  20.000  0.00  0.00    +0.000 F 
ATOM     37  F   UNL     1       6.391  14.956  17.867  0.00  0.00    +0.000 F 
ENDBRANCH  31  34
ENDBRANCH  26  28
ENDBRANCH  10  26
TORSDOF 5
ENDMDL
