MODEL 1
REMARK VINA RESULT:      -7.3      0.000      0.000
REMARK  Name = 
REMARK  7 active torsions:
REMARK  status: ('A' for Active; 'I' for Inactive)
REMARK    1  A    between atoms: C_2  and  C_3
REMARK    2  A    between atoms: C_3  and  N_4
REMARK    3  A    between atoms: C_5  and  C_6
REMARK    4  A    between atoms: C_6  and  O_7
REMARK    5  A    between atoms: O_7  and  C_8
REMARK    6  A    between atoms: C_11  and  O_12
REMARK    7  A    between atoms: O_12  and  C_13
REMARK                            x       y       z     vdW  Elec       q    Type
REMARK                         _______ _______ _______ _____ _____    ______ ____
ROOT
ATOM      1  N   UNL     1       3.515   4.986  18.225  0.00  0.00    +0.000 N 
ATOM      2  C   UNL     1       4.012   4.022  17.373  0.00  0.00    +0.000 A 
ATOM      3  N   UNL     1       3.547   2.828  17.704  0.00  0.00    +0.000 NA
ATOM      4  C   UNL     1       2.760   3.018  18.807  0.00  0.00    +0.000 A 
ATOM      5  C   UNL     1       2.014   2.072  19.532  0.00  0.00    +0.000 A 
ATOM      6  C   UNL     1       1.281   2.498  20.644  0.00  0.00    +0.000 A 
ATOM      7  C   UNL     1       1.303   3.831  21.037  0.00  0.00    +0.000 A 
ATOM      8  C   UNL     1       2.042   4.794  20.326  0.00  0.00    +0.000 A 
ATOM      9  C   UNL     1       2.748   4.354  19.196  0.00  0.00    +0.000 A 
ENDROOT
BRANCH   1  10
ATOM     10  C   UNL     1       3.735   6.422  18.106  0.00  0.00    +0.000 C 
BRANCH  10  12
ATOM     11  C   UNL     1       2.404   8.592  17.776  0.00  0.00    +0.000 C 
ATOM     12  C   UNL     1       2.496   7.281  18.077  0.00  0.00    +0.000 C 
ENDBRANCH  10  12
ENDBRANCH   1  10
BRANCH   2  13
ATOM     13  C   UNL     1       4.870   4.291  16.173  0.00  0.00    +0.000 C 
BRANCH  13  14
ATOM     14  O   UNL     1       6.259   4.091  16.509  0.00  0.00    +0.000 OA
BRANCH  14  15
ATOM     15  C   UNL     1       6.889   5.185  17.046  0.00  0.00    +0.000 A 
ATOM     16  C   UNL     1       7.479   5.048  18.311  0.00  0.00    +0.000 A 
ATOM     17  C   UNL     1       8.073   6.163  18.926  0.00  0.00    +0.000 A 
ATOM     18  C   UNL     1       8.108   7.400  18.279  0.00  0.00    +0.000 A 
ATOM     19  C   UNL     1       7.560   7.513  17.002  0.00  0.00    +0.000 A 
ATOM     20  C   UNL     1       6.985   6.406  16.384  0.00  0.00    +0.000 A 
BRANCH  18  21
ATOM     21  O   UNL     1       8.638   8.440  18.990  0.00  0.00    +0.000 OA
ATOM     22  C   UNL     1       8.640   9.702  18.330  0.00  0.00    +0.000 C 
ENDBRANCH  18  21
ENDBRANCH  14  15
ENDBRANCH  13  14
ENDBRANCH   2  13
TORSDOF 6
ENDMDL
MODEL 2
REMARK VINA RESULT:      -6.9      4.030      7.002
REMARK  Name = 
REMARK  7 active torsions:
REMARK  status: ('A' for Active; 'I' for Inactive)
REMARK    1  A    between atoms: C_2  and  C_3
REMARK    2  A    between atoms: C_3  and  N_4
REMARK    3  A    between atoms: C_5  and  C_6
REMARK    4  A    between atoms: C_6  and  O_7
REMARK    5  A    between atoms: O_7  and  C_8
REMARK    6  A    between atoms: C_11  and  O_12
REMARK    7  A    between atoms: O_12  and  C_13
REMARK                            x       y       z     vdW  Elec       q    Type
REMARK                         _______ _______ _______ _____ _____    ______ ____
ROOT
ATOM      1  N   UNL     1       3.361   5.107  18.541  0.00  0.00    +0.000 N 
ATOM      2  C   UNL     1       3.150   6.455  18.747  0.00  0.00    +0.000 A 
ATOM      3  N   UNL     1       3.750   7.167  17.807  0.00  0.00    +0.000 NA
ATOM      4  C   UNL     1       4.385   6.267  16.996  0.00  0.00    +0.000 A 
ATOM      5  C   UNL     1       5.144   6.507  15.835  0.00  0.00    +0.000 A 
ATOM      6  C   UNL     1       5.713   5.421  15.164  0.00  0.00    +0.000 A 
ATOM      7  C   UNL     1       5.548   4.127  15.644  0.00  0.00    +0.000 A 
ATOM      8  C   UNL     1       4.793   3.864  16.801  0.00  0.00    +0.000 A 
ATOM      9  C   UNL     1       4.205   4.963  17.446  0.00  0.00    +0.000 A 
ENDROOT
BRANCH   1  10
ATOM     10  C   UNL     1       2.775   4.024  19.320  0.00  0.00    +0.000 C 
BRANCH  10  12
ATOM     11  C   UNL     1       0.958   2.338  18.651  0.00  0.00    +0.000 C 
ATOM     12  C   UNL     1       1.390   3.588  18.912  0.00  0.00    +0.000 C 
ENDBRANCH  10  12
ENDBRANCH   1  10
BRANCH   2  13
ATOM     13  C   UNL     1       2.276   7.036  19.818  0.00  0.00    +0.000 C 
BRANCH  13  14
ATOM     14  O   UNL     1       1.773   8.320  19.396  0.00  0.00    +0.000 OA
BRANCH  14  15
ATOM     15  C   UNL     1       1.112   9.032  20.365  0.00  0.00    +0.000 A 
ATOM     16  C   UNL     1       0.584  10.283  20.015  0.00  0.00    +0.000 A 
ATOM     17  C   UNL     1      -0.038  11.074  20.995  0.00  0.00    +0.000 A 
ATOM     18  C   UNL     1      -0.162  10.616  22.309  0.00  0.00    +0.000 A 
ATOM     19  C   UNL     1       0.325   9.351  22.634  0.00  0.00    +0.000 A 
ATOM     20  C   UNL     1       0.928   8.559  21.661  0.00  0.00    +0.000 A 
BRANCH  18  21
ATOM     21  O   UNL     1      -0.713  11.490  23.205  0.00  0.00    +0.000 OA
ATOM     22  C   UNL     1      -1.085  12.760  22.678  0.00  0.00    +0.000 C 
ENDBRANCH  18  21
ENDBRANCH  14  15
ENDBRANCH  13  14
ENDBRANCH   2  13
TORSDOF 6
ENDMDL
MODEL 3
REMARK VINA RESULT:      -6.9      1.983      3.509
REMARK  Name = 
REMARK  7 active torsions:
REMARK  status: ('A' for Active; 'I' for Inactive)
REMARK    1  A    between atoms: C_2  and  C_3
REMARK    2  A    between atoms: C_3  and  N_4
REMARK    3  A    between atoms: C_5  and  C_6
REMARK    4  A    between atoms: C_6  and  O_7
REMARK    5  A    between atoms: O_7  and  C_8
REMARK    6  A    between atoms: C_11  and  O_12
REMARK    7  A    between atoms: O_12  and  C_13
REMARK                            x       y       z     vdW  Elec       q    Type
REMARK                         _______ _______ _______ _____ _____    ______ ____
ROOT
ATOM      1  N   UNL     1       3.745   5.276  19.304  0.00  0.00    +0.000 N 
ATOM      2  C   UNL     1       5.014   4.737  19.244  0.00  0.00    +0.000 A 
ATOM      3  N   UNL     1       4.952   3.427  19.068  0.00  0.00    +0.000 NA
ATOM      4  C   UNL     1       3.623   3.108  19.043  0.00  0.00    +0.000 A 
ATOM      5  C   UNL     1       3.020   1.851  18.855  0.00  0.00    +0.000 A 
ATOM      6  C   UNL     1       1.625   1.760  18.875  0.00  0.00    +0.000 A 
ATOM      7  C   UNL     1       0.846   2.891  19.096  0.00  0.00    +0.000 A 
ATOM      8  C   UNL     1       1.428   4.157  19.285  0.00  0.00    +0.000 A 
ATOM      9  C   UNL     1       2.828   4.234  19.232  0.00  0.00    +0.000 A 
ENDROOT
BRANCH   1  10
ATOM     10  C   UNL     1       3.426   6.695  19.395  0.00  0.00    +0.000 C 
BRANCH  10  12
ATOM     11  C   UNL     1       1.986   8.178  17.872  0.00  0.00    +0.000 C 
ATOM     12  C   UNL     1       3.042   7.371  18.103  0.00  0.00    +0.000 C 
ENDBRANCH  10  12
ENDBRANCH   1  10
BRANCH   2  13
ATOM     13  C   UNL     1       6.288   5.528  19.266  0.00  0.00    +0.000 C 
BRANCH  13  14
ATOM     14  O   UNL     1       6.359   6.372  18.098  0.00  0.00    +0.000 OA
BRANCH  14  15
ATOM     15  C   UNL     1       6.297   5.709  16.898  0.00  0.00    +0.000 A 
ATOM     16  C   UNL     1       5.384   6.171  15.939  0.00  0.00    +0.000 A 
ATOM     17  C   UNL     1       5.239   5.478  14.726  0.00  0.00    +0.000 A 
ATOM     18  C   UNL     1       6.016   4.349  14.452  0.00  0.00    +0.000 A 
ATOM     19  C   UNL     1       6.953   3.927  15.393  0.00  0.00    +0.000 A 
ATOM     20  C   UNL     1       7.109   4.622  16.589  0.00  0.00    +0.000 A 
BRANCH  18  21
ATOM     21  O   UNL     1       5.747   3.701  13.279  0.00  0.00    +0.000 OA
ATOM     22  C   UNL     1       6.769   3.767  12.289  0.00  0.00    +0.000 C 
ENDBRANCH  18  21
ENDBRANCH  14  15
ENDBRANCH  13  14
ENDBRANCH   2  13
TORSDOF 6
ENDMDL
MODEL 4
REMARK VINA RESULT:      -6.8      2.195      4.433
REMARK  Name = 
REMARK  7 active torsions:
REMARK  status: ('A' for Active; 'I' for Inactive)
REMARK    1  A    between atoms: C_2  and  C_3
REMARK    2  A    between atoms: C_3  and  N_4
REMARK    3  A    between atoms: C_5  and  C_6
REMARK    4  A    between atoms: C_6  and  O_7
REMARK    5  A    between atoms: O_7  and  C_8
REMARK    6  A    between atoms: C_11  and  O_12
REMARK    7  A    between atoms: O_12  and  C_13
REMARK                            x       y       z     vdW  Elec       q    Type
REMARK                         _______ _______ _______ _____ _____    ______ ____
ROOT
ATOM      1  N   UNL     1       2.366   5.594  19.912  0.00  0.00    +0.000 N 
ATOM      2  C   UNL     1       2.796   5.203  18.660  0.00  0.00    +0.000 A 
ATOM      3  N   UNL     1       2.749   6.221  17.816  0.00  0.00    +0.000 NA
ATOM      4  C   UNL     1       2.253   7.280  18.525  0.00  0.00    +0.000 A 
ATOM      5  C   UNL     1       2.031   8.602  18.097  0.00  0.00    +0.000 A 
ATOM      6  C   UNL     1       1.502   9.526  19.004  0.00  0.00    +0.000 A 
ATOM      7  C   UNL     1       1.183   9.141  20.301  0.00  0.00    +0.000 A 
ATOM      8  C   UNL     1       1.397   7.825  20.749  0.00  0.00    +0.000 A 
ATOM      9  C   UNL     1       1.955   6.919  19.835  0.00  0.00    +0.000 A 
ENDROOT
BRANCH   1  10
ATOM     10  C   UNL     1       2.371   4.765  21.111  0.00  0.00    +0.000 C 
BRANCH  10  12
ATOM     11  C   UNL     1       1.549   2.418  21.748  0.00  0.00    +0.000 C 
ATOM     12  C   UNL     1       1.413   3.601  21.115  0.00  0.00    +0.000 C 
ENDBRANCH  10  12
ENDBRANCH   1  10
BRANCH   2  13
ATOM     13  C   UNL     1       3.344   3.849  18.321  0.00  0.00    +0.000 C 
BRANCH  13  14
ATOM     14  O   UNL     1       4.772   3.836  18.518  0.00  0.00    +0.000 OA
BRANCH  14  15
ATOM     15  C   UNL     1       5.508   4.333  17.471  0.00  0.00    +0.000 A 
ATOM     16  C   UNL     1       5.267   3.809  16.193  0.00  0.00    +0.000 A 
ATOM     17  C   UNL     1       6.046   4.240  15.107  0.00  0.00    +0.000 A 
ATOM     18  C   UNL     1       7.040   5.206  15.281  0.00  0.00    +0.000 A 
ATOM     19  C   UNL     1       7.239   5.753  16.547  0.00  0.00    +0.000 A 
ATOM     20  C   UNL     1       6.457   5.340  17.622  0.00  0.00    +0.000 A 
BRANCH  18  21
ATOM     21  O   UNL     1       7.795   5.502  14.180  0.00  0.00    +0.000 OA
ATOM     22  C   UNL     1       7.446   4.805  12.987  0.00  0.00    +0.000 C 
ENDBRANCH  18  21
ENDBRANCH  14  15
ENDBRANCH  13  14
ENDBRANCH   2  13
TORSDOF 6
ENDMDL
MODEL 5
REMARK VINA RESULT:      -6.8      4.165      7.063
REMARK  Name = 
REMARK  7 active torsions:
REMARK  status: ('A' for Active; 'I' for Inactive)
REMARK    1  A    between atoms: C_2  and  C_3
REMARK    2  A    between atoms: C_3  and  N_4
REMARK    3  A    between atoms: C_5  and  C_6
REMARK    4  A    between atoms: C_6  and  O_7
REMARK    5  A    between atoms: O_7  and  C_8
REMARK    6  A    between atoms: C_11  and  O_12
REMARK    7  A    between atoms: O_12  and  C_13
REMARK                            x       y       z     vdW  Elec       q    Type
REMARK                         _______ _______ _______ _____ _____    ______ ____
ROOT
ATOM      1  N   UNL     1       2.862   5.241  18.533  0.00  0.00    +0.000 N 
ATOM      2  C   UNL     1       2.910   6.582  18.856  0.00  0.00    +0.000 A 
ATOM      3  N   UNL     1       3.728   7.226  18.039  0.00  0.00    +0.000 NA
ATOM      4  C   UNL     1       4.241   6.282  17.193  0.00  0.00    +0.000 A 
ATOM      5  C   UNL     1       5.138   6.451  16.122  0.00  0.00    +0.000 A 
ATOM      6  C   UNL     1       5.537   5.328  15.390  0.00  0.00    +0.000 A 
ATOM      7  C   UNL     1       5.068   4.063  15.725  0.00  0.00    +0.000 A 
ATOM      8  C   UNL     1       4.170   3.872  16.791  0.00  0.00    +0.000 A 
ATOM      9  C   UNL     1       3.759   5.013  17.496  0.00  0.00    +0.000 A 
ENDROOT
BRANCH   1  10
ATOM     10  C   UNL     1       1.998   4.246  19.154  0.00  0.00    +0.000 C 
BRANCH  10  12
ATOM     11  C   UNL     1       1.718   2.983  21.372  0.00  0.00    +0.000 C 
ATOM     12  C   UNL     1       2.403   3.785  20.532  0.00  0.00    +0.000 C 
ENDBRANCH  10  12
ENDBRANCH   1  10
BRANCH   2  13
ATOM     13  C   UNL     1       2.075   7.244  19.911  0.00  0.00    +0.000 C 
BRANCH  13  14
ATOM     14  O   UNL     1       1.541   8.485  19.404  0.00  0.00    +0.000 OA
BRANCH  14  15
ATOM     15  C   UNL     1       0.922   9.276  20.339  0.00  0.00    +0.000 A 
ATOM     16  C   UNL     1       0.992   8.880  21.683  0.00  0.00    +0.000 A 
ATOM     17  C   UNL     1       0.313   9.623  22.663  0.00  0.00    +0.000 A 
ATOM     18  C   UNL     1      -0.409  10.768  22.317  0.00  0.00    +0.000 A 
ATOM     19  C   UNL     1      -0.433  11.177  20.985  0.00  0.00    +0.000 A 
ATOM     20  C   UNL     1       0.253  10.452  20.015  0.00  0.00    +0.000 A 
BRANCH  18  21
ATOM     21  O   UNL     1      -1.098  11.377  23.329  0.00  0.00    +0.000 OA
ATOM     22  C   UNL     1      -1.353  12.767  23.152  0.00  0.00    +0.000 C 
ENDBRANCH  18  21
ENDBRANCH  14  15
ENDBRANCH  13  14
ENDBRANCH   2  13
TORSDOF 6
ENDMDL
MODEL 6
REMARK VINA RESULT:      -6.7      1.613      3.745
REMARK  Name = 
REMARK  7 active torsions:
REMARK  status: ('A' for Active; 'I' for Inactive)
REMARK    1  A    between atoms: C_2  and  C_3
REMARK    2  A    between atoms: C_3  and  N_4
REMARK    3  A    between atoms: C_5  and  C_6
REMARK    4  A    between atoms: C_6  and  O_7
REMARK    5  A    between atoms: O_7  and  C_8
REMARK    6  A    between atoms: C_11  and  O_12
REMARK    7  A    between atoms: O_12  and  C_13
REMARK                            x       y       z     vdW  Elec       q    Type
REMARK                         _______ _______ _______ _____ _____    ______ ____
ROOT
ATOM      1  N   UNL     1       2.372   5.401  19.839  0.00  0.00    +0.000 N 
ATOM      2  C   UNL     1       2.779   5.011  18.579  0.00  0.00    +0.000 A 
ATOM      3  N   UNL     1       2.741   6.037  17.743  0.00  0.00    +0.000 NA
ATOM      4  C   UNL     1       2.273   7.100  18.466  0.00  0.00    +0.000 A 
ATOM      5  C   UNL     1       2.071   8.429  18.050  0.00  0.00    +0.000 A 
ATOM      6  C   UNL     1       1.570   9.355  18.970  0.00  0.00    +0.000 A 
ATOM      7  C   UNL     1       1.259   8.966  20.268  0.00  0.00    +0.000 A 
ATOM      8  C   UNL     1       1.454   7.643  20.704  0.00  0.00    +0.000 A 
ATOM      9  C   UNL     1       1.985   6.734  19.776  0.00  0.00    +0.000 A 
ENDROOT
BRANCH   1  10
ATOM     10  C   UNL     1       2.376   4.563  21.031  0.00  0.00    +0.000 C 
BRANCH  10  12
ATOM     11  C   UNL     1       1.348   2.374  21.892  0.00  0.00    +0.000 C 
ATOM     12  C   UNL     1       1.398   3.415  21.037  0.00  0.00    +0.000 C 
ENDBRANCH  10  12
ENDBRANCH   1  10
BRANCH   2  13
ATOM     13  C   UNL     1       3.298   3.650  18.223  0.00  0.00    +0.000 C 
BRANCH  13  14
ATOM     14  O   UNL     1       4.661   3.513  18.674  0.00  0.00    +0.000 OA
BRANCH  14  15
ATOM     15  C   UNL     1       5.538   4.436  18.162  0.00  0.00    +0.000 A 
ATOM     16  C   UNL     1       6.229   5.256  19.065  0.00  0.00    +0.000 A 
ATOM     17  C   UNL     1       7.082   6.261  18.579  0.00  0.00    +0.000 A 
ATOM     18  C   UNL     1       7.272   6.433  17.206  0.00  0.00    +0.000 A 
ATOM     19  C   UNL     1       6.615   5.581  16.319  0.00  0.00    +0.000 A 
ATOM     20  C   UNL     1       5.782   4.574  16.799  0.00  0.00    +0.000 A 
BRANCH  18  21
ATOM     21  O   UNL     1       8.060   7.485  16.831  0.00  0.00    +0.000 OA
ATOM     22  C   UNL     1       7.979   8.642  17.660  0.00  0.00    +0.000 C 
ENDBRANCH  18  21
ENDBRANCH  14  15
ENDBRANCH  13  14
ENDBRANCH   2  13
TORSDOF 6
ENDMDL
MODEL 7
REMARK VINA RESULT:      -6.7      4.498      7.395
REMARK  Name = 
REMARK  7 active torsions:
REMARK  status: ('A' for Active; 'I' for Inactive)
REMARK    1  A    between atoms: C_2  and  C_3
REMARK    2  A    between atoms: C_3  and  N_4
REMARK    3  A    between atoms: C_5  and  C_6
REMARK    4  A    between atoms: C_6  and  O_7
REMARK    5  A    between atoms: O_7  and  C_8
REMARK    6  A    between atoms: C_11  and  O_12
REMARK    7  A    between atoms: O_12  and  C_13
REMARK                            x       y       z     vdW  Elec       q    Type
REMARK                         _______ _______ _______ _____ _____    ______ ____
ROOT
ATOM      1  N   UNL     1       2.254   5.120  19.295  0.00  0.00    +0.000 N 
ATOM      2  C   UNL     1       2.420   6.458  19.589  0.00  0.00    +0.000 A 
ATOM      3  N   UNL     1       3.311   7.003  18.776  0.00  0.00    +0.000 NA
ATOM      4  C   UNL     1       3.750   5.995  17.962  0.00  0.00    +0.000 A 
ATOM      5  C   UNL     1       4.680   6.054  16.908  0.00  0.00    +0.000 A 
ATOM      6  C   UNL     1       4.985   4.881  16.210  0.00  0.00    +0.000 A 
ATOM      7  C   UNL     1       4.394   3.674  16.563  0.00  0.00    +0.000 A 
ATOM      8  C   UNL     1       3.461   3.593  17.613  0.00  0.00    +0.000 A 
ATOM      9  C   UNL     1       3.145   4.784  18.283  0.00  0.00    +0.000 A 
ENDROOT
BRANCH   1  10
ATOM     10  C   UNL     1       1.288   4.225  19.920  0.00  0.00    +0.000 C 
BRANCH  10  12
ATOM     11  C   UNL     1       2.642   2.663  21.443  0.00  0.00    +0.000 C 
ATOM     12  C   UNL     1       1.707   3.612  21.233  0.00  0.00    +0.000 C 
ENDBRANCH  10  12
ENDBRANCH   1  10
BRANCH   2  13
ATOM     13  C   UNL     1       1.630   7.221  20.610  0.00  0.00    +0.000 C 
BRANCH  13  14
ATOM     14  O   UNL     1       1.301   8.528  20.098  0.00  0.00    +0.000 OA
BRANCH  14  15
ATOM     15  C   UNL     1       0.594   9.329  20.959  0.00  0.00    +0.000 A 
ATOM     16  C   UNL     1       0.133  10.563  20.479  0.00  0.00    +0.000 A 
ATOM     17  C   UNL     1      -0.533  11.442  21.349  0.00  0.00    +0.000 A 
ATOM     18  C   UNL     1      -0.767  11.089  22.680  0.00  0.00    +0.000 A 
ATOM     19  C   UNL     1      -0.346   9.840  23.133  0.00  0.00    +0.000 A 
ATOM     20  C   UNL     1       0.301   8.960  22.269  0.00  0.00    +0.000 A 
BRANCH  18  21
ATOM     21  O   UNL     1      -1.353  12.042  23.465  0.00  0.00    +0.000 OA
ATOM     22  C   UNL     1      -2.727  12.306  23.193  0.00  0.00    +0.000 C 
ENDBRANCH  18  21
ENDBRANCH  14  15
ENDBRANCH  13  14
ENDBRANCH   2  13
TORSDOF 6
ENDMDL
MODEL 8
REMARK VINA RESULT:      -6.6      4.681      7.088
REMARK  Name = 
REMARK  7 active torsions:
REMARK  status: ('A' for Active; 'I' for Inactive)
REMARK    1  A    between atoms: C_2  and  C_3
REMARK    2  A    between atoms: C_3  and  N_4
REMARK    3  A    between atoms: C_5  and  C_6
REMARK    4  A    between atoms: C_6  and  O_7
REMARK    5  A    between atoms: O_7  and  C_8
REMARK    6  A    between atoms: C_11  and  O_12
REMARK    7  A    between atoms: O_12  and  C_13
REMARK                            x       y       z     vdW  Elec       q    Type
REMARK                         _______ _______ _______ _____ _____    ______ ____
ROOT
ATOM      1  N   UNL     1       2.426   6.071  18.858  0.00  0.00    +0.000 N 
ATOM      2  C   UNL     1       1.908   6.415  20.090  0.00  0.00    +0.000 A 
ATOM      3  N   UNL     1       1.448   5.342  20.714  0.00  0.00    +0.000 NA
ATOM      4  C   UNL     1       1.645   4.292  19.861  0.00  0.00    +0.000 A 
ATOM      5  C   UNL     1       1.353   2.929  20.056  0.00  0.00    +0.000 A 
ATOM      6  C   UNL     1       1.636   2.024  19.029  0.00  0.00    +0.000 A 
ATOM      7  C   UNL     1       2.179   2.464  17.827  0.00  0.00    +0.000 A 
ATOM      8  C   UNL     1       2.478   3.821  17.611  0.00  0.00    +0.000 A 
ATOM      9  C   UNL     1       2.216   4.711  18.664  0.00  0.00    +0.000 A 
ENDROOT
BRANCH   1  10
ATOM     10  C   UNL     1       3.102   6.976  17.937  0.00  0.00    +0.000 C 
BRANCH  10  12
ATOM     11  C   UNL     1       5.026   6.486  16.309  0.00  0.00    +0.000 C 
ATOM     12  C   UNL     1       4.509   6.595  17.549  0.00  0.00    +0.000 C 
ENDBRANCH  10  12
ENDBRANCH   1  10
BRANCH   2  13
ATOM     13  C   UNL     1       1.953   7.788  20.692  0.00  0.00    +0.000 C 
BRANCH  13  14
ATOM     14  O   UNL     1       0.963   8.629  20.065  0.00  0.00    +0.000 OA
BRANCH  14  15
ATOM     15  C   UNL     1       0.273   9.450  20.922  0.00  0.00    +0.000 A 
ATOM     16  C   UNL     1      -0.226  10.658  20.413  0.00  0.00    +0.000 A 
ATOM     17  C   UNL     1      -0.876  11.559  21.273  0.00  0.00    +0.000 A 
ATOM     18  C   UNL     1      -1.056  11.252  22.624  0.00  0.00    +0.000 A 
ATOM     19  C   UNL     1      -0.596  10.029  23.108  0.00  0.00    +0.000 A 
ATOM     20  C   UNL     1       0.034   9.127  22.254  0.00  0.00    +0.000 A 
BRANCH  18  21
ATOM     21  O   UNL     1      -1.630  12.225  23.393  0.00  0.00    +0.000 OA
ATOM     22  C   UNL     1      -3.055  12.226  23.425  0.00  0.00    +0.000 C 
ENDBRANCH  18  21
ENDBRANCH  14  15
ENDBRANCH  13  14
ENDBRANCH   2  13
TORSDOF 6
ENDMDL
MODEL 9
REMARK VINA RESULT:      -6.6      3.470      5.896
REMARK  Name = 
REMARK  7 active torsions:
REMARK  status: ('A' for Active; 'I' for Inactive)
REMARK    1  A    between atoms: C_2  and  C_3
REMARK    2  A    between atoms: C_3  and  N_4
REMARK    3  A    between atoms: C_5  and  C_6
REMARK    4  A    between atoms: C_6  and  O_7
REMARK    5  A    between atoms: O_7  and  C_8
REMARK    6  A    between atoms: C_11  and  O_12
REMARK    7  A    between atoms: O_12  and  C_13
REMARK                            x       y       z     vdW  Elec       q    Type
REMARK                         _______ _______ _______ _____ _____    ______ ____
ROOT
ATOM      1  N   UNL     1       3.882   5.497  17.566  0.00  0.00    +0.000 N 
ATOM      2  C   UNL     1       2.897   6.384  17.949  0.00  0.00    +0.000 A 
ATOM      3  N   UNL     1       1.868   5.735  18.472  0.00  0.00    +0.000 NA
ATOM      4  C   UNL     1       2.180   4.406  18.398  0.00  0.00    +0.000 A 
ATOM      5  C   UNL     1       1.433   3.299  18.841  0.00  0.00    +0.000 A 
ATOM      6  C   UNL     1       1.952   2.014  18.652  0.00  0.00    +0.000 A 
ATOM      7  C   UNL     1       3.177   1.832  18.019  0.00  0.00    +0.000 A 
ATOM      8  C   UNL     1       3.940   2.925  17.569  0.00  0.00    +0.000 A 
ATOM      9  C   UNL     1       3.417   4.207  17.794  0.00  0.00    +0.000 A 
ENDROOT
BRANCH   1  10
ATOM     10  C   UNL     1       5.193   5.856  17.040  0.00  0.00    +0.000 C 
BRANCH  10  12
ATOM     11  C   UNL     1       6.380   5.001  14.931  0.00  0.00    +0.000 C 
ATOM     12  C   UNL     1       5.388   5.664  15.557  0.00  0.00    +0.000 C 
ENDBRANCH  10  12
ENDBRANCH   1  10
BRANCH   2  13
ATOM     13  C   UNL     1       3.010   7.878  17.888  0.00  0.00    +0.000 C 
BRANCH  13  14
ATOM     14  O   UNL     1       1.696   8.466  17.805  0.00  0.00    +0.000 OA
BRANCH  14  15
ATOM     15  C   UNL     1       1.360   9.287  18.853  0.00  0.00    +0.000 A 
ATOM     16  C   UNL     1       1.282   8.719  20.132  0.00  0.00    +0.000 A 
ATOM     17  C   UNL     1       0.873   9.510  21.219  0.00  0.00    +0.000 A 
ATOM     18  C   UNL     1       0.571  10.862  21.044  0.00  0.00    +0.000 A 
ATOM     19  C   UNL     1       0.698  11.426  19.776  0.00  0.00    +0.000 A 
ATOM     20  C   UNL     1       1.119  10.649  18.701  0.00  0.00    +0.000 A 
BRANCH  18  21
ATOM     21  O   UNL     1       0.109  11.526  22.147  0.00  0.00    +0.000 OA
ATOM     22  C   UNL     1      -0.856  10.828  22.928  0.00  0.00    +0.000 C 
ENDBRANCH  18  21
ENDBRANCH  14  15
ENDBRANCH  13  14
ENDBRANCH   2  13
TORSDOF 6
ENDMDL
