MODEL 1
REMARK VINA RESULT:      -8.1      0.000      0.000
REMARK  Name = 
REMARK  15 active torsions:
REMARK  status: ('A' for Active; 'I' for Inactive)
REMARK    1  A    between atoms: C_1  and  C_2
REMARK    2  A    between atoms: C_3  and  C_4
REMARK    3  A    between atoms: C_5  and  C_6
REMARK    4  A    between atoms: C_6  and  C_7
REMARK    5  A    between atoms: C_6  and  C_15
REMARK    6  A    between atoms: C_7  and  C_8
REMARK    7  A    between atoms: C_8  and  C_9
REMARK    8  A    between atoms: C_9  and  C_10
REMARK    9  A    between atoms: C_10  and  C_11
REMARK   10  A    between atoms: C_11  and  C_12
REMARK   11  A    between atoms: C_12  and  O_14
REMARK   12  A    between atoms: C_22  and  O_23
REMARK   13  A    between atoms: C_24  and  C_25
REMARK   14  A    between atoms: C_26  and  C_27
REMARK   15  A    between atoms: C_27  and  O_28
REMARK                            x       y       z     vdW  Elec       q    Type
REMARK                         _______ _______ _______ _____ _____    ______ ____
ROOT
ATOM      1  C   UNL     1       5.807   6.271  17.198  0.00  0.00    +0.000 C 
ENDROOT
BRANCH   1   6
ATOM      2  C   UNL     1       1.682   6.870  20.200  0.00  0.00    +0.000 C 
ATOM      3  C   UNL     1       2.766   5.966  19.643  0.00  0.00    +0.000 A 
ATOM      4  C   UNL     1       3.622   6.429  18.591  0.00  0.00    +0.000 A 
ATOM      5  C   UNL     1       3.230   7.699  17.860  0.00  0.00    +0.000 C 
ATOM      6  C   UNL     1       4.801   5.706  18.241  0.00  0.00    +0.000 A 
ATOM      7  C   UNL     1       4.977   4.444  18.858  0.00  0.00    +0.000 A 
ATOM      8  C   UNL     1       4.001   3.871  19.704  0.00  0.00    +0.000 A 
ATOM      9  C   UNL     1       4.109   2.407  20.073  0.00  0.00    +0.000 C 
ATOM     10  C   UNL     1       2.921   4.656  20.169  0.00  0.00    +0.000 A 
BRANCH   7  11
ATOM     11  O   UNL     1       6.071   3.644  18.649  0.00  0.00    +0.000 OA
ATOM     12  H   UNL     1       5.870   2.714  18.815  0.00  0.00    +0.000 HD
ENDBRANCH   7  11
BRANCH  10  13
ATOM     13  C   UNL     1       1.899   4.010  21.101  0.00  0.00    +0.000 C 
BRANCH  13  14
ATOM     14  O   UNL     1       0.725   3.523  20.468  0.00  0.00    +0.000 OA
ATOM     15  H   UNL     1       0.198   4.305  20.230  0.00  0.00    +0.000 HD
ENDBRANCH  13  14
ENDBRANCH  10  13
ENDBRANCH   1   6
BRANCH   1  16
ATOM     16  C   UNL     1       5.957   5.423  15.916  0.00  0.00    +0.000 A 
ATOM     17  C   UNL     1       7.210   5.387  15.264  0.00  0.00    +0.000 A 
ATOM     18  C   UNL     1       7.402   4.660  14.084  0.00  0.00    +0.000 A 
ATOM     19  C   UNL     1       6.337   3.973  13.522  0.00  0.00    +0.000 A 
ATOM     20  F   UNL     1       6.508   3.304  12.375  0.00  0.00    +0.000 F 
ATOM     21  C   UNL     1       5.094   3.985  14.131  0.00  0.00    +0.000 A 
ATOM     22  C   UNL     1       4.907   4.705  15.317  0.00  0.00    +0.000 A 
ENDBRANCH   1  16
BRANCH   1  23
ATOM     23  C   UNL     1       7.136   6.748  17.863  0.00  0.00    +0.000 C 
BRANCH  23  24
ATOM     24  C   UNL     1       7.573   8.188  17.545  0.00  0.00    +0.000 C 
BRANCH  24  25
ATOM     25  C   UNL     1       8.642   8.734  18.506  0.00  0.00    +0.000 C 
BRANCH  25  26
ATOM     26  C   UNL     1       8.833  10.245  18.363  0.00  0.00    +0.000 C 
BRANCH  26  27
ATOM     27  C   UNL     1       9.940  10.794  19.259  0.00  0.00    +0.000 C 
BRANCH  27  28
ATOM     28  C   UNL     1       9.354  11.585  20.414  0.00  0.00    +0.000 C 
ATOM     29  O   UNL     1       8.939  12.734  20.339  0.00  0.00    +0.000 OA
BRANCH  28  30
ATOM     30  O   UNL     1       9.327  10.876  21.562  0.00  0.00    +0.000 OA
ATOM     31  H   UNL     1       8.925  11.354  22.310  0.00  0.00    +0.000 HD
ENDBRANCH  28  30
ENDBRANCH  27  28
ENDBRANCH  26  27
ENDBRANCH  25  26
ENDBRANCH  24  25
ENDBRANCH  23  24
ENDBRANCH   1  23
TORSDOF 12
ENDMDL
MODEL 2
REMARK VINA RESULT:      -7.8      0.753      1.323
REMARK  Name = 
REMARK  15 active torsions:
REMARK  status: ('A' for Active; 'I' for Inactive)
REMARK    1  A    between atoms: C_1  and  C_2
REMARK    2  A    between atoms: C_3  and  C_4
REMARK    3  A    between atoms: C_5  and  C_6
REMARK    4  A    between atoms: C_6  and  C_7
REMARK    5  A    between atoms: C_6  and  C_15
REMARK    6  A    between atoms: C_7  and  C_8
REMARK    7  A    between atoms: C_8  and  C_9
REMARK    8  A    between atoms: C_9  and  C_10
REMARK    9  A    between atoms: C_10  and  C_11
REMARK   10  A    between atoms: C_11  and  C_12
REMARK   11  A    between atoms: C_12  and  O_14
REMARK   12  A    between atoms: C_22  and  O_23
REMARK   13  A    between atoms: C_24  and  C_25
REMARK   14  A    between atoms: C_26  and  C_27
REMARK   15  A    between atoms: C_27  and  O_28
REMARK                            x       y       z     vdW  Elec       q    Type
REMARK                         _______ _______ _______ _____ _____    ______ ____
ROOT
ATOM      1  C   UNL     1       5.863   6.305  17.218  0.00  0.00    +0.000 C 
ENDROOT
BRANCH   1   6
ATOM      2  C   UNL     1       1.688   6.845  20.161  0.00  0.00    +0.000 C 
ATOM      3  C   UNL     1       2.781   5.952  19.605  0.00  0.00    +0.000 A 
ATOM      4  C   UNL     1       3.655   6.435  18.576  0.00  0.00    +0.000 A 
ATOM      5  C   UNL     1       3.275   7.720  17.864  0.00  0.00    +0.000 C 
ATOM      6  C   UNL     1       4.839   5.720  18.232  0.00  0.00    +0.000 A 
ATOM      7  C   UNL     1       5.005   4.446  18.827  0.00  0.00    +0.000 A 
ATOM      8  C   UNL     1       4.015   3.857  19.645  0.00  0.00    +0.000 A 
ATOM      9  C   UNL     1       4.118   2.386  19.988  0.00  0.00    +0.000 C 
ATOM     10  C   UNL     1       2.928   4.632  20.108  0.00  0.00    +0.000 A 
BRANCH   7  11
ATOM     11  O   UNL     1       6.103   3.649  18.621  0.00  0.00    +0.000 OA
ATOM     12  H   UNL     1       5.905   2.914  18.027  0.00  0.00    +0.000 HD
ENDBRANCH   7  11
BRANCH  10  13
ATOM     13  C   UNL     1       1.890   3.968  21.010  0.00  0.00    +0.000 C 
BRANCH  13  14
ATOM     14  O   UNL     1       0.714   3.521  20.352  0.00  0.00    +0.000 OA
ATOM     15  H   UNL     1       0.162   4.308  20.213  0.00  0.00    +0.000 HD
ENDBRANCH  13  14
ENDBRANCH  10  13
ENDBRANCH   1   6
BRANCH   1  16
ATOM     16  C   UNL     1       6.026   5.488  15.917  0.00  0.00    +0.000 A 
ATOM     17  C   UNL     1       4.889   4.867  15.354  0.00  0.00    +0.000 A 
ATOM     18  C   UNL     1       4.977   4.091  14.192  0.00  0.00    +0.000 A 
ATOM     19  C   UNL     1       6.209   3.906  13.584  0.00  0.00    +0.000 A 
ATOM     20  F   UNL     1       6.304   3.137  12.492  0.00  0.00    +0.000 F 
ATOM     21  C   UNL     1       7.346   4.498  14.107  0.00  0.00    +0.000 A 
ATOM     22  C   UNL     1       7.254   5.281  15.263  0.00  0.00    +0.000 A 
ENDBRANCH   1  16
BRANCH   1  23
ATOM     23  C   UNL     1       7.184   6.758  17.912  0.00  0.00    +0.000 C 
BRANCH  23  24
ATOM     24  C   UNL     1       7.730   8.135  17.497  0.00  0.00    +0.000 C 
BRANCH  24  25
ATOM     25  C   UNL     1       8.643   8.780  18.552  0.00  0.00    +0.000 C 
BRANCH  25  26
ATOM     26  C   UNL     1       8.889  10.264  18.278  0.00  0.00    +0.000 C 
BRANCH  26  27
ATOM     27  C   UNL     1       9.707  10.946  19.371  0.00  0.00    +0.000 C 
BRANCH  27  28
ATOM     28  C   UNL     1      10.208  12.300  18.903  0.00  0.00    +0.000 C 
ATOM     29  O   UNL     1      10.369  13.277  19.624  0.00  0.00    +0.000 OA
BRANCH  28  30
ATOM     30  O   UNL     1      10.475  12.321  17.580  0.00  0.00    +0.000 OA
ATOM     31  H   UNL     1      10.719  11.452  17.214  0.00  0.00    +0.000 HD
ENDBRANCH  28  30
ENDBRANCH  27  28
ENDBRANCH  26  27
ENDBRANCH  25  26
ENDBRANCH  24  25
ENDBRANCH  23  24
ENDBRANCH   1  23
TORSDOF 12
ENDMDL
MODEL 3
REMARK VINA RESULT:      -7.8      1.228      1.299
REMARK  Name = 
REMARK  15 active torsions:
REMARK  status: ('A' for Active; 'I' for Inactive)
REMARK    1  A    between atoms: C_1  and  C_2
REMARK    2  A    between atoms: C_3  and  C_4
REMARK    3  A    between atoms: C_5  and  C_6
REMARK    4  A    between atoms: C_6  and  C_7
REMARK    5  A    between atoms: C_6  and  C_15
REMARK    6  A    between atoms: C_7  and  C_8
REMARK    7  A    between atoms: C_8  and  C_9
REMARK    8  A    between atoms: C_9  and  C_10
REMARK    9  A    between atoms: C_10  and  C_11
REMARK   10  A    between atoms: C_11  and  C_12
REMARK   11  A    between atoms: C_12  and  O_14
REMARK   12  A    between atoms: C_22  and  O_23
REMARK   13  A    between atoms: C_24  and  C_25
REMARK   14  A    between atoms: C_26  and  C_27
REMARK   15  A    between atoms: C_27  and  O_28
REMARK                            x       y       z     vdW  Elec       q    Type
REMARK                         _______ _______ _______ _____ _____    ______ ____
ROOT
ATOM      1  C   UNL     1       5.750   6.224  17.307  0.00  0.00    +0.000 C 
ENDROOT
BRANCH   1   6
ATOM      2  C   UNL     1       1.578   6.604  20.278  0.00  0.00    +0.000 C 
ATOM      3  C   UNL     1       2.692   5.750  19.704  0.00  0.00    +0.000 A 
ATOM      4  C   UNL     1       3.547   6.273  18.678  0.00  0.00    +0.000 A 
ATOM      5  C   UNL     1       3.127   7.556  17.986  0.00  0.00    +0.000 C 
ATOM      6  C   UNL     1       4.749   5.596  18.318  0.00  0.00    +0.000 A 
ATOM      7  C   UNL     1       4.954   4.319  18.893  0.00  0.00    +0.000 A 
ATOM      8  C   UNL     1       3.986   3.690  19.708  0.00  0.00    +0.000 A 
ATOM      9  C   UNL     1       4.132   2.218  20.028  0.00  0.00    +0.000 C 
ATOM     10  C   UNL     1       2.879   4.428  20.187  0.00  0.00    +0.000 A 
BRANCH   7  11
ATOM     11  O   UNL     1       6.073   3.557  18.670  0.00  0.00    +0.000 OA
ATOM     12  H   UNL     1       6.170   3.328  17.737  0.00  0.00    +0.000 HD
ENDBRANCH   7  11
BRANCH  10  13
ATOM     13  C   UNL     1       1.866   3.721  21.084  0.00  0.00    +0.000 C 
BRANCH  13  14
ATOM     14  O   UNL     1       2.345   3.356  22.369  0.00  0.00    +0.000 OA
ATOM     15  H   UNL     1       1.567   3.316  22.950  0.00  0.00    +0.000 HD
ENDBRANCH  13  14
ENDBRANCH  10  13
ENDBRANCH   1   6
BRANCH   1  16
ATOM     16  C   UNL     1       5.938   5.426  15.998  0.00  0.00    +0.000 A 
ATOM     17  C   UNL     1       7.210   5.410  15.384  0.00  0.00    +0.000 A 
ATOM     18  C   UNL     1       7.437   4.729  14.184  0.00  0.00    +0.000 A 
ATOM     19  C   UNL     1       6.389   4.067  13.564  0.00  0.00    +0.000 A 
ATOM     20  F   UNL     1       6.593   3.442  12.397  0.00  0.00    +0.000 F 
ATOM     21  C   UNL     1       5.128   4.060  14.134  0.00  0.00    +0.000 A 
ATOM     22  C   UNL     1       4.905   4.735  15.340  0.00  0.00    +0.000 A 
ENDBRANCH   1  16
BRANCH   1  23
ATOM     23  C   UNL     1       7.057   6.715  18.003  0.00  0.00    +0.000 C 
BRANCH  23  24
ATOM     24  C   UNL     1       7.614   8.067  17.523  0.00  0.00    +0.000 C 
BRANCH  24  25
ATOM     25  C   UNL     1       8.554   8.741  18.535  0.00  0.00    +0.000 C 
BRANCH  25  26
ATOM     26  C   UNL     1       8.708  10.240  18.277  0.00  0.00    +0.000 C 
BRANCH  26  27
ATOM     27  C   UNL     1      10.089  10.772  18.647  0.00  0.00    +0.000 C 
BRANCH  27  28
ATOM     28  C   UNL     1      10.424  12.010  17.836  0.00  0.00    +0.000 C 
ATOM     29  O   UNL     1       9.601  12.789  17.372  0.00  0.00    +0.000 OA
BRANCH  28  30
ATOM     30  O   UNL     1      11.754  12.179  17.680  0.00  0.00    +0.000 OA
ATOM     31  H   UNL     1      11.989  12.828  16.992  0.00  0.00    +0.000 HD
ENDBRANCH  28  30
ENDBRANCH  27  28
ENDBRANCH  26  27
ENDBRANCH  25  26
ENDBRANCH  24  25
ENDBRANCH  23  24
ENDBRANCH   1  23
TORSDOF 12
ENDMDL
MODEL 4
REMARK VINA RESULT:      -7.7      0.744      1.174
REMARK  Name = 
REMARK  15 active torsions:
REMARK  status: ('A' for Active; 'I' for Inactive)
REMARK    1  A    between atoms: C_1  and  C_2
REMARK    2  A    between atoms: C_3  and  C_4
REMARK    3  A    between atoms: C_5  and  C_6
REMARK    4  A    between atoms: C_6  and  C_7
REMARK    5  A    between atoms: C_6  and  C_15
REMARK    6  A    between atoms: C_7  and  C_8
REMARK    7  A    between atoms: C_8  and  C_9
REMARK    8  A    between atoms: C_9  and  C_10
REMARK    9  A    between atoms: C_10  and  C_11
REMARK   10  A    between atoms: C_11  and  C_12
REMARK   11  A    between atoms: C_12  and  O_14
REMARK   12  A    between atoms: C_22  and  O_23
REMARK   13  A    between atoms: C_24  and  C_25
REMARK   14  A    between atoms: C_26  and  C_27
REMARK   15  A    between atoms: C_27  and  O_28
REMARK                            x       y       z     vdW  Elec       q    Type
REMARK                         _______ _______ _______ _____ _____    ______ ____
ROOT
ATOM      1  C   UNL     1       5.847   6.301  17.320  0.00  0.00    +0.000 C 
ENDROOT
BRANCH   1   6
ATOM      2  C   UNL     1       1.632   6.566  20.243  0.00  0.00    +0.000 C 
ATOM      3  C   UNL     1       2.770   5.741  19.673  0.00  0.00    +0.000 A 
ATOM      4  C   UNL     1       3.626   6.291  18.664  0.00  0.00    +0.000 A 
ATOM      5  C   UNL     1       3.190   7.574  17.981  0.00  0.00    +0.000 C 
ATOM      6  C   UNL     1       4.845   5.642  18.311  0.00  0.00    +0.000 A 
ATOM      7  C   UNL     1       5.068   4.363  18.875  0.00  0.00    +0.000 A 
ATOM      8  C   UNL     1       4.103   3.706  19.670  0.00  0.00    +0.000 A 
ATOM      9  C   UNL     1       4.273   2.233  19.976  0.00  0.00    +0.000 C 
ATOM     10  C   UNL     1       2.976   4.417  20.143  0.00  0.00    +0.000 A 
BRANCH   7  11
ATOM     11  O   UNL     1       6.204   3.625  18.657  0.00  0.00    +0.000 OA
ATOM     12  H   UNL     1       6.992   4.078  18.982  0.00  0.00    +0.000 HD
ENDBRANCH   7  11
BRANCH  10  13
ATOM     13  C   UNL     1       1.965   3.681  21.020  0.00  0.00    +0.000 C 
BRANCH  13  14
ATOM     14  O   UNL     1       2.390   3.425  22.350  0.00  0.00    +0.000 OA
ATOM     15  H   UNL     1       1.655   2.962  22.787  0.00  0.00    +0.000 HD
ENDBRANCH  13  14
ENDBRANCH  10  13
ENDBRANCH   1   6
BRANCH   1  16
ATOM     16  C   UNL     1       6.050   5.532  15.996  0.00  0.00    +0.000 A 
ATOM     17  C   UNL     1       4.937   4.907  15.391  0.00  0.00    +0.000 A 
ATOM     18  C   UNL     1       5.062   4.173  14.206  0.00  0.00    +0.000 A 
ATOM     19  C   UNL     1       6.309   4.032  13.617  0.00  0.00    +0.000 A 
ATOM     20  F   UNL     1       6.439   3.302  12.501  0.00  0.00    +0.000 F 
ATOM     21  C   UNL     1       7.424   4.628  14.181  0.00  0.00    +0.000 A 
ATOM     22  C   UNL     1       7.294   5.370  15.360  0.00  0.00    +0.000 A 
ENDBRANCH   1  16
BRANCH   1  23
ATOM     23  C   UNL     1       7.145   6.790  18.034  0.00  0.00    +0.000 C 
BRANCH  23  24
ATOM     24  C   UNL     1       7.961   7.865  17.296  0.00  0.00    +0.000 C 
BRANCH  24  25
ATOM     25  C   UNL     1       7.869   9.258  17.939  0.00  0.00    +0.000 C 
BRANCH  25  26
ATOM     26  C   UNL     1       8.972   9.493  18.973  0.00  0.00    +0.000 C 
BRANCH  26  27
ATOM     27  C   UNL     1       9.572  10.894  18.898  0.00  0.00    +0.000 C 
BRANCH  27  28
ATOM     28  C   UNL     1      10.096  11.328  20.254  0.00  0.00    +0.000 C 
ATOM     29  O   UNL     1      11.070  12.050  20.433  0.00  0.00    +0.000 OA
BRANCH  28  30
ATOM     30  O   UNL     1       9.360  10.836  21.273  0.00  0.00    +0.000 OA
ATOM     31  H   UNL     1       8.409  10.766  21.073  0.00  0.00    +0.000 HD
ENDBRANCH  28  30
ENDBRANCH  27  28
ENDBRANCH  26  27
ENDBRANCH  25  26
ENDBRANCH  24  25
ENDBRANCH  23  24
ENDBRANCH   1  23
TORSDOF 12
ENDMDL
MODEL 5
REMARK VINA RESULT:      -7.3      3.872      6.469
REMARK  Name = 
REMARK  15 active torsions:
REMARK  status: ('A' for Active; 'I' for Inactive)
REMARK    1  A    between atoms: C_1  and  C_2
REMARK    2  A    between atoms: C_3  and  C_4
REMARK    3  A    between atoms: C_5  and  C_6
REMARK    4  A    between atoms: C_6  and  C_7
REMARK    5  A    between atoms: C_6  and  C_15
REMARK    6  A    between atoms: C_7  and  C_8
REMARK    7  A    between atoms: C_8  and  C_9
REMARK    8  A    between atoms: C_9  and  C_10
REMARK    9  A    between atoms: C_10  and  C_11
REMARK   10  A    between atoms: C_11  and  C_12
REMARK   11  A    between atoms: C_12  and  O_14
REMARK   12  A    between atoms: C_22  and  O_23
REMARK   13  A    between atoms: C_24  and  C_25
REMARK   14  A    between atoms: C_26  and  C_27
REMARK   15  A    between atoms: C_27  and  O_28
REMARK                            x       y       z     vdW  Elec       q    Type
REMARK                         _______ _______ _______ _____ _____    ______ ____
ROOT
ATOM      1  C   UNL     1       5.380   4.763  16.829  0.00  0.00    +0.000 C 
ENDROOT
BRANCH   1   6
ATOM      2  C   UNL     1       1.786   6.376  20.124  0.00  0.00    +0.000 C 
ATOM      3  C   UNL     1       2.389   5.250  19.306  0.00  0.00    +0.000 A 
ATOM      4  C   UNL     1       3.416   5.527  18.345  0.00  0.00    +0.000 A 
ATOM      5  C   UNL     1       3.663   6.973  17.962  0.00  0.00    +0.000 C 
ATOM      6  C   UNL     1       4.173   4.467  17.764  0.00  0.00    +0.000 A 
ATOM      7  C   UNL     1       3.743   3.149  18.052  0.00  0.00    +0.000 A 
ATOM      8  C   UNL     1       2.571   2.880  18.793  0.00  0.00    +0.000 A 
ATOM      9  C   UNL     1       2.004   1.476  18.797  0.00  0.00    +0.000 C 
ATOM     10  C   UNL     1       1.923   3.922  19.495  0.00  0.00    +0.000 A 
BRANCH   7  11
ATOM     11  O   UNL     1       4.382   2.025  17.595  0.00  0.00    +0.000 OA
ATOM     12  H   UNL     1       4.445   2.016  16.631  0.00  0.00    +0.000 HD
ENDBRANCH   7  11
BRANCH  10  13
ATOM     13  C   UNL     1       0.673   3.589  20.304  0.00  0.00    +0.000 C 
BRANCH  13  14
ATOM     14  O   UNL     1       0.907   2.918  21.533  0.00  0.00    +0.000 OA
ATOM     15  H   UNL     1       1.855   3.018  21.722  0.00  0.00    +0.000 HD
ENDBRANCH  13  14
ENDBRANCH  10  13
ENDBRANCH   1   6
BRANCH   1  16
ATOM     16  C   UNL     1       6.409   5.765  17.395  0.00  0.00    +0.000 A 
ATOM     17  C   UNL     1       7.128   5.420  18.562  0.00  0.00    +0.000 A 
ATOM     18  C   UNL     1       8.054   6.296  19.139  0.00  0.00    +0.000 A 
ATOM     19  C   UNL     1       8.263   7.543  18.571  0.00  0.00    +0.000 A 
ATOM     20  F   UNL     1       9.123   8.398  19.140  0.00  0.00    +0.000 F 
ATOM     21  C   UNL     1       7.577   7.918  17.428  0.00  0.00    +0.000 A 
ATOM     22  C   UNL     1       6.659   7.036  16.847  0.00  0.00    +0.000 A 
ENDBRANCH   1  16
BRANCH   1  23
ATOM     23  C   UNL     1       4.934   5.000  15.353  0.00  0.00    +0.000 C 
BRANCH  23  24
ATOM     24  C   UNL     1       6.064   5.111  14.314  0.00  0.00    +0.000 C 
BRANCH  24  25
ATOM     25  C   UNL     1       6.432   3.770  13.658  0.00  0.00    +0.000 C 
BRANCH  25  26
ATOM     26  C   UNL     1       6.812   3.929  12.186  0.00  0.00    +0.000 C 
BRANCH  26  27
ATOM     27  C   UNL     1       7.084   2.597  11.492  0.00  0.00    +0.000 C 
BRANCH  27  28
ATOM     28  C   UNL     1       5.805   1.793  11.349  0.00  0.00    +0.000 C 
ATOM     29  O   UNL     1       4.690   2.271  11.184  0.00  0.00    +0.000 OA
BRANCH  28  30
ATOM     30  O   UNL     1       6.023   0.463  11.415  0.00  0.00    +0.000 OA
ATOM     31  H   UNL     1       6.761   0.213  12.000  0.00  0.00    +0.000 HD
ENDBRANCH  28  30
ENDBRANCH  27  28
ENDBRANCH  26  27
ENDBRANCH  25  26
ENDBRANCH  24  25
ENDBRANCH  23  24
ENDBRANCH   1  23
TORSDOF 12
ENDMDL
MODEL 6
REMARK VINA RESULT:      -7.1      3.743      6.649
REMARK  Name = 
REMARK  15 active torsions:
REMARK  status: ('A' for Active; 'I' for Inactive)
REMARK    1  A    between atoms: C_1  and  C_2
REMARK    2  A    between atoms: C_3  and  C_4
REMARK    3  A    between atoms: C_5  and  C_6
REMARK    4  A    between atoms: C_6  and  C_7
REMARK    5  A    between atoms: C_6  and  C_15
REMARK    6  A    between atoms: C_7  and  C_8
REMARK    7  A    between atoms: C_8  and  C_9
REMARK    8  A    between atoms: C_9  and  C_10
REMARK    9  A    between atoms: C_10  and  C_11
REMARK   10  A    between atoms: C_11  and  C_12
REMARK   11  A    between atoms: C_12  and  O_14
REMARK   12  A    between atoms: C_22  and  O_23
REMARK   13  A    between atoms: C_24  and  C_25
REMARK   14  A    between atoms: C_26  and  C_27
REMARK   15  A    between atoms: C_27  and  O_28
REMARK                            x       y       z     vdW  Elec       q    Type
REMARK                         _______ _______ _______ _____ _____    ______ ____
ROOT
ATOM      1  C   UNL     1       5.431   5.333  16.809  0.00  0.00    +0.000 C 
ENDROOT
BRANCH   1   6
ATOM      2  C   UNL     1       1.715   6.540  20.143  0.00  0.00    +0.000 C 
ATOM      3  C   UNL     1       2.394   5.500  19.273  0.00  0.00    +0.000 A 
ATOM      4  C   UNL     1       3.410   5.890  18.340  0.00  0.00    +0.000 A 
ATOM      5  C   UNL     1       3.568   7.368  18.036  0.00  0.00    +0.000 C 
ATOM      6  C   UNL     1       4.238   4.912  17.714  0.00  0.00    +0.000 A 
ATOM      7  C   UNL     1       3.889   3.557  17.927  0.00  0.00    +0.000 A 
ATOM      8  C   UNL     1       2.730   3.175  18.640  0.00  0.00    +0.000 A 
ATOM      9  C   UNL     1       2.253   1.741  18.563  0.00  0.00    +0.000 C 
ATOM     10  C   UNL     1       2.012   4.137  19.387  0.00  0.00    +0.000 A 
BRANCH   7  11
ATOM     11  O   UNL     1       4.602   2.501  17.419  0.00  0.00    +0.000 OA
ATOM     12  H   UNL     1       4.327   2.284  16.519  0.00  0.00    +0.000 HD
ENDBRANCH   7  11
BRANCH  10  13
ATOM     13  C   UNL     1       0.779   3.684  20.164  0.00  0.00    +0.000 C 
BRANCH  13  14
ATOM     14  O   UNL     1       1.040   3.118  21.439  0.00  0.00    +0.000 OA
ATOM     15  H   UNL     1       1.588   2.331  21.282  0.00  0.00    +0.000 HD
ENDBRANCH  13  14
ENDBRANCH  10  13
ENDBRANCH   1   6
BRANCH   1  16
ATOM     16  C   UNL     1       6.465   6.258  17.487  0.00  0.00    +0.000 A 
ATOM     17  C   UNL     1       6.606   7.584  17.018  0.00  0.00    +0.000 A 
ATOM     18  C   UNL     1       7.544   8.462  17.572  0.00  0.00    +0.000 A 
ATOM     19  C   UNL     1       8.373   8.023  18.593  0.00  0.00    +0.000 A 
ATOM     20  F   UNL     1       9.295   8.850  19.103  0.00  0.00    +0.000 F 
ATOM     21  C   UNL     1       8.265   6.732  19.079  0.00  0.00    +0.000 A 
ATOM     22  C   UNL     1       7.320   5.858  18.530  0.00  0.00    +0.000 A 
ENDBRANCH   1  16
BRANCH   1  23
ATOM     23  C   UNL     1       4.965   5.756  15.382  0.00  0.00    +0.000 C 
BRANCH  23  24
ATOM     24  C   UNL     1       5.808   5.225  14.209  0.00  0.00    +0.000 C 
BRANCH  24  25
ATOM     25  C   UNL     1       5.288   3.902  13.625  0.00  0.00    +0.000 C 
BRANCH  25  26
ATOM     26  C   UNL     1       6.246   3.306  12.594  0.00  0.00    +0.000 C 
BRANCH  26  27
ATOM     27  C   UNL     1       5.579   2.285  11.677  0.00  0.00    +0.000 C 
BRANCH  27  28
ATOM     28  C   UNL     1       6.605   1.326  11.102  0.00  0.00    +0.000 C 
ATOM     29  O   UNL     1       7.703   1.651  10.668  0.00  0.00    +0.000 OA
BRANCH  28  30
ATOM     30  O   UNL     1       6.182   0.045  11.123  0.00  0.00    +0.000 OA
ATOM     31  H   UNL     1       5.866  -0.251  11.996  0.00  0.00    +0.000 HD
ENDBRANCH  28  30
ENDBRANCH  27  28
ENDBRANCH  26  27
ENDBRANCH  25  26
ENDBRANCH  24  25
ENDBRANCH  23  24
ENDBRANCH   1  23
TORSDOF 12
ENDMDL
MODEL 7
REMARK VINA RESULT:      -7.1      1.373      1.498
REMARK  Name = 
REMARK  15 active torsions:
REMARK  status: ('A' for Active; 'I' for Inactive)
REMARK    1  A    between atoms: C_1  and  C_2
REMARK    2  A    between atoms: C_3  and  C_4
REMARK    3  A    between atoms: C_5  and  C_6
REMARK    4  A    between atoms: C_6  and  C_7
REMARK    5  A    between atoms: C_6  and  C_15
REMARK    6  A    between atoms: C_7  and  C_8
REMARK    7  A    between atoms: C_8  and  C_9
REMARK    8  A    between atoms: C_9  and  C_10
REMARK    9  A    between atoms: C_10  and  C_11
REMARK   10  A    between atoms: C_11  and  C_12
REMARK   11  A    between atoms: C_12  and  O_14
REMARK   12  A    between atoms: C_22  and  O_23
REMARK   13  A    between atoms: C_24  and  C_25
REMARK   14  A    between atoms: C_26  and  C_27
REMARK   15  A    between atoms: C_27  and  O_28
REMARK                            x       y       z     vdW  Elec       q    Type
REMARK                         _______ _______ _______ _____ _____    ______ ____
ROOT
ATOM      1  C   UNL     1       5.044   6.141  16.469  0.00  0.00    +0.000 C 
ENDROOT
BRANCH   1   6
ATOM      2  C   UNL     1       1.776   6.004  20.429  0.00  0.00    +0.000 C 
ATOM      3  C   UNL     1       2.628   5.259  19.420  0.00  0.00    +0.000 A 
ATOM      4  C   UNL     1       3.254   5.966  18.342  0.00  0.00    +0.000 A 
ATOM      5  C   UNL     1       2.807   7.390  18.068  0.00  0.00    +0.000 C 
ATOM      6  C   UNL     1       4.261   5.341  17.549  0.00  0.00    +0.000 A 
ATOM      7  C   UNL     1       4.473   3.959  17.769  0.00  0.00    +0.000 A 
ATOM      8  C   UNL     1       3.675   3.201  18.655  0.00  0.00    +0.000 A 
ATOM      9  C   UNL     1       3.749   1.689  18.610  0.00  0.00    +0.000 C 
ATOM     10  C   UNL     1       2.796   3.855  19.548  0.00  0.00    +0.000 A 
BRANCH   7  11
ATOM     11  O   UNL     1       5.424   3.222  17.110  0.00  0.00    +0.000 OA
ATOM     12  H   UNL     1       5.083   2.855  16.285  0.00  0.00    +0.000 HD
ENDBRANCH   7  11
BRANCH  10  13
ATOM     13  C   UNL     1       1.966   3.005  20.508  0.00  0.00    +0.000 C 
BRANCH  13  14
ATOM     14  O   UNL     1       2.503   2.867  21.815  0.00  0.00    +0.000 OA
ATOM     15  H   UNL     1       1.745   2.871  22.423  0.00  0.00    +0.000 HD
ENDBRANCH  13  14
ENDBRANCH  10  13
ENDBRANCH   1   6
BRANCH   1  16
ATOM     16  C   UNL     1       5.543   5.301  15.273  0.00  0.00    +0.000 A 
ATOM     17  C   UNL     1       6.910   5.359  14.921  0.00  0.00    +0.000 A 
ATOM     18  C   UNL     1       7.418   4.643  13.831  0.00  0.00    +0.000 A 
ATOM     19  C   UNL     1       6.562   3.871  13.061  0.00  0.00    +0.000 A 
ATOM     20  F   UNL     1       7.037   3.211  11.996  0.00  0.00    +0.000 F 
ATOM     21  C   UNL     1       5.216   3.790  13.374  0.00  0.00    +0.000 A 
ATOM     22  C   UNL     1       4.712   4.499  14.470  0.00  0.00    +0.000 A 
ENDBRANCH   1  16
BRANCH   1  23
ATOM     23  C   UNL     1       6.083   7.118  17.101  0.00  0.00    +0.000 C 
BRANCH  23  24
ATOM     24  C   UNL     1       6.969   6.536  18.216  0.00  0.00    +0.000 C 
BRANCH  24  25
ATOM     25  C   UNL     1       8.277   7.314  18.434  0.00  0.00    +0.000 C 
BRANCH  25  26
ATOM     26  C   UNL     1       8.144   8.790  18.054  0.00  0.00    +0.000 C 
BRANCH  26  27
ATOM     27  C   UNL     1       9.033   9.704  18.891  0.00  0.00    +0.000 C 
BRANCH  27  28
ATOM     28  C   UNL     1       9.229  11.042  18.202  0.00  0.00    +0.000 C 
ATOM     29  O   UNL     1       8.355  11.661  17.608  0.00  0.00    +0.000 OA
BRANCH  28  30
ATOM     30  O   UNL     1      10.494  11.500  18.317  0.00  0.00    +0.000 OA
ATOM     31  H   UNL     1      10.650  12.343  17.854  0.00  0.00    +0.000 HD
ENDBRANCH  28  30
ENDBRANCH  27  28
ENDBRANCH  26  27
ENDBRANCH  25  26
ENDBRANCH  24  25
ENDBRANCH  23  24
ENDBRANCH   1  23
TORSDOF 12
ENDMDL
MODEL 8
REMARK VINA RESULT:      -7.1      3.700      6.898
REMARK  Name = 
REMARK  15 active torsions:
REMARK  status: ('A' for Active; 'I' for Inactive)
REMARK    1  A    between atoms: C_1  and  C_2
REMARK    2  A    between atoms: C_3  and  C_4
REMARK    3  A    between atoms: C_5  and  C_6
REMARK    4  A    between atoms: C_6  and  C_7
REMARK    5  A    between atoms: C_6  and  C_15
REMARK    6  A    between atoms: C_7  and  C_8
REMARK    7  A    between atoms: C_8  and  C_9
REMARK    8  A    between atoms: C_9  and  C_10
REMARK    9  A    between atoms: C_10  and  C_11
REMARK   10  A    between atoms: C_11  and  C_12
REMARK   11  A    between atoms: C_12  and  O_14
REMARK   12  A    between atoms: C_22  and  O_23
REMARK   13  A    between atoms: C_24  and  C_25
REMARK   14  A    between atoms: C_26  and  C_27
REMARK   15  A    between atoms: C_27  and  O_28
REMARK                            x       y       z     vdW  Elec       q    Type
REMARK                         _______ _______ _______ _____ _____    ______ ____
ROOT
ATOM      1  C   UNL     1       2.665   6.002  18.659  0.00  0.00    +0.000 C 
ENDROOT
BRANCH   1   6
ATOM      2  C   UNL     1      -0.068   8.810  21.980  0.00  0.00    +0.000 C 
ATOM      3  C   UNL     1       0.800   8.744  20.737  0.00  0.00    +0.000 A 
ATOM      4  C   UNL     1       1.467   7.525  20.386  0.00  0.00    +0.000 A 
ATOM      5  C   UNL     1       1.527   6.421  21.424  0.00  0.00    +0.000 C 
ATOM      6  C   UNL     1       2.062   7.366  19.100  0.00  0.00    +0.000 A 
ATOM      7  C   UNL     1       2.109   8.516  18.276  0.00  0.00    +0.000 A 
ATOM      8  C   UNL     1       1.681   9.786  18.723  0.00  0.00    +0.000 A 
ATOM      9  C   UNL     1       2.043  11.016  17.918  0.00  0.00    +0.000 C 
ATOM     10  C   UNL     1       0.950   9.902  19.928  0.00  0.00    +0.000 A 
BRANCH   7  11
ATOM     11  O   UNL     1       2.620   8.519  17.004  0.00  0.00    +0.000 OA
ATOM     12  H   UNL     1       2.695   9.414  16.650  0.00  0.00    +0.000 HD
ENDBRANCH   7  11
BRANCH  10  13
ATOM     13  C   UNL     1       0.484  11.287  20.368  0.00  0.00    +0.000 C 
BRANCH  13  14
ATOM     14  O   UNL     1       1.348  11.959  21.272  0.00  0.00    +0.000 OA
ATOM     15  H   UNL     1       2.236  11.926  20.877  0.00  0.00    +0.000 HD
ENDBRANCH  13  14
ENDBRANCH  10  13
ENDBRANCH   1   6
BRANCH   1  16
ATOM     16  C   UNL     1       4.189   6.017  18.410  0.00  0.00    +0.000 A 
ATOM     17  C   UNL     1       5.049   5.487  19.398  0.00  0.00    +0.000 A 
ATOM     18  C   UNL     1       6.439   5.497  19.243  0.00  0.00    +0.000 A 
ATOM     19  C   UNL     1       6.997   6.056  18.104  0.00  0.00    +0.000 A 
ATOM     20  F   UNL     1       8.329   6.098  17.967  0.00  0.00    +0.000 F 
ATOM     21  C   UNL     1       6.188   6.586  17.114  0.00  0.00    +0.000 A 
ATOM     22  C   UNL     1       4.797   6.566  17.266  0.00  0.00    +0.000 A 
ENDBRANCH   1  16
BRANCH   1  23
ATOM     23  C   UNL     1       1.799   5.302  17.566  0.00  0.00    +0.000 C 
BRANCH  23  24
ATOM     24  C   UNL     1       1.491   3.812  17.797  0.00  0.00    +0.000 C 
BRANCH  24  25
ATOM     25  C   UNL     1       1.063   3.487  19.237  0.00  0.00    +0.000 C 
BRANCH  25  26
ATOM     26  C   UNL     1       1.855   2.321  19.829  0.00  0.00    +0.000 C 
BRANCH  26  27
ATOM     27  C   UNL     1       3.000   2.772  20.730  0.00  0.00    +0.000 C 
BRANCH  27  28
ATOM     28  C   UNL     1       4.305   2.123  20.308  0.00  0.00    +0.000 C 
ATOM     29  O   UNL     1       5.161   1.702  21.077  0.00  0.00    +0.000 OA
BRANCH  28  30
ATOM     30  O   UNL     1       4.431   2.043  18.967  0.00  0.00    +0.000 OA
ATOM     31  H   UNL     1       4.640   2.894  18.540  0.00  0.00    +0.000 HD
ENDBRANCH  28  30
ENDBRANCH  27  28
ENDBRANCH  26  27
ENDBRANCH  25  26
ENDBRANCH  24  25
ENDBRANCH  23  24
ENDBRANCH   1  23
TORSDOF 12
ENDMDL
MODEL 9
REMARK VINA RESULT:      -6.9      3.827      6.310
REMARK  Name = 
REMARK  15 active torsions:
REMARK  status: ('A' for Active; 'I' for Inactive)
REMARK    1  A    between atoms: C_1  and  C_2
REMARK    2  A    between atoms: C_3  and  C_4
REMARK    3  A    between atoms: C_5  and  C_6
REMARK    4  A    between atoms: C_6  and  C_7
REMARK    5  A    between atoms: C_6  and  C_15
REMARK    6  A    between atoms: C_7  and  C_8
REMARK    7  A    between atoms: C_8  and  C_9
REMARK    8  A    between atoms: C_9  and  C_10
REMARK    9  A    between atoms: C_10  and  C_11
REMARK   10  A    between atoms: C_11  and  C_12
REMARK   11  A    between atoms: C_12  and  O_14
REMARK   12  A    between atoms: C_22  and  O_23
REMARK   13  A    between atoms: C_24  and  C_25
REMARK   14  A    between atoms: C_26  and  C_27
REMARK   15  A    between atoms: C_27  and  O_28
REMARK                            x       y       z     vdW  Elec       q    Type
REMARK                         _______ _______ _______ _____ _____    ______ ____
ROOT
ATOM      1  C   UNL     1       5.405   4.877  16.969  0.00  0.00    +0.000 C 
ENDROOT
BRANCH   1   6
ATOM      2  C   UNL     1       1.766   6.323  20.293  0.00  0.00    +0.000 C 
ATOM      3  C   UNL     1       2.384   5.239  19.431  0.00  0.00    +0.000 A 
ATOM      4  C   UNL     1       3.421   5.563  18.496  0.00  0.00    +0.000 A 
ATOM      5  C   UNL     1       3.665   7.026  18.181  0.00  0.00    +0.000 C 
ATOM      6  C   UNL     1       4.190   4.534  17.877  0.00  0.00    +0.000 A 
ATOM      7  C   UNL     1       3.763   3.202  18.099  0.00  0.00    +0.000 A 
ATOM      8  C   UNL     1       2.584   2.894  18.814  0.00  0.00    +0.000 A 
ATOM      9  C   UNL     1       2.024   1.489  18.748  0.00  0.00    +0.000 C 
ATOM     10  C   UNL     1       1.923   3.901  19.554  0.00  0.00    +0.000 A 
BRANCH   7  11
ATOM     11  O   UNL     1       4.413   2.103  17.599  0.00  0.00    +0.000 OA
ATOM     12  H   UNL     1       5.139   2.353  17.014  0.00  0.00    +0.000 HD
ENDBRANCH   7  11
BRANCH  10  13
ATOM     13  C   UNL     1       0.665   3.526  20.334  0.00  0.00    +0.000 C 
BRANCH  13  14
ATOM     14  O   UNL     1       0.891   2.826  21.548  0.00  0.00    +0.000 OA
ATOM     15  H   UNL     1       0.105   2.976  22.100  0.00  0.00    +0.000 HD
ENDBRANCH  13  14
ENDBRANCH  10  13
ENDBRANCH   1   6
BRANCH   1  16
ATOM     16  C   UNL     1       6.422   5.859  17.591  0.00  0.00    +0.000 A 
ATOM     17  C   UNL     1       6.650   7.100  16.955  0.00  0.00    +0.000 A 
ATOM     18  C   UNL     1       7.578   8.021  17.453  0.00  0.00    +0.000 A 
ATOM     19  C   UNL     1       8.311   7.708  18.587  0.00  0.00    +0.000 A 
ATOM     20  F   UNL     1       9.225   8.572  19.048  0.00  0.00    +0.000 F 
ATOM     21  C   UNL     1       8.117   6.502  19.238  0.00  0.00    +0.000 A 
ATOM     22  C   UNL     1       7.181   5.586  18.743  0.00  0.00    +0.000 A 
ENDBRANCH   1  16
BRANCH   1  23
ATOM     23  C   UNL     1       4.976   5.176  15.499  0.00  0.00    +0.000 C 
BRANCH  23  24
ATOM     24  C   UNL     1       5.492   4.197  14.430  0.00  0.00    +0.000 C 
BRANCH  24  25
ATOM     25  C   UNL     1       6.745   4.696  13.692  0.00  0.00    +0.000 C 
BRANCH  25  26
ATOM     26  C   UNL     1       7.281   3.666  12.697  0.00  0.00    +0.000 C 
BRANCH  26  27
ATOM     27  C   UNL     1       6.504   3.643  11.384  0.00  0.00    +0.000 C 
BRANCH  27  28
ATOM     28  C   UNL     1       5.382   2.623  11.441  0.00  0.00    +0.000 C 
ATOM     29  O   UNL     1       4.190   2.882  11.321  0.00  0.00    +0.000 OA
BRANCH  28  30
ATOM     30  O   UNL     1       5.836   1.366  11.632  0.00  0.00    +0.000 OA
ATOM     31  H   UNL     1       6.520   1.094  10.994  0.00  0.00    +0.000 HD
ENDBRANCH  28  30
ENDBRANCH  27  28
ENDBRANCH  26  27
ENDBRANCH  25  26
ENDBRANCH  24  25
ENDBRANCH  23  24
ENDBRANCH   1  23
TORSDOF 12
ENDMDL
