MODEL 1
REMARK VINA RESULT:      -9.3      0.000      0.000
REMARK  Name = 
REMARK  7 active torsions:
REMARK  status: ('A' for Active; 'I' for Inactive)
REMARK    1  A    between atoms: C_1  and  C_2
REMARK    2  A    between atoms: C_4  and  N_5
REMARK    3  A    between atoms: N_5  and  C_6
REMARK    4  A    between atoms: C_9  and  N_10
REMARK    5  A    between atoms: N_11  and  C_12
REMARK    6  A    between atoms: C_15  and  O_16
REMARK    7  A    between atoms: C_26  and  C_27
REMARK                            x       y       z     vdW  Elec       q    Type
REMARK                         _______ _______ _______ _____ _____    ______ ____
ROOT
ATOM      1  C   UNL     1       1.877   7.109  20.301  0.00  0.00    +0.000 A 
ATOM      2  C   UNL     1       1.579   5.811  20.718  0.00  0.00    +0.000 A 
ATOM      3  C   UNL     1       1.808   4.728  19.858  0.00  0.00    +0.000 A 
ATOM      4  C   UNL     1       2.300   4.930  18.559  0.00  0.00    +0.000 A 
ATOM      5  C   UNL     1       2.538   6.240  18.134  0.00  0.00    +0.000 A 
ATOM      6  C   UNL     1       2.290   7.317  18.980  0.00  0.00    +0.000 A 
ENDROOT
BRANCH   1   7
ATOM      7  N   UNL     1       1.722   8.192  21.200  0.00  0.00    +0.000 N 
ATOM      8  H   UNL     1       1.673   7.875  22.166  0.00  0.00    +0.000 HD
BRANCH   7  12
ATOM      9  C   UNL     1      -1.381  11.459  23.161  0.00  0.00    +0.000 C 
ATOM     10  C   UNL     1      -0.764  10.755  21.991  0.00  0.00    +0.000 A 
ATOM     11  C   UNL     1       0.109   9.710  22.184  0.00  0.00    +0.000 A 
ATOM     12  C   UNL     1       0.713   9.174  21.053  0.00  0.00    +0.000 A 
ATOM     13  N   UNL     1       0.410   9.584  19.818  0.00  0.00    +0.000 NA
ATOM     14  C   UNL     1      -0.480  10.589  19.720  0.00  0.00    +0.000 A 
ATOM     15  C   UNL     1      -0.821  11.092  18.352  0.00  0.00    +0.000 C 
ATOM     16  N   UNL     1      -1.071  11.204  20.762  0.00  0.00    +0.000 NA
ENDBRANCH   7  12
ENDBRANCH   1   7
BRANCH   4  17
ATOM     17  N   UNL     1       2.597   3.809  17.752  0.00  0.00    +0.000 NA
ATOM     18  N   UNL     1       3.718   3.244  17.877  0.00  0.00    +0.000 NA
BRANCH  18  19
ATOM     19  C   UNL     1       4.889   4.040  17.981  0.00  0.00    +0.000 A 
ATOM     20  C   UNL     1       5.261   4.594  19.215  0.00  0.00    +0.000 A 
ATOM     21  C   UNL     1       6.408   5.366  19.329  0.00  0.00    +0.000 A 
ATOM     22  C   UNL     1       7.135   5.670  18.181  0.00  0.00    +0.000 A 
ATOM     23  C   UNL     1       6.755   5.229  16.907  0.00  0.00    +0.000 A 
ATOM     24  N   UNL     1       7.444   5.627  15.813  0.00  0.00    +0.000 NA
ATOM     25  C   UNL     1       7.082   5.157  14.603  0.00  0.00    +0.000 A 
ATOM     26  C   UNL     1       6.071   4.241  14.416  0.00  0.00    +0.000 A 
ATOM     27  C   UNL     1       5.346   3.842  15.533  0.00  0.00    +0.000 A 
ATOM     28  C   UNL     1       5.645   4.362  16.815  0.00  0.00    +0.000 A 
BRANCH  22  29
ATOM     29  O   UNL     1       8.275   6.429  18.317  0.00  0.00    +0.000 OA
ATOM     30  H   UNL     1       8.022   7.357  18.433  0.00  0.00    +0.000 HD
ENDBRANCH  22  29
ENDBRANCH  18  19
ENDBRANCH   4  17
TORSDOF 5
ENDMDL
MODEL 2
REMARK VINA RESULT:      -9.2      0.516      1.573
REMARK  Name = 
REMARK  7 active torsions:
REMARK  status: ('A' for Active; 'I' for Inactive)
REMARK    1  A    between atoms: C_1  and  C_2
REMARK    2  A    between atoms: C_4  and  N_5
REMARK    3  A    between atoms: N_5  and  C_6
REMARK    4  A    between atoms: C_9  and  N_10
REMARK    5  A    between atoms: N_11  and  C_12
REMARK    6  A    between atoms: C_15  and  O_16
REMARK    7  A    between atoms: C_26  and  C_27
REMARK                            x       y       z     vdW  Elec       q    Type
REMARK                         _______ _______ _______ _____ _____    ______ ____
ROOT
ATOM      1  C   UNL     1       1.893   7.007  20.362  0.00  0.00    +0.000 A 
ATOM      2  C   UNL     1       1.598   5.699  20.749  0.00  0.00    +0.000 A 
ATOM      3  C   UNL     1       1.834   4.636  19.865  0.00  0.00    +0.000 A 
ATOM      4  C   UNL     1       2.329   4.869  18.573  0.00  0.00    +0.000 A 
ATOM      5  C   UNL     1       2.564   6.188  18.178  0.00  0.00    +0.000 A 
ATOM      6  C   UNL     1       2.310   7.246  19.047  0.00  0.00    +0.000 A 
ENDROOT
BRANCH   1   7
ATOM      7  N   UNL     1       1.733   8.069  21.284  0.00  0.00    +0.000 N 
ATOM      8  H   UNL     1       1.541   7.727  22.223  0.00  0.00    +0.000 HD
BRANCH   7  12
ATOM      9  C   UNL     1      -0.983  10.827  18.256  0.00  0.00    +0.000 C 
ATOM     10  C   UNL     1      -0.476  10.461  19.617  0.00  0.00    +0.000 A 
ATOM     11  C   UNL     1       0.495   9.499  19.767  0.00  0.00    +0.000 A 
ATOM     12  C   UNL     1       0.841   9.147  21.066  0.00  0.00    +0.000 A 
ATOM     13  N   UNL     1       0.326   9.762  22.136  0.00  0.00    +0.000 NA
ATOM     14  C   UNL     1      -0.594  10.714  21.895  0.00  0.00    +0.000 A 
ATOM     15  C   UNL     1      -1.213  11.403  23.072  0.00  0.00    +0.000 C 
ATOM     16  N   UNL     1      -1.030  11.080  20.675  0.00  0.00    +0.000 NA
ENDBRANCH   7  12
ENDBRANCH   1   7
BRANCH   4  17
ATOM     17  N   UNL     1       2.632   3.766  17.742  0.00  0.00    +0.000 NA
ATOM     18  N   UNL     1       3.761   3.214  17.846  0.00  0.00    +0.000 NA
BRANCH  18  19
ATOM     19  C   UNL     1       4.923   4.022  17.953  0.00  0.00    +0.000 A 
ATOM     20  C   UNL     1       5.287   4.577  19.190  0.00  0.00    +0.000 A 
ATOM     21  C   UNL     1       6.425   5.361  19.308  0.00  0.00    +0.000 A 
ATOM     22  C   UNL     1       7.151   5.676  18.161  0.00  0.00    +0.000 A 
ATOM     23  C   UNL     1       6.777   5.235  16.885  0.00  0.00    +0.000 A 
ATOM     24  N   UNL     1       7.462   5.644  15.793  0.00  0.00    +0.000 NA
ATOM     25  C   UNL     1       7.107   5.173  14.581  0.00  0.00    +0.000 A 
ATOM     26  C   UNL     1       6.107   4.246  14.391  0.00  0.00    +0.000 A 
ATOM     27  C   UNL     1       5.385   3.836  15.506  0.00  0.00    +0.000 A 
ATOM     28  C   UNL     1       5.676   4.355  16.790  0.00  0.00    +0.000 A 
BRANCH  22  29
ATOM     29  O   UNL     1       8.282   6.448  18.301  0.00  0.00    +0.000 OA
ATOM     30  H   UNL     1       8.079   7.202  18.874  0.00  0.00    +0.000 HD
ENDBRANCH  22  29
ENDBRANCH  18  19
ENDBRANCH   4  17
TORSDOF 5
ENDMDL
MODEL 3
REMARK VINA RESULT:      -8.8      0.633      1.819
REMARK  Name = 
REMARK  7 active torsions:
REMARK  status: ('A' for Active; 'I' for Inactive)
REMARK    1  A    between atoms: C_1  and  C_2
REMARK    2  A    between atoms: C_4  and  N_5
REMARK    3  A    between atoms: N_5  and  C_6
REMARK    4  A    between atoms: C_9  and  N_10
REMARK    5  A    between atoms: N_11  and  C_12
REMARK    6  A    between atoms: C_15  and  O_16
REMARK    7  A    between atoms: C_26  and  C_27
REMARK                            x       y       z     vdW  Elec       q    Type
REMARK                         _______ _______ _______ _____ _____    ______ ____
ROOT
ATOM      1  C   UNL     1       1.821   7.360  20.459  0.00  0.00    +0.000 A 
ATOM      2  C   UNL     1       2.312   7.616  19.178  0.00  0.00    +0.000 A 
ATOM      3  C   UNL     1       2.506   6.561  18.277  0.00  0.00    +0.000 A 
ATOM      4  C   UNL     1       2.250   5.234  18.654  0.00  0.00    +0.000 A 
ATOM      5  C   UNL     1       1.815   4.985  19.958  0.00  0.00    +0.000 A 
ATOM      6  C   UNL     1       1.643   6.030  20.861  0.00  0.00    +0.000 A 
ENDROOT
BRANCH   1   7
ATOM      7  N   UNL     1       1.548   8.434  21.339  0.00  0.00    +0.000 N 
ATOM      8  H   UNL     1       1.260   8.104  22.258  0.00  0.00    +0.000 HD
BRANCH   7  12
ATOM      9  C   UNL     1      -1.548  10.599  18.196  0.00  0.00    +0.000 C 
ATOM     10  C   UNL     1      -0.829  10.527  19.508  0.00  0.00    +0.000 A 
ATOM     11  C   UNL     1       0.119   9.557  19.733  0.00  0.00    +0.000 A 
ATOM     12  C   UNL     1       0.671   9.495  21.008  0.00  0.00    +0.000 A 
ATOM     13  N   UNL     1       0.370  10.382  21.961  0.00  0.00    +0.000 NA
ATOM     14  C   UNL     1      -0.544  11.318  21.644  0.00  0.00    +0.000 A 
ATOM     15  C   UNL     1      -0.926  12.310  22.698  0.00  0.00    +0.000 C 
ATOM     16  N   UNL     1      -1.169  11.419  20.455  0.00  0.00    +0.000 NA
ENDBRANCH   7  12
ENDBRANCH   1   7
BRANCH   4  17
ATOM     17  N   UNL     1       2.377   4.206  17.691  0.00  0.00    +0.000 NA
ATOM     18  N   UNL     1       3.425   3.505  17.680  0.00  0.00    +0.000 NA
BRANCH  18  19
ATOM     19  C   UNL     1       4.687   4.140  17.822  0.00  0.00    +0.000 A 
ATOM     20  C   UNL     1       5.110   4.601  19.079  0.00  0.00    +0.000 A 
ATOM     21  C   UNL     1       6.345   5.214  19.230  0.00  0.00    +0.000 A 
ATOM     22  C   UNL     1       7.121   5.460  18.100  0.00  0.00    +0.000 A 
ATOM     23  C   UNL     1       6.705   5.114  16.808  0.00  0.00    +0.000 A 
ATOM     24  N   UNL     1       7.454   5.457  15.735  0.00  0.00    +0.000 NA
ATOM     25  C   UNL     1       7.051   5.077  14.506  0.00  0.00    +0.000 A 
ATOM     26  C   UNL     1       5.934   4.305  14.278  0.00  0.00    +0.000 A 
ATOM     27  C   UNL     1       5.149   3.966  15.374  0.00  0.00    +0.000 A 
ATOM     28  C   UNL     1       5.494   4.400  16.676  0.00  0.00    +0.000 A 
BRANCH  22  29
ATOM     29  O   UNL     1       8.347   6.061  18.273  0.00  0.00    +0.000 OA
ATOM     30  H   UNL     1       8.281   6.991  18.007  0.00  0.00    +0.000 HD
ENDBRANCH  22  29
ENDBRANCH  18  19
ENDBRANCH   4  17
TORSDOF 5
ENDMDL
MODEL 4
REMARK VINA RESULT:      -8.8      1.234      1.836
REMARK  Name = 
REMARK  7 active torsions:
REMARK  status: ('A' for Active; 'I' for Inactive)
REMARK    1  A    between atoms: C_1  and  C_2
REMARK    2  A    between atoms: C_4  and  N_5
REMARK    3  A    between atoms: N_5  and  C_6
REMARK    4  A    between atoms: C_9  and  N_10
REMARK    5  A    between atoms: N_11  and  C_12
REMARK    6  A    between atoms: C_15  and  O_16
REMARK    7  A    between atoms: C_26  and  C_27
REMARK                            x       y       z     vdW  Elec       q    Type
REMARK                         _______ _______ _______ _____ _____    ______ ____
ROOT
ATOM      1  C   UNL     1       1.728   7.777  19.994  0.00  0.00    +0.000 A 
ATOM      2  C   UNL     1       2.226   7.767  18.690  0.00  0.00    +0.000 A 
ATOM      3  C   UNL     1       2.511   6.549  18.058  0.00  0.00    +0.000 A 
ATOM      4  C   UNL     1       2.341   5.330  18.730  0.00  0.00    +0.000 A 
ATOM      5  C   UNL     1       1.899   5.357  20.055  0.00  0.00    +0.000 A 
ATOM      6  C   UNL     1       1.636   6.567  20.692  0.00  0.00    +0.000 A 
ENDROOT
BRANCH   1   7
ATOM      7  N   UNL     1       1.363   9.002  20.601  0.00  0.00    +0.000 N 
ATOM      8  H   UNL     1       0.873   8.855  21.481  0.00  0.00    +0.000 HD
BRANCH   7  12
ATOM      9  C   UNL     1       1.152  13.515  18.667  0.00  0.00    +0.000 C 
ATOM     10  C   UNL     1       0.554  12.176  18.972  0.00  0.00    +0.000 A 
ATOM     11  C   UNL     1       1.227  11.273  19.760  0.00  0.00    +0.000 A 
ATOM     12  C   UNL     1       0.652  10.017  19.916  0.00  0.00    +0.000 A 
ATOM     13  N   UNL     1      -0.543   9.709  19.402  0.00  0.00    +0.000 NA
ATOM     14  C   UNL     1      -1.146  10.664  18.672  0.00  0.00    +0.000 A 
ATOM     15  C   UNL     1      -2.473  10.342  18.057  0.00  0.00    +0.000 C 
ATOM     16  N   UNL     1      -0.639  11.886  18.422  0.00  0.00    +0.000 NA
ENDBRANCH   7  12
ENDBRANCH   1   7
BRANCH   4  17
ATOM     17  N   UNL     1       2.559   4.120  18.032  0.00  0.00    +0.000 NA
ATOM     18  N   UNL     1       3.653   3.512  18.188  0.00  0.00    +0.000 NA
BRANCH  18  19
ATOM     19  C   UNL     1       4.865   4.251  18.186  0.00  0.00    +0.000 A 
ATOM     20  C   UNL     1       5.338   4.837  19.370  0.00  0.00    +0.000 A 
ATOM     21  C   UNL     1       6.526   5.554  19.381  0.00  0.00    +0.000 A 
ATOM     22  C   UNL     1       7.195   5.772  18.179  0.00  0.00    +0.000 A 
ATOM     23  C   UNL     1       6.716   5.299  16.951  0.00  0.00    +0.000 A 
ATOM     24  N   UNL     1       7.354   5.615  15.801  0.00  0.00    +0.000 NA
ATOM     25  C   UNL     1       6.896   5.114  14.637  0.00  0.00    +0.000 A 
ATOM     26  C   UNL     1       5.833   4.243  14.552  0.00  0.00    +0.000 A 
ATOM     27  C   UNL     1       5.160   3.928  15.727  0.00  0.00    +0.000 A 
ATOM     28  C   UNL     1       5.562   4.485  16.964  0.00  0.00    +0.000 A 
BRANCH  22  29
ATOM     29  O   UNL     1       8.376   6.478  18.213  0.00  0.00    +0.000 OA
ATOM     30  H   UNL     1       8.182   7.421  18.100  0.00  0.00    +0.000 HD
ENDBRANCH  22  29
ENDBRANCH  18  19
ENDBRANCH   4  17
TORSDOF 5
ENDMDL
MODEL 5
REMARK VINA RESULT:      -8.8      1.330      1.933
REMARK  Name = 
REMARK  7 active torsions:
REMARK  status: ('A' for Active; 'I' for Inactive)
REMARK    1  A    between atoms: C_1  and  C_2
REMARK    2  A    between atoms: C_4  and  N_5
REMARK    3  A    between atoms: N_5  and  C_6
REMARK    4  A    between atoms: C_9  and  N_10
REMARK    5  A    between atoms: N_11  and  C_12
REMARK    6  A    between atoms: C_15  and  O_16
REMARK    7  A    between atoms: C_26  and  C_27
REMARK                            x       y       z     vdW  Elec       q    Type
REMARK                         _______ _______ _______ _____ _____    ______ ____
ROOT
ATOM      1  C   UNL     1       1.733   7.818  19.918  0.00  0.00    +0.000 A 
ATOM      2  C   UNL     1       2.249   7.746  18.622  0.00  0.00    +0.000 A 
ATOM      3  C   UNL     1       2.546   6.500  18.054  0.00  0.00    +0.000 A 
ATOM      4  C   UNL     1       2.370   5.314  18.783  0.00  0.00    +0.000 A 
ATOM      5  C   UNL     1       1.910   5.404  20.099  0.00  0.00    +0.000 A 
ATOM      6  C   UNL     1       1.635   6.642  20.672  0.00  0.00    +0.000 A 
ENDROOT
BRANCH   1   7
ATOM      7  N   UNL     1       1.357   9.070  20.460  0.00  0.00    +0.000 N 
ATOM      8  H   UNL     1       0.817   8.962  21.316  0.00  0.00    +0.000 HD
BRANCH   7  12
ATOM      9  C   UNL     1      -2.624  10.725  18.101  0.00  0.00    +0.000 C 
ATOM     10  C   UNL     1      -1.214  10.874  18.584  0.00  0.00    +0.000 A 
ATOM     11  C   UNL     1      -0.569   9.823  19.194  0.00  0.00    +0.000 A 
ATOM     12  C   UNL     1       0.701  10.070  19.701  0.00  0.00    +0.000 A 
ATOM     13  N   UNL     1       1.321  11.243  19.540  0.00  0.00    +0.000 NA
ATOM     14  C   UNL     1       0.629  12.204  18.901  0.00  0.00    +0.000 A 
ATOM     15  C   UNL     1       1.283  13.540  18.728  0.00  0.00    +0.000 C 
ATOM     16  N   UNL     1      -0.625  12.072  18.427  0.00  0.00    +0.000 NA
ENDBRANCH   7  12
ENDBRANCH   1   7
BRANCH   4  17
ATOM     17  N   UNL     1       2.602   4.073  18.147  0.00  0.00    +0.000 NA
ATOM     18  N   UNL     1       3.707   3.492  18.322  0.00  0.00    +0.000 NA
BRANCH  18  19
ATOM     19  C   UNL     1       4.906   4.250  18.267  0.00  0.00    +0.000 A 
ATOM     20  C   UNL     1       5.419   4.849  19.429  0.00  0.00    +0.000 A 
ATOM     21  C   UNL     1       6.595   5.584  19.387  0.00  0.00    +0.000 A 
ATOM     22  C   UNL     1       7.210   5.806  18.158  0.00  0.00    +0.000 A 
ATOM     23  C   UNL     1       6.689   5.319  16.952  0.00  0.00    +0.000 A 
ATOM     24  N   UNL     1       7.274   5.640  15.776  0.00  0.00    +0.000 NA
ATOM     25  C   UNL     1       6.776   5.125  14.634  0.00  0.00    +0.000 A 
ATOM     26  C   UNL     1       5.724   4.238  14.596  0.00  0.00    +0.000 A 
ATOM     27  C   UNL     1       5.105   3.919  15.800  0.00  0.00    +0.000 A 
ATOM     28  C   UNL     1       5.549   4.488  17.017  0.00  0.00    +0.000 A 
BRANCH  22  29
ATOM     29  O   UNL     1       8.380   6.531  18.140  0.00  0.00    +0.000 OA
ATOM     30  H   UNL     1       8.740   6.524  17.240  0.00  0.00    +0.000 HD
ENDBRANCH  22  29
ENDBRANCH  18  19
ENDBRANCH   4  17
TORSDOF 5
ENDMDL
MODEL 6
REMARK VINA RESULT:      -8.5      1.091      1.569
REMARK  Name = 
REMARK  7 active torsions:
REMARK  status: ('A' for Active; 'I' for Inactive)
REMARK    1  A    between atoms: C_1  and  C_2
REMARK    2  A    between atoms: C_4  and  N_5
REMARK    3  A    between atoms: N_5  and  C_6
REMARK    4  A    between atoms: C_9  and  N_10
REMARK    5  A    between atoms: N_11  and  C_12
REMARK    6  A    between atoms: C_15  and  O_16
REMARK    7  A    between atoms: C_26  and  C_27
REMARK                            x       y       z     vdW  Elec       q    Type
REMARK                         _______ _______ _______ _____ _____    ______ ____
ROOT
ATOM      1  C   UNL     1       1.775   8.134  19.515  0.00  0.00    +0.000 A 
ATOM      2  C   UNL     1       2.272   7.948  18.224  0.00  0.00    +0.000 A 
ATOM      3  C   UNL     1       2.550   6.656  17.759  0.00  0.00    +0.000 A 
ATOM      4  C   UNL     1       2.371   5.537  18.586  0.00  0.00    +0.000 A 
ATOM      5  C   UNL     1       1.930   5.742  19.896  0.00  0.00    +0.000 A 
ATOM      6  C   UNL     1       1.675   7.027  20.367  0.00  0.00    +0.000 A 
ENDROOT
BRANCH   1   7
ATOM      7  N   UNL     1       1.418   9.431  19.955  0.00  0.00    +0.000 N 
ATOM      8  H   UNL     1       1.520   9.528  20.963  0.00  0.00    +0.000 HD
BRANCH   7  12
ATOM      9  C   UNL     1      -2.112  12.720  20.886  0.00  0.00    +0.000 C 
ATOM     10  C   UNL     1      -1.500  11.634  20.056  0.00  0.00    +0.000 A 
ATOM     11  C   UNL     1      -0.377  10.970  20.491  0.00  0.00    +0.000 A 
ATOM     12  C   UNL     1       0.187  10.044  19.621  0.00  0.00    +0.000 A 
ATOM     13  N   UNL     1      -0.368   9.738  18.444  0.00  0.00    +0.000 NA
ATOM     14  C   UNL     1      -1.484  10.413  18.112  0.00  0.00    +0.000 A 
ATOM     15  C   UNL     1      -2.116  10.115  16.788  0.00  0.00    +0.000 C 
ATOM     16  N   UNL     1      -2.067  11.364  18.867  0.00  0.00    +0.000 NA
ENDBRANCH   7  12
ENDBRANCH   1   7
BRANCH   4  17
ATOM     17  N   UNL     1       2.582   4.244  18.054  0.00  0.00    +0.000 NA
ATOM     18  N   UNL     1       3.656   3.640  18.320  0.00  0.00    +0.000 NA
BRANCH  18  19
ATOM     19  C   UNL     1       4.884   4.349  18.263  0.00  0.00    +0.000 A 
ATOM     20  C   UNL     1       5.399   4.967  19.413  0.00  0.00    +0.000 A 
ATOM     21  C   UNL     1       6.603   5.655  19.370  0.00  0.00    +0.000 A 
ATOM     22  C   UNL     1       7.248   5.813  18.146  0.00  0.00    +0.000 A 
ATOM     23  C   UNL     1       6.729   5.307  16.947  0.00  0.00    +0.000 A 
ATOM     24  N   UNL     1       7.347   5.566  15.772  0.00  0.00    +0.000 NA
ATOM     25  C   UNL     1       6.850   5.033  14.638  0.00  0.00    +0.000 A 
ATOM     26  C   UNL     1       5.765   4.185  14.610  0.00  0.00    +0.000 A 
ATOM     27  C   UNL     1       5.113   3.930  15.812  0.00  0.00    +0.000 A 
ATOM     28  C   UNL     1       5.557   4.522  17.018  0.00  0.00    +0.000 A 
BRANCH  22  29
ATOM     29  O   UNL     1       8.446   6.491  18.126  0.00  0.00    +0.000 OA
ATOM     30  H   UNL     1       9.047   6.085  18.768  0.00  0.00    +0.000 HD
ENDBRANCH  22  29
ENDBRANCH  18  19
ENDBRANCH   4  17
TORSDOF 5
ENDMDL
MODEL 7
REMARK VINA RESULT:      -8.4      1.526      2.676
REMARK  Name = 
REMARK  7 active torsions:
REMARK  status: ('A' for Active; 'I' for Inactive)
REMARK    1  A    between atoms: C_1  and  C_2
REMARK    2  A    between atoms: C_4  and  N_5
REMARK    3  A    between atoms: N_5  and  C_6
REMARK    4  A    between atoms: C_9  and  N_10
REMARK    5  A    between atoms: N_11  and  C_12
REMARK    6  A    between atoms: C_15  and  O_16
REMARK    7  A    between atoms: C_26  and  C_27
REMARK                            x       y       z     vdW  Elec       q    Type
REMARK                         _______ _______ _______ _____ _____    ______ ____
ROOT
ATOM      1  C   UNL     1       2.079   8.088  18.872  0.00  0.00    +0.000 A 
ATOM      2  C   UNL     1       2.341   7.450  17.659  0.00  0.00    +0.000 A 
ATOM      3  C   UNL     1       2.544   6.064  17.625  0.00  0.00    +0.000 A 
ATOM      4  C   UNL     1       2.525   5.303  18.804  0.00  0.00    +0.000 A 
ATOM      5  C   UNL     1       2.320   5.963  20.018  0.00  0.00    +0.000 A 
ATOM      6  C   UNL     1       2.141   7.343  20.056  0.00  0.00    +0.000 A 
ENDROOT
BRANCH   1   7
ATOM      7  N   UNL     1       1.794   9.475  18.894  0.00  0.00    +0.000 N 
ATOM      8  H   UNL     1       2.295   9.950  19.641  0.00  0.00    +0.000 HD
BRANCH   7  12
ATOM      9  C   UNL     1      -1.701  12.204  21.011  0.00  0.00    +0.000 C 
ATOM     10  C   UNL     1      -1.199  11.311  19.918  0.00  0.00    +0.000 A 
ATOM     11  C   UNL     1       0.040  10.723  20.010  0.00  0.00    +0.000 A 
ATOM     12  C   UNL     1       0.474   9.988  18.913  0.00  0.00    +0.000 A 
ATOM     13  N   UNL     1      -0.296   9.780  17.841  0.00  0.00    +0.000 NA
ATOM     14  C   UNL     1      -1.507  10.367  17.849  0.00  0.00    +0.000 A 
ATOM     15  C   UNL     1      -2.385  10.178  16.651  0.00  0.00    +0.000 C 
ATOM     16  N   UNL     1      -1.987  11.139  18.842  0.00  0.00    +0.000 NA
ENDBRANCH   7  12
ENDBRANCH   1   7
BRANCH   4  17
ATOM     17  N   UNL     1       2.650   3.897  18.720  0.00  0.00    +0.000 NA
ATOM     18  N   UNL     1       3.792   3.394  18.546  0.00  0.00    +0.000 NA
BRANCH  18  19
ATOM     19  C   UNL     1       4.671   3.975  17.594  0.00  0.00    +0.000 A 
ATOM     20  C   UNL     1       4.505   3.713  16.225  0.00  0.00    +0.000 A 
ATOM     21  C   UNL     1       5.353   4.284  15.287  0.00  0.00    +0.000 A 
ATOM     22  C   UNL     1       6.436   5.041  15.726  0.00  0.00    +0.000 A 
ATOM     23  C   UNL     1       6.710   5.252  17.084  0.00  0.00    +0.000 A 
ATOM     24  N   UNL     1       7.825   5.918  17.460  0.00  0.00    +0.000 NA
ATOM     25  C   UNL     1       8.045   6.143  18.771  0.00  0.00    +0.000 A 
ATOM     26  C   UNL     1       7.162   5.774  19.762  0.00  0.00    +0.000 A 
ATOM     27  C   UNL     1       6.023   5.072  19.384  0.00  0.00    +0.000 A 
ATOM     28  C   UNL     1       5.785   4.753  18.027  0.00  0.00    +0.000 A 
BRANCH  22  29
ATOM     29  O   UNL     1       7.260   5.606  14.779  0.00  0.00    +0.000 OA
ATOM     30  H   UNL     1       6.978   6.519  14.622  0.00  0.00    +0.000 HD
ENDBRANCH  22  29
ENDBRANCH  18  19
ENDBRANCH   4  17
TORSDOF 5
ENDMDL
MODEL 8
REMARK VINA RESULT:      -8.3      1.321      2.339
REMARK  Name = 
REMARK  7 active torsions:
REMARK  status: ('A' for Active; 'I' for Inactive)
REMARK    1  A    between atoms: C_1  and  C_2
REMARK    2  A    between atoms: C_4  and  N_5
REMARK    3  A    between atoms: N_5  and  C_6
REMARK    4  A    between atoms: C_9  and  N_10
REMARK    5  A    between atoms: N_11  and  C_12
REMARK    6  A    between atoms: C_15  and  O_16
REMARK    7  A    between atoms: C_26  and  C_27
REMARK                            x       y       z     vdW  Elec       q    Type
REMARK                         _______ _______ _______ _____ _____    ______ ____
ROOT
ATOM      1  C   UNL     1       2.098   7.832  19.068  0.00  0.00    +0.000 A 
ATOM      2  C   UNL     1       2.158   7.086  20.246  0.00  0.00    +0.000 A 
ATOM      3  C   UNL     1       2.355   5.699  20.189  0.00  0.00    +0.000 A 
ATOM      4  C   UNL     1       2.455   5.035  18.957  0.00  0.00    +0.000 A 
ATOM      5  C   UNL     1       2.333   5.785  17.785  0.00  0.00    +0.000 A 
ATOM      6  C   UNL     1       2.116   7.159  17.840  0.00  0.00    +0.000 A 
ENDROOT
BRANCH   1   7
ATOM      7  N   UNL     1       1.982   9.241  19.130  0.00  0.00    +0.000 N 
ATOM      8  H   UNL     1       2.680   9.650  19.748  0.00  0.00    +0.000 HD
BRANCH   7  12
ATOM      9  C   UNL     1      -0.911  11.704  22.246  0.00  0.00    +0.000 C 
ATOM     10  C   UNL     1      -0.621  11.097  20.908  0.00  0.00    +0.000 A 
ATOM     11  C   UNL     1       0.514  10.346  20.713  0.00  0.00    +0.000 A 
ATOM     12  C   UNL     1       0.762   9.900  19.420  0.00  0.00    +0.000 A 
ATOM     13  N   UNL     1      -0.093  10.109  18.414  0.00  0.00    +0.000 NA
ATOM     14  C   UNL     1      -1.194  10.826  18.703  0.00  0.00    +0.000 A 
ATOM     15  C   UNL     1      -2.160  11.104  17.592  0.00  0.00    +0.000 C 
ATOM     16  N   UNL     1      -1.488  11.344  19.911  0.00  0.00    +0.000 NA
ENDBRANCH   7  12
ENDBRANCH   1   7
BRANCH   4  17
ATOM     17  N   UNL     1       2.737   3.650  18.941  0.00  0.00    +0.000 NA
ATOM     18  N   UNL     1       3.921   3.269  18.736  0.00  0.00    +0.000 NA
BRANCH  18  19
ATOM     19  C   UNL     1       4.683   3.889  17.712  0.00  0.00    +0.000 A 
ATOM     20  C   UNL     1       4.424   3.601  16.363  0.00  0.00    +0.000 A 
ATOM     21  C   UNL     1       5.157   4.209  15.354  0.00  0.00    +0.000 A 
ATOM     22  C   UNL     1       6.225   5.035  15.699  0.00  0.00    +0.000 A 
ATOM     23  C   UNL     1       6.595   5.278  17.027  0.00  0.00    +0.000 A 
ATOM     24  N   UNL     1       7.695   6.014  17.307  0.00  0.00    +0.000 NA
ATOM     25  C   UNL     1       8.005   6.267  18.594  0.00  0.00    +0.000 A 
ATOM     26  C   UNL     1       7.230   5.859  19.656  0.00  0.00    +0.000 A 
ATOM     27  C   UNL     1       6.108   5.086  19.378  0.00  0.00    +0.000 A 
ATOM     28  C   UNL     1       5.780   4.736  18.046  0.00  0.00    +0.000 A 
BRANCH  22  29
ATOM     29  O   UNL     1       6.935   5.635  14.683  0.00  0.00    +0.000 OA
ATOM     30  H   UNL     1       7.873   5.418  14.785  0.00  0.00    +0.000 HD
ENDBRANCH  22  29
ENDBRANCH  18  19
ENDBRANCH   4  17
TORSDOF 5
ENDMDL
MODEL 9
REMARK VINA RESULT:      -8.3      3.567      8.465
REMARK  Name = 
REMARK  7 active torsions:
REMARK  status: ('A' for Active; 'I' for Inactive)
REMARK    1  A    between atoms: C_1  and  C_2
REMARK    2  A    between atoms: C_4  and  N_5
REMARK    3  A    between atoms: N_5  and  C_6
REMARK    4  A    between atoms: C_9  and  N_10
REMARK    5  A    between atoms: N_11  and  C_12
REMARK    6  A    between atoms: C_15  and  O_16
REMARK    7  A    between atoms: C_26  and  C_27
REMARK                            x       y       z     vdW  Elec       q    Type
REMARK                         _______ _______ _______ _____ _____    ______ ____
ROOT
ATOM      1  C   UNL     1       1.625   8.271  19.886  0.00  0.00    +0.000 A 
ATOM      2  C   UNL     1       0.703   8.757  20.814  0.00  0.00    +0.000 A 
ATOM      3  C   UNL     1      -0.237   9.724  20.430  0.00  0.00    +0.000 A 
ATOM      4  C   UNL     1      -0.243  10.245  19.128  0.00  0.00    +0.000 A 
ATOM      5  C   UNL     1       0.723   9.794  18.225  0.00  0.00    +0.000 A 
ATOM      6  C   UNL     1       1.671   8.850  18.612  0.00  0.00    +0.000 A 
ENDROOT
BRANCH   1   7
ATOM      7  N   UNL     1       2.518   7.237  20.253  0.00  0.00    +0.000 N 
ATOM      8  H   UNL     1       3.472   7.441  19.961  0.00  0.00    +0.000 HD
BRANCH   7  12
ATOM      9  C   UNL     1       2.744   3.491  17.081  0.00  0.00    +0.000 C 
ATOM     10  C   UNL     1       2.414   4.073  18.421  0.00  0.00    +0.000 A 
ATOM     11  C   UNL     1       2.520   5.426  18.641  0.00  0.00    +0.000 A 
ATOM     12  C   UNL     1       2.290   5.876  19.936  0.00  0.00    +0.000 A 
ATOM     13  N   UNL     1       1.902   5.058  20.920  0.00  0.00    +0.000 NA
ATOM     14  C   UNL     1       1.793   3.754  20.607  0.00  0.00    +0.000 A 
ATOM     15  C   UNL     1       1.388   2.805  21.693  0.00  0.00    +0.000 C 
ATOM     16  N   UNL     1       2.048   3.222  19.397  0.00  0.00    +0.000 NA
ENDBRANCH   7  12
ENDBRANCH   1   7
BRANCH   4  17
ATOM     17  N   UNL     1      -1.258  11.156  18.754  0.00  0.00    +0.000 NA
ATOM     18  N   UNL     1      -0.976  12.381  18.660  0.00  0.00    +0.000 NA
BRANCH  18  19
ATOM     19  C   UNL     1      -0.179  12.991  19.664  0.00  0.00    +0.000 A 
ATOM     20  C   UNL     1      -0.721  13.261  20.930  0.00  0.00    +0.000 A 
ATOM     21  C   UNL     1       0.052  13.848  21.921  0.00  0.00    +0.000 A 
ATOM     22  C   UNL     1       1.346  14.261  21.614  0.00  0.00    +0.000 A 
ATOM     23  C   UNL     1       1.905  14.110  20.339  0.00  0.00    +0.000 A 
ATOM     24  N   UNL     1       3.132  14.610  20.067  0.00  0.00    +0.000 NA
ATOM     25  C   UNL     1       3.663  14.416  18.843  0.00  0.00    +0.000 A 
ATOM     26  C   UNL     1       3.044  13.684  17.855  0.00  0.00    +0.000 A 
ATOM     27  C   UNL     1       1.774  13.184  18.120  0.00  0.00    +0.000 A 
ATOM     28  C   UNL     1       1.147  13.421  19.366  0.00  0.00    +0.000 A 
BRANCH  22  29
ATOM     29  O   UNL     1       2.099  14.834  22.614  0.00  0.00    +0.000 OA
ATOM     30  H   UNL     1       1.871  14.415  23.458  0.00  0.00    +0.000 HD
ENDBRANCH  22  29
ENDBRANCH  18  19
ENDBRANCH   4  17
TORSDOF 5
ENDMDL
