MODEL 1
REMARK VINA RESULT:      -7.6      0.000      0.000
REMARK  Name = 
REMARK  2 active torsions:
REMARK  status: ('A' for Active; 'I' for Inactive)
REMARK    1  A    between atoms: C_1  and  C_2
REMARK    2  A    between atoms: C_12  and  C_14
REMARK                            x       y       z     vdW  Elec       q    Type
REMARK                         _______ _______ _______ _____ _____    ______ ____
ROOT
ATOM      1  C   UNL     1      -1.254  11.432  23.063  0.00  0.00    +0.000 C 
ATOM      2  C   UNL     1      -0.384  10.548  22.220  0.00  0.00    +0.000 A 
ATOM      3  C   UNL     1       0.281   9.455  22.769  0.00  0.00    +0.000 A 
ATOM      4  C   UNL     1       1.035   8.597  21.956  0.00  0.00    +0.000 A 
ATOM      5  C   UNL     1       1.156   8.809  20.577  0.00  0.00    +0.000 A 
ATOM      6  C   UNL     1       0.549   9.965  20.036  0.00  0.00    +0.000 A 
ATOM      7  C   UNL     1      -0.220  10.814  20.859  0.00  0.00    +0.000 A 
ATOM      8  C   UNL     1       0.701  10.353  18.588  0.00  0.00    +0.000 C 
ATOM      9  C   UNL     1       1.163   9.191  17.727  0.00  0.00    +0.000 C 
ATOM     10  C   UNL     1       2.299   8.472  18.432  0.00  0.00    +0.000 C 
ATOM     11  N   UNL     1       1.849   7.882  19.704  0.00  0.00    +0.000 N 
ATOM     12  C   UNL     1       1.942   6.515  20.016  0.00  0.00    +0.000 C 
ATOM     13  O   UNL     1       1.558   6.015  21.075  0.00  0.00    +0.000 OA
ENDROOT
BRANCH  12  14
ATOM     14  C   UNL     1       2.539   5.572  18.972  0.00  0.00    +0.000 C 
ATOM     15  C   UNL     1       3.943   5.097  19.365  0.00  0.00    +0.000 C 
ATOM     16  C   UNL     1       4.308   4.019  18.352  0.00  0.00    +0.000 C 
ATOM     17  S   UNL     1       2.809   3.075  18.134  0.00  0.00    +0.000 S 
ATOM     18  O   UNL     1       2.855   1.928  19.015  0.00  0.00    +0.000 OA
ATOM     19  O   UNL     1       2.553   2.954  16.712  0.00  0.00    +0.000 OA
ATOM     20  C   UNL     1       1.700   4.292  18.818  0.00  0.00    +0.000 C 
ENDBRANCH  12  14
TORSDOF 1
ENDMDL
MODEL 2
REMARK VINA RESULT:      -7.3      0.982      1.069
REMARK  Name = 
REMARK  2 active torsions:
REMARK  status: ('A' for Active; 'I' for Inactive)
REMARK    1  A    between atoms: C_1  and  C_2
REMARK    2  A    between atoms: C_12  and  C_14
REMARK                            x       y       z     vdW  Elec       q    Type
REMARK                         _______ _______ _______ _____ _____    ______ ____
ROOT
ATOM      1  C   UNL     1      -1.135  11.415  22.141  0.00  0.00    +0.000 C 
ATOM      2  C   UNL     1      -0.203  10.413  21.529  0.00  0.00    +0.000 A 
ATOM      3  C   UNL     1       0.322   9.364  22.278  0.00  0.00    +0.000 A 
ATOM      4  C   UNL     1       1.137   8.395  21.677  0.00  0.00    +0.000 A 
ATOM      5  C   UNL     1       1.459   8.448  20.315  0.00  0.00    +0.000 A 
ATOM      6  C   UNL     1       0.993   9.559  19.575  0.00  0.00    +0.000 A 
ATOM      7  C   UNL     1       0.162  10.521  20.185  0.00  0.00    +0.000 A 
ATOM      8  C   UNL     1       1.365   9.778  18.131  0.00  0.00    +0.000 C 
ATOM      9  C   UNL     1       1.882   8.513  17.472  0.00  0.00    +0.000 C 
ATOM     10  C   UNL     1       2.870   7.835  18.404  0.00  0.00    +0.000 C 
ATOM     11  N   UNL     1       2.218   7.406  19.652  0.00  0.00    +0.000 N 
ATOM     12  C   UNL     1       2.196   6.079  20.115  0.00  0.00    +0.000 C 
ATOM     13  O   UNL     1       1.644   5.714  21.154  0.00  0.00    +0.000 OA
ENDROOT
BRANCH  12  14
ATOM     14  C   UNL     1       2.883   5.006  19.272  0.00  0.00    +0.000 C 
ATOM     15  C   UNL     1       4.403   5.204  19.220  0.00  0.00    +0.000 C 
ATOM     16  C   UNL     1       4.954   3.959  18.536  0.00  0.00    +0.000 C 
ATOM     17  S   UNL     1       4.007   2.609  19.217  0.00  0.00    +0.000 S 
ATOM     18  O   UNL     1       4.746   2.039  20.323  0.00  0.00    +0.000 OA
ATOM     19  O   UNL     1       3.507   1.805  18.119  0.00  0.00    +0.000 OA
ATOM     20  C   UNL     1       2.672   3.601  19.860  0.00  0.00    +0.000 C 
ENDBRANCH  12  14
TORSDOF 1
ENDMDL
MODEL 3
REMARK VINA RESULT:      -7.1      3.302      7.265
REMARK  Name = 
REMARK  2 active torsions:
REMARK  status: ('A' for Active; 'I' for Inactive)
REMARK    1  A    between atoms: C_1  and  C_2
REMARK    2  A    between atoms: C_12  and  C_14
REMARK                            x       y       z     vdW  Elec       q    Type
REMARK                         _______ _______ _______ _____ _____    ______ ____
ROOT
ATOM      1  C   UNL     1       6.058   3.972  14.694  0.00  0.00    +0.000 C 
ATOM      2  C   UNL     1       5.278   4.682  15.760  0.00  0.00    +0.000 A 
ATOM      3  C   UNL     1       5.370   6.062  15.924  0.00  0.00    +0.000 A 
ATOM      4  C   UNL     1       4.583   6.721  16.878  0.00  0.00    +0.000 A 
ATOM      5  C   UNL     1       3.690   6.025  17.702  0.00  0.00    +0.000 A 
ATOM      6  C   UNL     1       3.659   4.616  17.591  0.00  0.00    +0.000 A 
ATOM      7  C   UNL     1       4.443   3.963  16.618  0.00  0.00    +0.000 A 
ATOM      8  C   UNL     1       2.817   3.755  18.498  0.00  0.00    +0.000 C 
ATOM      9  C   UNL     1       1.724   4.546  19.191  0.00  0.00    +0.000 C 
ATOM     10  C   UNL     1       2.310   5.842  19.723  0.00  0.00    +0.000 C 
ATOM     11  N   UNL     1       2.798   6.696  18.627  0.00  0.00    +0.000 N 
ATOM     12  C   UNL     1       2.350   8.007  18.388  0.00  0.00    +0.000 C 
ATOM     13  O   UNL     1       2.748   8.722  17.468  0.00  0.00    +0.000 OA
ENDROOT
BRANCH  12  14
ATOM     14  C   UNL     1       1.283   8.587  19.316  0.00  0.00    +0.000 C 
ATOM     15  C   UNL     1       1.648   8.407  20.794  0.00  0.00    +0.000 C 
ATOM     16  C   UNL     1       0.614   9.211  21.571  0.00  0.00    +0.000 C 
ATOM     17  S   UNL     1       0.402  10.711  20.628  0.00  0.00    +0.000 S 
ATOM     18  O   UNL     1       1.265  11.731  21.185  0.00  0.00    +0.000 OA
ATOM     19  O   UNL     1      -1.018  10.921  20.423  0.00  0.00    +0.000 OA
ATOM     20  C   UNL     1       1.121  10.104  19.115  0.00  0.00    +0.000 C 
ENDBRANCH  12  14
TORSDOF 1
ENDMDL
MODEL 4
REMARK VINA RESULT:      -7.1      4.217      7.641
REMARK  Name = 
REMARK  2 active torsions:
REMARK  status: ('A' for Active; 'I' for Inactive)
REMARK    1  A    between atoms: C_1  and  C_2
REMARK    2  A    between atoms: C_12  and  C_14
REMARK                            x       y       z     vdW  Elec       q    Type
REMARK                         _______ _______ _______ _____ _____    ______ ____
ROOT
ATOM      1  C   UNL     1       7.478   4.314  12.162  0.00  0.00    +0.000 C 
ATOM      2  C   UNL     1       6.777   4.521  13.472  0.00  0.00    +0.000 A 
ATOM      3  C   UNL     1       5.493   4.029  13.689  0.00  0.00    +0.000 A 
ATOM      4  C   UNL     1       4.877   4.169  14.940  0.00  0.00    +0.000 A 
ATOM      5  C   UNL     1       5.519   4.810  16.007  0.00  0.00    +0.000 A 
ATOM      6  C   UNL     1       6.789   5.381  15.760  0.00  0.00    +0.000 A 
ATOM      7  C   UNL     1       7.406   5.222  14.502  0.00  0.00    +0.000 A 
ATOM      8  C   UNL     1       7.526   6.185  16.799  0.00  0.00    +0.000 C 
ATOM      9  C   UNL     1       6.997   5.938  18.200  0.00  0.00    +0.000 C 
ATOM     10  C   UNL     1       5.480   5.966  18.171  0.00  0.00    +0.000 C 
ATOM     11  N   UNL     1       4.942   4.880  17.335  0.00  0.00    +0.000 N 
ATOM     12  C   UNL     1       4.052   3.895  17.797  0.00  0.00    +0.000 C 
ATOM     13  O   UNL     1       3.607   2.979  17.105  0.00  0.00    +0.000 OA
ENDROOT
BRANCH  12  14
ATOM     14  C   UNL     1       3.615   3.943  19.261  0.00  0.00    +0.000 C 
ATOM     15  C   UNL     1       2.617   5.077  19.524  0.00  0.00    +0.000 C 
ATOM     16  C   UNL     1       2.124   4.864  20.950  0.00  0.00    +0.000 C 
ATOM     17  S   UNL     1       1.902   3.099  21.094  0.00  0.00    +0.000 S 
ATOM     18  O   UNL     1       0.516   2.784  20.820  0.00  0.00    +0.000 OA
ATOM     19  O   UNL     1       2.577   2.654  22.298  0.00  0.00    +0.000 OA
ATOM     20  C   UNL     1       2.891   2.653  19.680  0.00  0.00    +0.000 C 
ENDBRANCH  12  14
TORSDOF 1
ENDMDL
MODEL 5
REMARK VINA RESULT:      -7.0      2.920      4.113
REMARK  Name = 
REMARK  2 active torsions:
REMARK  status: ('A' for Active; 'I' for Inactive)
REMARK    1  A    between atoms: C_1  and  C_2
REMARK    2  A    between atoms: C_12  and  C_14
REMARK                            x       y       z     vdW  Elec       q    Type
REMARK                         _______ _______ _______ _____ _____    ______ ____
ROOT
ATOM      1  C   UNL     1      -0.117  11.140  20.276  0.00  0.00    +0.000 C 
ATOM      2  C   UNL     1       0.633   9.952  19.752  0.00  0.00    +0.000 A 
ATOM      3  C   UNL     1       1.224   9.970  18.491  0.00  0.00    +0.000 A 
ATOM      4  C   UNL     1       1.980   8.879  18.042  0.00  0.00    +0.000 A 
ATOM      5  C   UNL     1       2.161   7.736  18.830  0.00  0.00    +0.000 A 
ATOM      6  C   UNL     1       1.491   7.686  20.075  0.00  0.00    +0.000 A 
ATOM      7  C   UNL     1       0.745   8.794  20.525  0.00  0.00    +0.000 A 
ATOM      8  C   UNL     1       1.525   6.466  20.959  0.00  0.00    +0.000 C 
ATOM      9  C   UNL     1       2.665   5.529  20.603  0.00  0.00    +0.000 C 
ATOM     10  C   UNL     1       2.718   5.361  19.096  0.00  0.00    +0.000 C 
ATOM     11  N   UNL     1       3.018   6.638  18.426  0.00  0.00    +0.000 N 
ATOM     12  C   UNL     1       4.115   6.844  17.574  0.00  0.00    +0.000 C 
ATOM     13  O   UNL     1       4.375   7.913  17.019  0.00  0.00    +0.000 OA
ENDROOT
BRANCH  12  14
ATOM     14  C   UNL     1       5.069   5.675  17.326  0.00  0.00    +0.000 C 
ATOM     15  C   UNL     1       4.645   4.837  16.114  0.00  0.00    +0.000 C 
ATOM     16  C   UNL     1       5.789   3.861  15.873  0.00  0.00    +0.000 C 
ATOM     17  S   UNL     1       7.270   4.825  16.125  0.00  0.00    +0.000 S 
ATOM     18  O   UNL     1       7.728   5.310  14.841  0.00  0.00    +0.000 OA
ATOM     19  O   UNL     1       8.134   4.099  17.036  0.00  0.00    +0.000 OA
ATOM     20  C   UNL     1       6.493   6.163  17.010  0.00  0.00    +0.000 C 
ENDBRANCH  12  14
TORSDOF 1
ENDMDL
MODEL 6
REMARK VINA RESULT:      -6.9      3.620      7.213
REMARK  Name = 
REMARK  2 active torsions:
REMARK  status: ('A' for Active; 'I' for Inactive)
REMARK    1  A    between atoms: C_1  and  C_2
REMARK    2  A    between atoms: C_12  and  C_14
REMARK                            x       y       z     vdW  Elec       q    Type
REMARK                         _______ _______ _______ _____ _____    ______ ____
ROOT
ATOM      1  C   UNL     1       5.401   3.876  16.337  0.00  0.00    +0.000 C 
ATOM      2  C   UNL     1       4.651   4.932  17.093  0.00  0.00    +0.000 A 
ATOM      3  C   UNL     1       4.685   6.265  16.696  0.00  0.00    +0.000 A 
ATOM      4  C   UNL     1       3.924   7.230  17.370  0.00  0.00    +0.000 A 
ATOM      5  C   UNL     1       3.116   6.896  18.464  0.00  0.00    +0.000 A 
ATOM      6  C   UNL     1       3.147   5.557  18.917  0.00  0.00    +0.000 A 
ATOM      7  C   UNL     1       3.904   4.591  18.223  0.00  0.00    +0.000 A 
ATOM      8  C   UNL     1       2.403   5.105  20.147  0.00  0.00    +0.000 C 
ATOM      9  C   UNL     1       1.314   6.081  20.552  0.00  0.00    +0.000 C 
ATOM     10  C   UNL     1       1.866   7.494  20.489  0.00  0.00    +0.000 C 
ATOM     11  N   UNL     1       2.247   7.858  19.114  0.00  0.00    +0.000 N 
ATOM     12  C   UNL     1       1.722   8.957  18.414  0.00  0.00    +0.000 C 
ATOM     13  O   UNL     1       2.031   9.260  17.260  0.00  0.00    +0.000 OA
ENDROOT
BRANCH  12  14
ATOM     14  C   UNL     1       0.684   9.833  19.115  0.00  0.00    +0.000 C 
ATOM     15  C   UNL     1       1.305  11.114  19.684  0.00  0.00    +0.000 C 
ATOM     16  C   UNL     1       0.130  11.964  20.152  0.00  0.00    +0.000 C 
ATOM     17  S   UNL     1      -1.107  11.769  18.880  0.00  0.00    +0.000 S 
ATOM     18  O   UNL     1      -0.987  12.870  17.949  0.00  0.00    +0.000 OA
ATOM     19  O   UNL     1      -2.362  11.422  19.518  0.00  0.00    +0.000 OA
ATOM     20  C   UNL     1      -0.410  10.304  18.142  0.00  0.00    +0.000 C 
ENDBRANCH  12  14
TORSDOF 1
ENDMDL
MODEL 7
REMARK VINA RESULT:      -6.8      1.299      1.356
REMARK  Name = 
REMARK  2 active torsions:
REMARK  status: ('A' for Active; 'I' for Inactive)
REMARK    1  A    between atoms: C_1  and  C_2
REMARK    2  A    between atoms: C_12  and  C_14
REMARK                            x       y       z     vdW  Elec       q    Type
REMARK                         _______ _______ _______ _____ _____    ______ ____
ROOT
ATOM      1  C   UNL     1      -1.439  11.053  23.206  0.00  0.00    +0.000 C 
ATOM      2  C   UNL     1      -0.520  10.335  22.262  0.00  0.00    +0.000 A 
ATOM      3  C   UNL     1       0.398   9.397  22.723  0.00  0.00    +0.000 A 
ATOM      4  C   UNL     1       1.203   8.684  21.824  0.00  0.00    +0.000 A 
ATOM      5  C   UNL     1       1.121   8.892  20.441  0.00  0.00    +0.000 A 
ATOM      6  C   UNL     1       0.247   9.903  19.981  0.00  0.00    +0.000 A 
ATOM      7  C   UNL     1      -0.569  10.605  20.893  0.00  0.00    +0.000 A 
ATOM      8  C   UNL     1       0.154  10.288  18.527  0.00  0.00    +0.000 C 
ATOM      9  C   UNL     1       0.726   9.221  17.612  0.00  0.00    +0.000 C 
ATOM     10  C   UNL     1       2.051   8.741  18.176  0.00  0.00    +0.000 C 
ATOM     11  N   UNL     1       1.872   8.098  19.488  0.00  0.00    +0.000 N 
ATOM     12  C   UNL     1       2.257   6.778  19.780  0.00  0.00    +0.000 C 
ATOM     13  O   UNL     1       2.100   6.233  20.873  0.00  0.00    +0.000 OA
ENDROOT
BRANCH  12  14
ATOM     14  C   UNL     1       2.898   5.948  18.668  0.00  0.00    +0.000 C 
ATOM     15  C   UNL     1       4.067   6.686  18.003  0.00  0.00    +0.000 C 
ATOM     16  C   UNL     1       4.722   5.664  17.082  0.00  0.00    +0.000 C 
ATOM     17  S   UNL     1       4.722   4.144  18.016  0.00  0.00    +0.000 S 
ATOM     18  O   UNL     1       6.001   4.012  18.682  0.00  0.00    +0.000 OA
ATOM     19  O   UNL     1       4.170   3.097  17.179  0.00  0.00    +0.000 OA
ATOM     20  C   UNL     1       3.493   4.638  19.209  0.00  0.00    +0.000 C 
ENDBRANCH  12  14
TORSDOF 1
ENDMDL
MODEL 8
REMARK VINA RESULT:      -6.4      1.007      1.089
REMARK  Name = 
REMARK  2 active torsions:
REMARK  status: ('A' for Active; 'I' for Inactive)
REMARK    1  A    between atoms: C_1  and  C_2
REMARK    2  A    between atoms: C_12  and  C_14
REMARK                            x       y       z     vdW  Elec       q    Type
REMARK                         _______ _______ _______ _____ _____    ______ ____
ROOT
ATOM      1  C   UNL     1      -1.311  11.644  21.563  0.00  0.00    +0.000 C 
ATOM      2  C   UNL     1      -0.350  10.582  21.119  0.00  0.00    +0.000 A 
ATOM      3  C   UNL     1       0.065   9.576  21.987  0.00  0.00    +0.000 A 
ATOM      4  C   UNL     1       0.909   8.550  21.539  0.00  0.00    +0.000 A 
ATOM      5  C   UNL     1       1.370   8.503  20.218  0.00  0.00    +0.000 A 
ATOM      6  C   UNL     1       1.014   9.570  19.361  0.00  0.00    +0.000 A 
ATOM      7  C   UNL     1       0.153  10.589  19.817  0.00  0.00    +0.000 A 
ATOM      8  C   UNL     1       1.538   9.681  17.952  0.00  0.00    +0.000 C 
ATOM      9  C   UNL     1       2.083   8.362  17.435  0.00  0.00    +0.000 C 
ATOM     10  C   UNL     1       2.951   7.729  18.508  0.00  0.00    +0.000 C 
ATOM     11  N   UNL     1       2.163   7.401  19.708  0.00  0.00    +0.000 N 
ATOM     12  C   UNL     1       2.055   6.110  20.253  0.00  0.00    +0.000 C 
ATOM     13  O   UNL     1       1.390   5.829  21.251  0.00  0.00    +0.000 OA
ENDROOT
BRANCH  12  14
ATOM     14  C   UNL     1       2.794   4.967  19.559  0.00  0.00    +0.000 C 
ATOM     15  C   UNL     1       3.074   3.801  20.515  0.00  0.00    +0.000 C 
ATOM     16  C   UNL     1       3.612   2.676  19.641  0.00  0.00    +0.000 C 
ATOM     17  S   UNL     1       2.602   2.721  18.170  0.00  0.00    +0.000 S 
ATOM     18  O   UNL     1       1.524   1.767  18.322  0.00  0.00    +0.000 OA
ATOM     19  O   UNL     1       3.481   2.724  17.017  0.00  0.00    +0.000 OA
ATOM     20  C   UNL     1       1.962   4.367  18.413  0.00  0.00    +0.000 C 
ENDBRANCH  12  14
TORSDOF 1
ENDMDL
MODEL 9
REMARK VINA RESULT:      -6.3      3.427      7.258
REMARK  Name = 
REMARK  2 active torsions:
REMARK  status: ('A' for Active; 'I' for Inactive)
REMARK    1  A    between atoms: C_1  and  C_2
REMARK    2  A    between atoms: C_12  and  C_14
REMARK                            x       y       z     vdW  Elec       q    Type
REMARK                         _______ _______ _______ _____ _____    ______ ____
ROOT
ATOM      1  C   UNL     1       6.622   4.027  15.640  0.00  0.00    +0.000 C 
ATOM      2  C   UNL     1       5.669   4.821  16.483  0.00  0.00    +0.000 A 
ATOM      3  C   UNL     1       5.636   6.211  16.419  0.00  0.00    +0.000 A 
ATOM      4  C   UNL     1       4.693   6.937  17.160  0.00  0.00    +0.000 A 
ATOM      5  C   UNL     1       3.764   6.300  17.992  0.00  0.00    +0.000 A 
ATOM      6  C   UNL     1       3.854   4.895  18.119  0.00  0.00    +0.000 A 
ATOM      7  C   UNL     1       4.796   4.172  17.358  0.00  0.00    +0.000 A 
ATOM      8  C   UNL     1       2.978   4.114  19.065  0.00  0.00    +0.000 C 
ATOM      9  C   UNL     1       1.753   4.899  19.495  0.00  0.00    +0.000 C 
ATOM     10  C   UNL     1       2.170   6.312  19.858  0.00  0.00    +0.000 C 
ATOM     11  N   UNL     1       2.719   7.023  18.691  0.00  0.00    +0.000 N 
ATOM     12  C   UNL     1       2.204   8.230  18.188  0.00  0.00    +0.000 C 
ATOM     13  O   UNL     1       2.654   8.823  17.206  0.00  0.00    +0.000 OA
ENDROOT
BRANCH  12  14
ATOM     14  C   UNL     1       0.993   8.847  18.886  0.00  0.00    +0.000 C 
ATOM     15  C   UNL     1       1.381   9.548  20.194  0.00  0.00    +0.000 C 
ATOM     16  C   UNL     1       0.127  10.282  20.651  0.00  0.00    +0.000 C 
ATOM     17  S   UNL     1      -0.568  10.968  19.158  0.00  0.00    +0.000 S 
ATOM     18  O   UNL     1      -0.107  12.333  19.020  0.00  0.00    +0.000 OA
ATOM     19  O   UNL     1      -1.973  10.613  19.107  0.00  0.00    +0.000 OA
ATOM     20  C   UNL     1       0.331   9.932  18.020  0.00  0.00    +0.000 C 
ENDBRANCH  12  14
TORSDOF 1
ENDMDL
