MODEL 1
REMARK VINA RESULT:      -8.1      0.000      0.000
REMARK  Name = 
REMARK  8 active torsions:
REMARK  status: ('A' for Active; 'I' for Inactive)
REMARK    1  A    between atoms: C_1  and  C_2
REMARK    2  A    between atoms: C_2  and  N_3
REMARK    3  A    between atoms: C_7  and  C_8
REMARK    4  A    between atoms: C_8  and  N_9
REMARK    5  A    between atoms: C_10  and  C_11
REMARK    6  A    between atoms: C_16  and  C_17
REMARK    7  A    between atoms: C_22  and  O_23
REMARK    8  A    between atoms: O_23  and  C_24
REMARK                            x       y       z     vdW  Elec       q    Type
REMARK                         _______ _______ _______ _____ _____    ______ ____
ROOT
ATOM      1  N   UNL     1       2.782   7.508  18.236  0.00  0.00    +0.000 N 
ATOM      2  C   UNL     1       2.531   6.541  19.231  0.00  0.00    +0.000 A 
ATOM      3  N   UNL     1       1.822   6.819  20.285  0.00  0.00    +0.000 NA
ATOM      4  C   UNL     1       1.253   8.081  20.445  0.00  0.00    +0.000 A 
ATOM      5  C   UNL     1       0.477   8.341  21.576  0.00  0.00    +0.000 A 
ATOM      6  C   UNL     1      -0.113   9.598  21.775  0.00  0.00    +0.000 A 
ATOM      7  C   UNL     1       0.041  10.602  20.818  0.00  0.00    +0.000 A 
ATOM      8  C   UNL     1       0.820  10.346  19.690  0.00  0.00    +0.000 A 
ATOM      9  C   UNL     1       1.404   9.084  19.507  0.00  0.00    +0.000 A 
ATOM     10  C   UNL     1       2.165   8.766  18.300  0.00  0.00    +0.000 A 
ATOM     11  O   UNL     1       2.192   9.597  17.395  0.00  0.00    +0.000 OA
ENDROOT
BRANCH   2  12
ATOM     12  C   UNL     1       2.995   5.103  19.090  0.00  0.00    +0.000 A 
ATOM     13  C   UNL     1       4.081   4.615  19.826  0.00  0.00    +0.000 A 
ATOM     14  C   UNL     1       4.651   3.367  19.573  0.00  0.00    +0.000 A 
ATOM     15  C   UNL     1       4.065   2.522  18.646  0.00  0.00    +0.000 A 
ATOM     16  C   UNL     1       2.890   2.915  18.011  0.00  0.00    +0.000 A 
ATOM     17  C   UNL     1       2.340   4.198  18.219  0.00  0.00    +0.000 A 
ATOM     18  C   UNL     1       1.038   4.510  17.525  0.00  0.00    +0.000 C 
ENDBRANCH   2  12
BRANCH   1  19
ATOM     19  C   UNL     1       3.570   7.295  17.006  0.00  0.00    +0.000 C 
BRANCH  19  24
ATOM     20  N   UNL     1       6.186   4.584  16.224  0.00  0.00    +0.000 NA
ATOM     21  C   UNL     1       7.399   5.420  16.252  0.00  0.00    +0.000 C 
ATOM     22  C   UNL     1       7.359   6.368  17.445  0.00  0.00    +0.000 C 
ATOM     23  C   UNL     1       6.131   7.269  17.389  0.00  0.00    +0.000 C 
ATOM     24  C   UNL     1       4.852   6.440  17.214  0.00  0.00    +0.000 C 
ATOM     25  C   UNL     1       4.993   5.428  16.057  0.00  0.00    +0.000 C 
BRANCH  20  27
ATOM     26  C   UNL     1       5.932   4.032  13.790  0.00  0.00    +0.000 C 
ATOM     27  C   UNL     1       6.321   3.551  15.185  0.00  0.00    +0.000 C 
ENDBRANCH  20  27
ENDBRANCH  19  24
ENDBRANCH   1  19
BRANCH   7  28
ATOM     28  O   UNL     1      -0.467  11.860  20.875  0.00  0.00    +0.000 OA
BRANCH  28  29
ATOM     29  C   UNL     1      -1.530  12.244  20.014  0.00  0.00    +0.000 C 
ATOM     30  F   UNL     1      -2.540  12.882  20.636  0.00  0.00    +0.000 F 
ATOM     31  F   UNL     1      -1.049  13.036  19.032  0.00  0.00    +0.000 F 
ATOM     32  F   UNL     1      -2.039  11.127  19.443  0.00  0.00    +0.000 F 
ENDBRANCH  28  29
ENDBRANCH   7  28
TORSDOF 6
ENDMDL
MODEL 2
REMARK VINA RESULT:      -7.9      4.795      8.182
REMARK  Name = 
REMARK  8 active torsions:
REMARK  status: ('A' for Active; 'I' for Inactive)
REMARK    1  A    between atoms: C_1  and  C_2
REMARK    2  A    between atoms: C_2  and  N_3
REMARK    3  A    between atoms: C_7  and  C_8
REMARK    4  A    between atoms: C_8  and  N_9
REMARK    5  A    between atoms: C_10  and  C_11
REMARK    6  A    between atoms: C_16  and  C_17
REMARK    7  A    between atoms: C_22  and  O_23
REMARK    8  A    between atoms: O_23  and  C_24
REMARK                            x       y       z     vdW  Elec       q    Type
REMARK                         _______ _______ _______ _____ _____    ______ ____
ROOT
ATOM      1  N   UNL     1       4.047   5.681  18.258  0.00  0.00    +0.000 N 
ATOM      2  C   UNL     1       3.614   4.341  18.203  0.00  0.00    +0.000 A 
ATOM      3  N   UNL     1       3.987   3.544  17.246  0.00  0.00    +0.000 NA
ATOM      4  C   UNL     1       4.865   3.985  16.257  0.00  0.00    +0.000 A 
ATOM      5  C   UNL     1       5.266   3.098  15.256  0.00  0.00    +0.000 A 
ATOM      6  C   UNL     1       6.147   3.503  14.242  0.00  0.00    +0.000 A 
ATOM      7  C   UNL     1       6.667   4.798  14.244  0.00  0.00    +0.000 A 
ATOM      8  C   UNL     1       6.263   5.687  15.240  0.00  0.00    +0.000 A 
ATOM      9  C   UNL     1       5.380   5.266  16.245  0.00  0.00    +0.000 A 
ATOM     10  C   UNL     1       4.997   6.155  17.341  0.00  0.00    +0.000 A 
ATOM     11  O   UNL     1       5.552   7.249  17.423  0.00  0.00    +0.000 OA
ENDROOT
BRANCH   2  12
ATOM     12  C   UNL     1       2.763   3.725  19.300  0.00  0.00    +0.000 A 
ATOM     13  C   UNL     1       1.385   3.965  19.369  0.00  0.00    +0.000 A 
ATOM     14  C   UNL     1       0.618   3.580  20.469  0.00  0.00    +0.000 A 
ATOM     15  C   UNL     1       1.198   2.835  21.481  0.00  0.00    +0.000 A 
ATOM     16  C   UNL     1       2.530   2.445  21.365  0.00  0.00    +0.000 A 
ATOM     17  C   UNL     1       3.327   2.878  20.284  0.00  0.00    +0.000 A 
ATOM     18  C   UNL     1       4.741   2.359  20.220  0.00  0.00    +0.000 C 
ENDBRANCH   2  12
BRANCH   1  19
ATOM     19  C   UNL     1       3.683   6.663  19.297  0.00  0.00    +0.000 C 
BRANCH  19  24
ATOM     20  N   UNL     1       0.554   8.753  20.099  0.00  0.00    +0.000 NA
ATOM     21  C   UNL     1       0.765   9.857  19.146  0.00  0.00    +0.000 C 
ATOM     22  C   UNL     1       1.206   9.310  17.793  0.00  0.00    +0.000 C 
ATOM     23  C   UNL     1       2.493   8.506  17.921  0.00  0.00    +0.000 C 
ATOM     24  C   UNL     1       2.364   7.433  19.010  0.00  0.00    +0.000 C 
ATOM     25  C   UNL     1       1.815   8.030  20.323  0.00  0.00    +0.000 C 
BRANCH  20  27
ATOM     26  C   UNL     1       0.894   9.246  22.535  0.00  0.00    +0.000 C 
ATOM     27  C   UNL     1      -0.048   9.275  21.335  0.00  0.00    +0.000 C 
ENDBRANCH  20  27
ENDBRANCH  19  24
ENDBRANCH   1  19
BRANCH   7  28
ATOM     28  O   UNL     1       7.523   5.328  13.332  0.00  0.00    +0.000 OA
BRANCH  28  29
ATOM     29  C   UNL     1       7.407   4.988  11.958  0.00  0.00    +0.000 C 
ATOM     30  F   UNL     1       6.153   4.684  11.569  0.00  0.00    +0.000 F 
ATOM     31  F   UNL     1       7.866   6.010  11.203  0.00  0.00    +0.000 F 
ATOM     32  F   UNL     1       8.185   3.907  11.721  0.00  0.00    +0.000 F 
ENDBRANCH  28  29
ENDBRANCH   7  28
TORSDOF 6
ENDMDL
MODEL 3
REMARK VINA RESULT:      -7.9      0.988      1.157
REMARK  Name = 
REMARK  8 active torsions:
REMARK  status: ('A' for Active; 'I' for Inactive)
REMARK    1  A    between atoms: C_1  and  C_2
REMARK    2  A    between atoms: C_2  and  N_3
REMARK    3  A    between atoms: C_7  and  C_8
REMARK    4  A    between atoms: C_8  and  N_9
REMARK    5  A    between atoms: C_10  and  C_11
REMARK    6  A    between atoms: C_16  and  C_17
REMARK    7  A    between atoms: C_22  and  O_23
REMARK    8  A    between atoms: O_23  and  C_24
REMARK                            x       y       z     vdW  Elec       q    Type
REMARK                         _______ _______ _______ _____ _____    ______ ____
ROOT
ATOM      1  N   UNL     1       2.771   7.613  18.215  0.00  0.00    +0.000 N 
ATOM      2  C   UNL     1       2.554   6.659  19.230  0.00  0.00    +0.000 A 
ATOM      3  N   UNL     1       1.828   6.931  20.274  0.00  0.00    +0.000 NA
ATOM      4  C   UNL     1       1.206   8.172  20.403  0.00  0.00    +0.000 A 
ATOM      5  C   UNL     1       0.413   8.425  21.523  0.00  0.00    +0.000 A 
ATOM      6  C   UNL     1      -0.229   9.661  21.690  0.00  0.00    +0.000 A 
ATOM      7  C   UNL     1      -0.111  10.648  20.711  0.00  0.00    +0.000 A 
ATOM      8  C   UNL     1       0.685  10.399  19.593  0.00  0.00    +0.000 A 
ATOM      9  C   UNL     1       1.321   9.158  19.443  0.00  0.00    +0.000 A 
ATOM     10  C   UNL     1       2.103   8.845  18.247  0.00  0.00    +0.000 A 
ATOM     11  O   UNL     1       2.101   9.656  17.323  0.00  0.00    +0.000 OA
ENDROOT
BRANCH   2  12
ATOM     12  C   UNL     1       3.078   5.238  19.124  0.00  0.00    +0.000 A 
ATOM     13  C   UNL     1       4.205   4.825  19.845  0.00  0.00    +0.000 A 
ATOM     14  C   UNL     1       4.823   3.595  19.617  0.00  0.00    +0.000 A 
ATOM     15  C   UNL     1       4.250   2.693  18.737  0.00  0.00    +0.000 A 
ATOM     16  C   UNL     1       3.042   3.012  18.123  0.00  0.00    +0.000 A 
ATOM     17  C   UNL     1       2.440   4.276  18.304  0.00  0.00    +0.000 A 
ATOM     18  C   UNL     1       1.108   4.506  17.639  0.00  0.00    +0.000 C 
ENDBRANCH   2  12
BRANCH   1  19
ATOM     19  C   UNL     1       3.575   7.405  16.995  0.00  0.00    +0.000 C 
BRANCH  19  24
ATOM     20  N   UNL     1       6.130   4.625  16.258  0.00  0.00    +0.000 NA
ATOM     21  C   UNL     1       7.359   5.439  16.247  0.00  0.00    +0.000 C 
ATOM     22  C   UNL     1       7.351   6.420  17.413  0.00  0.00    +0.000 C 
ATOM     23  C   UNL     1       6.140   7.342  17.347  0.00  0.00    +0.000 C 
ATOM     24  C   UNL     1       4.844   6.533  17.210  0.00  0.00    +0.000 C 
ATOM     25  C   UNL     1       4.951   5.486  16.081  0.00  0.00    +0.000 C 
BRANCH  20  27
ATOM     26  C   UNL     1       6.276   4.081  13.813  0.00  0.00    +0.000 C 
ATOM     27  C   UNL     1       6.233   3.561  15.247  0.00  0.00    +0.000 C 
ENDBRANCH  20  27
ENDBRANCH  19  24
ENDBRANCH   1  19
BRANCH   7  28
ATOM     28  O   UNL     1      -0.672  11.885  20.737  0.00  0.00    +0.000 OA
BRANCH  28  29
ATOM     29  C   UNL     1      -0.056  12.936  21.468  0.00  0.00    +0.000 C 
ATOM     30  F   UNL     1       1.290  12.944  21.393  0.00  0.00    +0.000 F 
ATOM     31  F   UNL     1      -0.527  14.123  21.031  0.00  0.00    +0.000 F 
ATOM     32  F   UNL     1      -0.395  12.802  22.771  0.00  0.00    +0.000 F 
ENDBRANCH  28  29
ENDBRANCH   7  28
TORSDOF 6
ENDMDL
MODEL 4
REMARK VINA RESULT:      -7.7      1.488      2.383
REMARK  Name = 
REMARK  8 active torsions:
REMARK  status: ('A' for Active; 'I' for Inactive)
REMARK    1  A    between atoms: C_1  and  C_2
REMARK    2  A    between atoms: C_2  and  N_3
REMARK    3  A    between atoms: C_7  and  C_8
REMARK    4  A    between atoms: C_8  and  N_9
REMARK    5  A    between atoms: C_10  and  C_11
REMARK    6  A    between atoms: C_16  and  C_17
REMARK    7  A    between atoms: C_22  and  O_23
REMARK    8  A    between atoms: O_23  and  C_24
REMARK                            x       y       z     vdW  Elec       q    Type
REMARK                         _______ _______ _______ _____ _____    ______ ____
ROOT
ATOM      1  N   UNL     1       3.327   6.342  18.037  0.00  0.00    +0.000 N 
ATOM      2  C   UNL     1       2.942   5.561  19.146  0.00  0.00    +0.000 A 
ATOM      3  N   UNL     1       2.255   6.067  20.127  0.00  0.00    +0.000 NA
ATOM      4  C   UNL     1       1.844   7.398  20.094  0.00  0.00    +0.000 A 
ATOM      5  C   UNL     1       1.087   7.905  21.152  0.00  0.00    +0.000 A 
ATOM      6  C   UNL     1       0.654   9.239  21.157  0.00  0.00    +0.000 A 
ATOM      7  C   UNL     1       0.946  10.073  20.077  0.00  0.00    +0.000 A 
ATOM      8  C   UNL     1       1.707   9.570  19.022  0.00  0.00    +0.000 A 
ATOM      9  C   UNL     1       2.133   8.234  19.033  0.00  0.00    +0.000 A 
ATOM     10  C   UNL     1       2.870   7.661  17.907  0.00  0.00    +0.000 A 
ATOM     11  O   UNL     1       3.014   8.348  16.898  0.00  0.00    +0.000 OA
ENDROOT
BRANCH   2  12
ATOM     12  C   UNL     1       3.227   4.072  19.218  0.00  0.00    +0.000 A 
ATOM     13  C   UNL     1       4.174   3.557  20.111  0.00  0.00    +0.000 A 
ATOM     14  C   UNL     1       4.598   2.229  20.062  0.00  0.00    +0.000 A 
ATOM     15  C   UNL     1       3.990   1.348  19.185  0.00  0.00    +0.000 A 
ATOM     16  C   UNL     1       2.934   1.793  18.393  0.00  0.00    +0.000 A 
ATOM     17  C   UNL     1       2.538   3.148  18.396  0.00  0.00    +0.000 A 
ATOM     18  C   UNL     1       1.351   3.520  17.544  0.00  0.00    +0.000 C 
ENDBRANCH   2  12
BRANCH   1  19
ATOM     19  C   UNL     1       4.103   5.866  16.875  0.00  0.00    +0.000 C 
BRANCH  19  24
ATOM     20  N   UNL     1       7.488   7.602  17.451  0.00  0.00    +0.000 NA
ATOM     21  C   UNL     1       7.962   6.807  18.598  0.00  0.00    +0.000 C 
ATOM     22  C   UNL     1       7.697   5.325  18.359  0.00  0.00    +0.000 C 
ATOM     23  C   UNL     1       6.212   5.062  18.146  0.00  0.00    +0.000 C 
ATOM     24  C   UNL     1       5.644   5.976  17.053  0.00  0.00    +0.000 C 
ATOM     25  C   UNL     1       6.035   7.450  17.295  0.00  0.00    +0.000 C 
BRANCH  20  27
ATOM     26  C   UNL     1       8.832   9.229  18.808  0.00  0.00    +0.000 C 
ATOM     27  C   UNL     1       7.917   9.000  17.608  0.00  0.00    +0.000 C 
ENDBRANCH  20  27
ENDBRANCH  19  24
ENDBRANCH   1  19
BRANCH   7  28
ATOM     28  O   UNL     1       0.596  11.379  19.945  0.00  0.00    +0.000 OA
BRANCH  28  29
ATOM     29  C   UNL     1      -0.727  11.731  19.569  0.00  0.00    +0.000 C 
ATOM     30  F   UNL     1      -1.415  10.737  18.973  0.00  0.00    +0.000 F 
ATOM     31  F   UNL     1      -1.409  12.145  20.659  0.00  0.00    +0.000 F 
ATOM     32  F   UNL     1      -0.660  12.764  18.697  0.00  0.00    +0.000 F 
ENDBRANCH  28  29
ENDBRANCH   7  28
TORSDOF 6
ENDMDL
MODEL 5
REMARK VINA RESULT:      -7.5      5.839      9.468
REMARK  Name = 
REMARK  8 active torsions:
REMARK  status: ('A' for Active; 'I' for Inactive)
REMARK    1  A    between atoms: C_1  and  C_2
REMARK    2  A    between atoms: C_2  and  N_3
REMARK    3  A    between atoms: C_7  and  C_8
REMARK    4  A    between atoms: C_8  and  N_9
REMARK    5  A    between atoms: C_10  and  C_11
REMARK    6  A    between atoms: C_16  and  C_17
REMARK    7  A    between atoms: C_22  and  O_23
REMARK    8  A    between atoms: O_23  and  C_24
REMARK                            x       y       z     vdW  Elec       q    Type
REMARK                         _______ _______ _______ _____ _____    ______ ____
ROOT
ATOM      1  N   UNL     1       5.856   5.187  16.903  0.00  0.00    +0.000 N 
ATOM      2  C   UNL     1       6.946   6.001  16.534  0.00  0.00    +0.000 A 
ATOM      3  N   UNL     1       7.509   5.895  15.367  0.00  0.00    +0.000 NA
ATOM      4  C   UNL     1       7.023   4.991  14.423  0.00  0.00    +0.000 A 
ATOM      5  C   UNL     1       7.634   4.918  13.171  0.00  0.00    +0.000 A 
ATOM      6  C   UNL     1       7.176   4.021  12.194  0.00  0.00    +0.000 A 
ATOM      7  C   UNL     1       6.071   3.210  12.454  0.00  0.00    +0.000 A 
ATOM      8  C   UNL     1       5.463   3.278  13.707  0.00  0.00    +0.000 A 
ATOM      9  C   UNL     1       5.934   4.179  14.672  0.00  0.00    +0.000 A 
ATOM     10  C   UNL     1       5.271   4.322  15.968  0.00  0.00    +0.000 A 
ATOM     11  O   UNL     1       4.221   3.710  16.153  0.00  0.00    +0.000 OA
ENDROOT
BRANCH   2  12
ATOM     12  C   UNL     1       7.467   7.105  17.437  0.00  0.00    +0.000 A 
ATOM     13  C   UNL     1       7.282   8.454  17.115  0.00  0.00    +0.000 A 
ATOM     14  C   UNL     1       7.918   9.480  17.815  0.00  0.00    +0.000 A 
ATOM     15  C   UNL     1       8.667   9.180  18.939  0.00  0.00    +0.000 A 
ATOM     16  C   UNL     1       8.740   7.860  19.378  0.00  0.00    +0.000 A 
ATOM     17  C   UNL     1       8.148   6.811  18.644  0.00  0.00    +0.000 A 
ATOM     18  C   UNL     1       8.239   5.425  19.228  0.00  0.00    +0.000 C 
ENDBRANCH   2  12
BRANCH   1  19
ATOM     19  C   UNL     1       5.149   5.228  18.198  0.00  0.00    +0.000 C 
BRANCH  19  24
ATOM     20  N   UNL     1       1.955   6.851  19.600  0.00  0.00    +0.000 NA
ATOM     21  C   UNL     1       2.111   8.200  19.026  0.00  0.00    +0.000 C 
ATOM     22  C   UNL     1       2.554   8.105  17.570  0.00  0.00    +0.000 C 
ATOM     23  C   UNL     1       3.872   7.352  17.446  0.00  0.00    +0.000 C 
ATOM     24  C   UNL     1       3.797   5.996  18.159  0.00  0.00    +0.000 C 
ATOM     25  C   UNL     1       3.244   6.145  19.592  0.00  0.00    +0.000 C 
BRANCH  20  27
ATOM     26  C   UNL     1       1.110   8.387  21.395  0.00  0.00    +0.000 C 
ATOM     27  C   UNL     1       1.350   6.951  20.938  0.00  0.00    +0.000 C 
ENDBRANCH  20  27
ENDBRANCH  19  24
ENDBRANCH   1  19
BRANCH   7  28
ATOM     28  O   UNL     1       5.519   2.299  11.610  0.00  0.00    +0.000 OA
BRANCH  28  29
ATOM     29  C   UNL     1       6.314   1.258  11.060  0.00  0.00    +0.000 C 
ATOM     30  F   UNL     1       7.593   1.257  11.486  0.00  0.00    +0.000 F 
ATOM     31  F   UNL     1       5.754   0.064  11.349  0.00  0.00    +0.000 F 
ATOM     32  F   UNL     1       6.329   1.402   9.714  0.00  0.00    +0.000 F 
ENDBRANCH  28  29
ENDBRANCH   7  28
TORSDOF 6
ENDMDL
MODEL 6
REMARK VINA RESULT:      -7.4      0.665      1.445
REMARK  Name = 
REMARK  8 active torsions:
REMARK  status: ('A' for Active; 'I' for Inactive)
REMARK    1  A    between atoms: C_1  and  C_2
REMARK    2  A    between atoms: C_2  and  N_3
REMARK    3  A    between atoms: C_7  and  C_8
REMARK    4  A    between atoms: C_8  and  N_9
REMARK    5  A    between atoms: C_10  and  C_11
REMARK    6  A    between atoms: C_16  and  C_17
REMARK    7  A    between atoms: C_22  and  O_23
REMARK    8  A    between atoms: O_23  and  C_24
REMARK                            x       y       z     vdW  Elec       q    Type
REMARK                         _______ _______ _______ _____ _____    ______ ____
ROOT
ATOM      1  N   UNL     1       2.673   7.342  18.256  0.00  0.00    +0.000 N 
ATOM      2  C   UNL     1       2.325   6.325  19.168  0.00  0.00    +0.000 A 
ATOM      3  N   UNL     1       1.685   6.589  20.268  0.00  0.00    +0.000 NA
ATOM      4  C   UNL     1       1.287   7.892  20.563  0.00  0.00    +0.000 A 
ATOM      5  C   UNL     1       0.579   8.139  21.741  0.00  0.00    +0.000 A 
ATOM      6  C   UNL     1       0.162   9.436  22.075  0.00  0.00    +0.000 A 
ATOM      7  C   UNL     1       0.420  10.498  21.207  0.00  0.00    +0.000 A 
ATOM      8  C   UNL     1       1.131  10.254  20.033  0.00  0.00    +0.000 A 
ATOM      9  C   UNL     1       1.542   8.952  19.715  0.00  0.00    +0.000 A 
ATOM     10  C   UNL     1       2.226   8.656  18.457  0.00  0.00    +0.000 A 
ATOM     11  O   UNL     1       2.337   9.559  17.630  0.00  0.00    +0.000 OA
ENDROOT
BRANCH   2  12
ATOM     12  C   UNL     1       2.596   4.859  18.879  0.00  0.00    +0.000 A 
ATOM     13  C   UNL     1       1.665   4.071  18.193  0.00  0.00    +0.000 A 
ATOM     14  C   UNL     1       1.796   2.686  18.090  0.00  0.00    +0.000 A 
ATOM     15  C   UNL     1       2.936   2.068  18.575  0.00  0.00    +0.000 A 
ATOM     16  C   UNL     1       3.954   2.845  19.121  0.00  0.00    +0.000 A 
ATOM     17  C   UNL     1       3.804   4.239  19.282  0.00  0.00    +0.000 A 
ATOM     18  C   UNL     1       4.982   4.999  19.835  0.00  0.00    +0.000 C 
ENDBRANCH   2  12
BRANCH   1  19
ATOM     19  C   UNL     1       3.397   7.150  16.984  0.00  0.00    +0.000 C 
BRANCH  19  24
ATOM     20  N   UNL     1       6.143   4.594  16.128  0.00  0.00    +0.000 NA
ATOM     21  C   UNL     1       7.289   5.515  16.022  0.00  0.00    +0.000 C 
ATOM     22  C   UNL     1       7.266   6.519  17.169  0.00  0.00    +0.000 C 
ATOM     23  C   UNL     1       5.974   7.325  17.166  0.00  0.00    +0.000 C 
ATOM     24  C   UNL     1       4.751   6.400  17.130  0.00  0.00    +0.000 C 
ATOM     25  C   UNL     1       4.881   5.341  16.015  0.00  0.00    +0.000 C 
BRANCH  20  27
ATOM     26  C   UNL     1       6.305   4.023  13.691  0.00  0.00    +0.000 C 
ATOM     27  C   UNL     1       6.278   3.520  15.132  0.00  0.00    +0.000 C 
ENDBRANCH  20  27
ENDBRANCH  19  24
ENDBRANCH   1  19
BRANCH   7  28
ATOM     28  O   UNL     1       0.079  11.799  21.397  0.00  0.00    +0.000 OA
BRANCH  28  29
ATOM     29  C   UNL     1      -1.221  12.258  21.055  0.00  0.00    +0.000 C 
ATOM     30  F   UNL     1      -1.250  13.508  20.553  0.00  0.00    +0.000 F 
ATOM     31  F   UNL     1      -1.774  11.412  20.159  0.00  0.00    +0.000 F 
ATOM     32  F   UNL     1      -1.984  12.245  22.172  0.00  0.00    +0.000 F 
ENDBRANCH  28  29
ENDBRANCH   7  28
TORSDOF 6
ENDMDL
MODEL 7
REMARK VINA RESULT:      -7.4      4.225      8.584
REMARK  Name = 
REMARK  8 active torsions:
REMARK  status: ('A' for Active; 'I' for Inactive)
REMARK    1  A    between atoms: C_1  and  C_2
REMARK    2  A    between atoms: C_2  and  N_3
REMARK    3  A    between atoms: C_7  and  C_8
REMARK    4  A    between atoms: C_8  and  N_9
REMARK    5  A    between atoms: C_10  and  C_11
REMARK    6  A    between atoms: C_16  and  C_17
REMARK    7  A    between atoms: C_22  and  O_23
REMARK    8  A    between atoms: O_23  and  C_24
REMARK                            x       y       z     vdW  Elec       q    Type
REMARK                         _______ _______ _______ _____ _____    ______ ____
ROOT
ATOM      1  N   UNL     1       0.578  11.218  19.055  0.00  0.00    +0.000 N 
ATOM      2  C   UNL     1      -0.051  10.959  20.289  0.00  0.00    +0.000 A 
ATOM      3  N   UNL     1       0.078   9.813  20.891  0.00  0.00    +0.000 NA
ATOM      4  C   UNL     1       0.879   8.811  20.346  0.00  0.00    +0.000 A 
ATOM      5  C   UNL     1       1.016   7.601  21.027  0.00  0.00    +0.000 A 
ATOM      6  C   UNL     1       1.812   6.567  20.512  0.00  0.00    +0.000 A 
ATOM      7  C   UNL     1       2.512   6.752  19.319  0.00  0.00    +0.000 A 
ATOM      8  C   UNL     1       2.372   7.959  18.634  0.00  0.00    +0.000 A 
ATOM      9  C   UNL     1       1.571   8.981  19.163  0.00  0.00    +0.000 A 
ATOM     10  C   UNL     1       1.464  10.281  18.502  0.00  0.00    +0.000 A 
ATOM     11  O   UNL     1       2.180  10.497  17.526  0.00  0.00    +0.000 OA
ENDROOT
BRANCH   2  12
ATOM     12  C   UNL     1      -0.837  12.025  21.030  0.00  0.00    +0.000 A 
ATOM     13  C   UNL     1      -0.299  12.682  22.143  0.00  0.00    +0.000 A 
ATOM     14  C   UNL     1      -1.067  13.515  22.958  0.00  0.00    +0.000 A 
ATOM     15  C   UNL     1      -2.373  13.805  22.603  0.00  0.00    +0.000 A 
ATOM     16  C   UNL     1      -2.888  13.293  21.415  0.00  0.00    +0.000 A 
ATOM     17  C   UNL     1      -2.138  12.404  20.616  0.00  0.00    +0.000 A 
ATOM     18  C   UNL     1      -2.763  11.946  19.323  0.00  0.00    +0.000 C 
ENDBRANCH   2  12
BRANCH   1  19
ATOM     19  C   UNL     1       0.497  12.479  18.293  0.00  0.00    +0.000 C 
BRANCH  19  24
ATOM     20  N   UNL     1       3.243  15.119  18.832  0.00  0.00    +0.000 NA
ATOM     21  C   UNL     1       2.402  16.330  18.832  0.00  0.00    +0.000 C 
ATOM     22  C   UNL     1       1.147  16.099  19.665  0.00  0.00    +0.000 C 
ATOM     23  C   UNL     1       0.338  14.927  19.125  0.00  0.00    +0.000 C 
ATOM     24  C   UNL     1       1.217  13.679  18.972  0.00  0.00    +0.000 C 
ATOM     25  C   UNL     1       2.520  14.000  18.211  0.00  0.00    +0.000 C 
BRANCH  20  27
ATOM     26  C   UNL     1       5.227  16.653  18.743  0.00  0.00    +0.000 C 
ATOM     27  C   UNL     1       4.532  15.413  18.186  0.00  0.00    +0.000 C 
ENDBRANCH  20  27
ENDBRANCH  19  24
ENDBRANCH   1  19
BRANCH   7  28
ATOM     28  O   UNL     1       3.315   5.846  18.703  0.00  0.00    +0.000 OA
BRANCH  28  29
ATOM     29  C   UNL     1       2.752   4.721  18.044  0.00  0.00    +0.000 C 
ATOM     30  F   UNL     1       1.510   4.927  17.563  0.00  0.00    +0.000 F 
ATOM     31  F   UNL     1       3.559   4.344  17.029  0.00  0.00    +0.000 F 
ATOM     32  F   UNL     1       2.686   3.699  18.929  0.00  0.00    +0.000 F 
ENDBRANCH  28  29
ENDBRANCH   7  28
TORSDOF 6
ENDMDL
MODEL 8
REMARK VINA RESULT:      -7.3      1.763      2.546
REMARK  Name = 
REMARK  8 active torsions:
REMARK  status: ('A' for Active; 'I' for Inactive)
REMARK    1  A    between atoms: C_1  and  C_2
REMARK    2  A    between atoms: C_2  and  N_3
REMARK    3  A    between atoms: C_7  and  C_8
REMARK    4  A    between atoms: C_8  and  N_9
REMARK    5  A    between atoms: C_10  and  C_11
REMARK    6  A    between atoms: C_16  and  C_17
REMARK    7  A    between atoms: C_22  and  O_23
REMARK    8  A    between atoms: O_23  and  C_24
REMARK                            x       y       z     vdW  Elec       q    Type
REMARK                         _______ _______ _______ _____ _____    ______ ____
ROOT
ATOM      1  N   UNL     1       3.304   6.391  18.001  0.00  0.00    +0.000 N 
ATOM      2  C   UNL     1       2.910   5.645  19.130  0.00  0.00    +0.000 A 
ATOM      3  N   UNL     1       2.215   6.180  20.089  0.00  0.00    +0.000 NA
ATOM      4  C   UNL     1       1.805   7.510  20.013  0.00  0.00    +0.000 A 
ATOM      5  C   UNL     1       1.040   8.049  21.048  0.00  0.00    +0.000 A 
ATOM      6  C   UNL     1       0.608   9.384  21.010  0.00  0.00    +0.000 A 
ATOM      7  C   UNL     1       0.911  10.184  19.907  0.00  0.00    +0.000 A 
ATOM      8  C   UNL     1       1.679   9.648  18.874  0.00  0.00    +0.000 A 
ATOM      9  C   UNL     1       2.104   8.313  18.930  0.00  0.00    +0.000 A 
ATOM     10  C   UNL     1       2.849   7.706  17.828  0.00  0.00    +0.000 A 
ATOM     11  O   UNL     1       3.003   8.362  16.799  0.00  0.00    +0.000 OA
ENDROOT
BRANCH   2  12
ATOM     12  C   UNL     1       3.193   4.158  19.250  0.00  0.00    +0.000 A 
ATOM     13  C   UNL     1       4.155   3.673  20.143  0.00  0.00    +0.000 A 
ATOM     14  C   UNL     1       4.575   2.342  20.133  0.00  0.00    +0.000 A 
ATOM     15  C   UNL     1       3.948   1.433  19.299  0.00  0.00    +0.000 A 
ATOM     16  C   UNL     1       2.879   1.852  18.512  0.00  0.00    +0.000 A 
ATOM     17  C   UNL     1       2.486   3.207  18.474  0.00  0.00    +0.000 A 
ATOM     18  C   UNL     1       1.285   3.552  17.632  0.00  0.00    +0.000 C 
ENDBRANCH   2  12
BRANCH   1  19
ATOM     19  C   UNL     1       4.090   5.880  16.861  0.00  0.00    +0.000 C 
BRANCH  19  24
ATOM     20  N   UNL     1       7.474   7.612  17.454  0.00  0.00    +0.000 NA
ATOM     21  C   UNL     1       7.936   6.824  18.610  0.00  0.00    +0.000 C 
ATOM     22  C   UNL     1       7.670   5.341  18.378  0.00  0.00    +0.000 C 
ATOM     23  C   UNL     1       6.186   5.079  18.154  0.00  0.00    +0.000 C 
ATOM     24  C   UNL     1       5.629   5.988  17.051  0.00  0.00    +0.000 C 
ATOM     25  C   UNL     1       6.021   7.462  17.287  0.00  0.00    +0.000 C 
BRANCH  20  27
ATOM     26  C   UNL     1       8.837   9.239  18.791  0.00  0.00    +0.000 C 
ATOM     27  C   UNL     1       7.904   9.011  17.605  0.00  0.00    +0.000 C 
ENDBRANCH  20  27
ENDBRANCH  19  24
ENDBRANCH   1  19
BRANCH   7  28
ATOM     28  O   UNL     1       0.563  11.485  19.732  0.00  0.00    +0.000 OA
BRANCH  28  29
ATOM     29  C   UNL     1       0.906  12.457  20.710  0.00  0.00    +0.000 C 
ATOM     30  F   UNL     1       0.221  12.344  21.864  0.00  0.00    +0.000 F 
ATOM     31  F   UNL     1       2.228  12.380  20.975  0.00  0.00    +0.000 F 
ATOM     32  F   UNL     1       0.651  13.683  20.198  0.00  0.00    +0.000 F 
ENDBRANCH  28  29
ENDBRANCH   7  28
TORSDOF 6
ENDMDL
MODEL 9
REMARK VINA RESULT:      -7.3      4.779      8.084
REMARK  Name = 
REMARK  8 active torsions:
REMARK  status: ('A' for Active; 'I' for Inactive)
REMARK    1  A    between atoms: C_1  and  C_2
REMARK    2  A    between atoms: C_2  and  N_3
REMARK    3  A    between atoms: C_7  and  C_8
REMARK    4  A    between atoms: C_8  and  N_9
REMARK    5  A    between atoms: C_10  and  C_11
REMARK    6  A    between atoms: C_16  and  C_17
REMARK    7  A    between atoms: C_22  and  O_23
REMARK    8  A    between atoms: O_23  and  C_24
REMARK                            x       y       z     vdW  Elec       q    Type
REMARK                         _______ _______ _______ _____ _____    ______ ____
ROOT
ATOM      1  N   UNL     1       4.065   5.835  18.269  0.00  0.00    +0.000 N 
ATOM      2  C   UNL     1       3.632   4.494  18.261  0.00  0.00    +0.000 A 
ATOM      3  N   UNL     1       4.012   3.663  17.336  0.00  0.00    +0.000 NA
ATOM      4  C   UNL     1       4.896   4.067  16.337  0.00  0.00    +0.000 A 
ATOM      5  C   UNL     1       5.305   3.145  15.373  0.00  0.00    +0.000 A 
ATOM      6  C   UNL     1       6.193   3.512  14.351  0.00  0.00    +0.000 A 
ATOM      7  C   UNL     1       6.712   4.807  14.308  0.00  0.00    +0.000 A 
ATOM      8  C   UNL     1       6.301   5.731  15.268  0.00  0.00    +0.000 A 
ATOM      9  C   UNL     1       5.411   5.347  16.282  0.00  0.00    +0.000 A 
ATOM     10  C   UNL     1       5.020   6.276  17.342  0.00  0.00    +0.000 A 
ATOM     11  O   UNL     1       5.575   7.372  17.387  0.00  0.00    +0.000 OA
ENDROOT
BRANCH   2  12
ATOM     12  C   UNL     1       2.774   3.919  19.373  0.00  0.00    +0.000 A 
ATOM     13  C   UNL     1       3.277   3.762  20.670  0.00  0.00    +0.000 A 
ATOM     14  C   UNL     1       2.584   3.058  21.656  0.00  0.00    +0.000 A 
ATOM     15  C   UNL     1       1.307   2.593  21.396  0.00  0.00    +0.000 A 
ATOM     16  C   UNL     1       0.716   2.872  20.167  0.00  0.00    +0.000 A 
ATOM     17  C   UNL     1       1.430   3.533  19.144  0.00  0.00    +0.000 A 
ATOM     18  C   UNL     1       0.686   3.835  17.869  0.00  0.00    +0.000 C 
ENDBRANCH   2  12
BRANCH   1  19
ATOM     19  C   UNL     1       3.694   6.855  19.269  0.00  0.00    +0.000 C 
BRANCH  19  24
ATOM     20  N   UNL     1       0.497   8.842  20.067  0.00  0.00    +0.000 NA
ATOM     21  C   UNL     1       0.643   9.921  19.073  0.00  0.00    +0.000 C 
ATOM     22  C   UNL     1       1.078   9.345  17.731  0.00  0.00    +0.000 C 
ATOM     23  C   UNL     1       2.400   8.599  17.857  0.00  0.00    +0.000 C 
ATOM     24  C   UNL     1       2.338   7.560  18.985  0.00  0.00    +0.000 C 
ATOM     25  C   UNL     1       1.791   8.180  20.288  0.00  0.00    +0.000 C 
BRANCH  20  27
ATOM     26  C   UNL     1       0.785   9.222  22.531  0.00  0.00    +0.000 C 
ATOM     27  C   UNL     1      -0.101   9.382  21.298  0.00  0.00    +0.000 C 
ENDBRANCH  20  27
ENDBRANCH  19  24
ENDBRANCH   1  19
BRANCH   7  28
ATOM     28  O   UNL     1       7.574   5.303  13.384  0.00  0.00    +0.000 OA
BRANCH  28  29
ATOM     29  C   UNL     1       7.414   4.982  12.009  0.00  0.00    +0.000 C 
ATOM     30  F   UNL     1       6.150   4.675  11.658  0.00  0.00    +0.000 F 
ATOM     31  F   UNL     1       7.841   6.017  11.254  0.00  0.00    +0.000 F 
ATOM     32  F   UNL     1       8.190   3.909  11.730  0.00  0.00    +0.000 F 
ENDBRANCH  28  29
ENDBRANCH   7  28
TORSDOF 6
ENDMDL
