MODEL 1
REMARK VINA RESULT:      -7.2      0.000      0.000
REMARK  Name = 
REMARK  4 active torsions:
REMARK  status: ('A' for Active; 'I' for Inactive)
REMARK    1  A    between atoms: C_1  and  C_2
REMARK    2  A    between atoms: N_4  and  C_5
REMARK    3  A    between atoms: C_8  and  C_9
REMARK    4  A    between atoms: C_9  and  O_10
REMARK                            x       y       z     vdW  Elec       q    Type
REMARK                         _______ _______ _______ _____ _____    ______ ____
ROOT
ATOM      1  C   UNL     1       5.538   4.346  14.571  0.00  0.00    +0.000 C 
ATOM      2  C   UNL     1       5.644   4.487  16.067  0.00  0.00    +0.000 A 
ATOM      3  C   UNL     1       4.497   4.617  16.857  0.00  0.00    +0.000 A 
ATOM      4  N   UNL     1       4.558   4.753  18.226  0.00  0.00    +0.000 N 
ATOM      5  C   UNL     1       5.817   4.688  18.824  0.00  0.00    +0.000 A 
ATOM      6  O   UNL     1       5.945   4.721  20.032  0.00  0.00    +0.000 OA
ATOM      7  N   UNL     1       6.950   4.575  18.057  0.00  0.00    +0.000 N 
ATOM      8  C   UNL     1       6.885   4.480  16.698  0.00  0.00    +0.000 A 
ATOM      9  O   UNL     1       7.913   4.373  16.049  0.00  0.00    +0.000 OA
ATOM     10  H   UNL     1       7.886   4.545  18.526  0.00  0.00    +0.000 HD
ENDROOT
BRANCH   4  11
ATOM     11  C   UNL     1       3.279   4.851  19.007  0.00  0.00    +0.000 C 
ATOM     12  C   UNL     1       1.944   4.754  18.206  0.00  0.00    +0.000 C 
ATOM     13  C   UNL     1       1.329   3.342  18.226  0.00  0.00    +0.000 C 
ATOM     14  C   UNL     1       2.287   2.361  18.874  0.00  0.00    +0.000 C 
ATOM     15 SE   UNL     1       3.087   3.390  20.327  0.00  0.00    +0.000 Se
BRANCH  14  16
ATOM     16  C   UNL     1       3.307   1.787  17.873  0.00  0.00    +0.000 C 
BRANCH  16  17
ATOM     17  O   UNL     1       3.992   0.701  18.434  0.00  0.00    +0.000 OA
ATOM     18  H   UNL     1       4.816   0.575  17.895  0.00  0.00    +0.000 HD
ENDBRANCH  16  17
ENDBRANCH  14  16
ENDBRANCH   4  11
TORSDOF 3
ENDMDL
MODEL 2
REMARK VINA RESULT:      -6.8      1.884      2.248
REMARK  Name = 
REMARK  4 active torsions:
REMARK  status: ('A' for Active; 'I' for Inactive)
REMARK    1  A    between atoms: C_1  and  C_2
REMARK    2  A    between atoms: N_4  and  C_5
REMARK    3  A    between atoms: C_8  and  C_9
REMARK    4  A    between atoms: C_9  and  O_10
REMARK                            x       y       z     vdW  Elec       q    Type
REMARK                         _______ _______ _______ _____ _____    ______ ____
ROOT
ATOM      1  C   UNL     1       5.827   3.791  15.599  0.00  0.00    +0.000 C 
ATOM      2  C   UNL     1       4.971   4.717  16.423  0.00  0.00    +0.000 A 
ATOM      3  C   UNL     1       3.835   4.241  17.085  0.00  0.00    +0.000 A 
ATOM      4  N   UNL     1       3.028   5.061  17.842  0.00  0.00    +0.000 N 
ATOM      5  C   UNL     1       3.418   6.392  17.988  0.00  0.00    +0.000 A 
ATOM      6  O   UNL     1       2.801   7.157  18.703  0.00  0.00    +0.000 OA
ATOM      7  N   UNL     1       4.523   6.873  17.330  0.00  0.00    +0.000 N 
ATOM      8  C   UNL     1       5.297   6.065  16.551  0.00  0.00    +0.000 A 
ATOM      9  O   UNL     1       6.276   6.524  15.987  0.00  0.00    +0.000 OA
ATOM     10  H   UNL     1       4.787   7.880  17.441  0.00  0.00    +0.000 HD
ENDROOT
BRANCH   4  11
ATOM     11  C   UNL     1       1.846   4.466  18.554  0.00  0.00    +0.000 C 
ATOM     12  C   UNL     1       1.500   2.977  18.242  0.00  0.00    +0.000 C 
ATOM     13  C   UNL     1       2.063   1.995  19.288  0.00  0.00    +0.000 C 
ATOM     14  C   UNL     1       2.969   2.725  20.259  0.00  0.00    +0.000 C 
ATOM     15 SE   UNL     1       2.081   4.443  20.518  0.00  0.00    +0.000 Se
BRANCH  14  16
ATOM     16  C   UNL     1       4.416   2.836  19.743  0.00  0.00    +0.000 C 
BRANCH  16  17
ATOM     17  O   UNL     1       5.135   1.668  20.029  0.00  0.00    +0.000 OA
ATOM     18  H   UNL     1       5.345   1.693  20.998  0.00  0.00    +0.000 HD
ENDBRANCH  16  17
ENDBRANCH  14  16
ENDBRANCH   4  11
TORSDOF 3
ENDMDL
MODEL 3
REMARK VINA RESULT:      -6.8      1.501      2.264
REMARK  Name = 
REMARK  4 active torsions:
REMARK  status: ('A' for Active; 'I' for Inactive)
REMARK    1  A    between atoms: C_1  and  C_2
REMARK    2  A    between atoms: N_4  and  C_5
REMARK    3  A    between atoms: C_8  and  C_9
REMARK    4  A    between atoms: C_9  and  O_10
REMARK                            x       y       z     vdW  Elec       q    Type
REMARK                         _______ _______ _______ _____ _____    ______ ____
ROOT
ATOM      1  C   UNL     1       7.830   5.835  19.467  0.00  0.00    +0.000 C 
ATOM      2  C   UNL     1       6.727   5.239  18.631  0.00  0.00    +0.000 A 
ATOM      3  C   UNL     1       5.385   5.459  18.956  0.00  0.00    +0.000 A 
ATOM      4  N   UNL     1       4.352   4.926  18.217  0.00  0.00    +0.000 N 
ATOM      5  C   UNL     1       4.687   4.200  17.073  0.00  0.00    +0.000 A 
ATOM      6  O   UNL     1       3.832   3.765  16.328  0.00  0.00    +0.000 OA
ATOM      7  N   UNL     1       6.001   3.965  16.754  0.00  0.00    +0.000 N 
ATOM      8  C   UNL     1       7.020   4.464  17.512  0.00  0.00    +0.000 A 
ATOM      9  O   UNL     1       8.176   4.242  17.194  0.00  0.00    +0.000 OA
ATOM     10  H   UNL     1       6.229   3.403  15.900  0.00  0.00    +0.000 HD
ENDROOT
BRANCH   4  11
ATOM     11  C   UNL     1       2.937   5.239  18.608  0.00  0.00    +0.000 C 
ATOM     12  C   UNL     1       1.800   4.536  17.803  0.00  0.00    +0.000 C 
ATOM     13  C   UNL     1       1.248   3.282  18.507  0.00  0.00    +0.000 C 
ATOM     14  C   UNL     1       2.088   2.952  19.727  0.00  0.00    +0.000 C 
ATOM     15 SE   UNL     1       2.531   4.703  20.468  0.00  0.00    +0.000 Se
BRANCH  14  16
ATOM     16  C   UNL     1       3.314   2.087  19.380  0.00  0.00    +0.000 C 
BRANCH  16  17
ATOM     17  O   UNL     1       3.081   1.344  18.215  0.00  0.00    +0.000 OA
ATOM     18  H   UNL     1       3.096   0.388  18.479  0.00  0.00    +0.000 HD
ENDBRANCH  16  17
ENDBRANCH  14  16
ENDBRANCH   4  11
TORSDOF 3
ENDMDL
MODEL 4
REMARK VINA RESULT:      -6.4      1.912      2.337
REMARK  Name = 
REMARK  4 active torsions:
REMARK  status: ('A' for Active; 'I' for Inactive)
REMARK    1  A    between atoms: C_1  and  C_2
REMARK    2  A    between atoms: N_4  and  C_5
REMARK    3  A    between atoms: C_8  and  C_9
REMARK    4  A    between atoms: C_9  and  O_10
REMARK                            x       y       z     vdW  Elec       q    Type
REMARK                         _______ _______ _______ _____ _____    ______ ____
ROOT
ATOM      1  C   UNL     1       7.440   7.065  17.590  0.00  0.00    +0.000 C 
ATOM      2  C   UNL     1       6.420   5.968  17.432  0.00  0.00    +0.000 A 
ATOM      3  C   UNL     1       5.070   6.200  17.716  0.00  0.00    +0.000 A 
ATOM      4  N   UNL     1       4.112   5.218  17.588  0.00  0.00    +0.000 N 
ATOM      5  C   UNL     1       4.522   3.981  17.092  0.00  0.00    +0.000 A 
ATOM      6  O   UNL     1       3.723   3.090  16.877  0.00  0.00    +0.000 OA
ATOM      7  N   UNL     1       5.846   3.737  16.825  0.00  0.00    +0.000 N 
ATOM      8  C   UNL     1       6.796   4.703  16.991  0.00  0.00    +0.000 A 
ATOM      9  O   UNL     1       7.963   4.454  16.736  0.00  0.00    +0.000 OA
ATOM     10  H   UNL     1       6.134   2.795  16.470  0.00  0.00    +0.000 HD
ENDROOT
BRANCH   4  11
ATOM     11  C   UNL     1       2.678   5.556  17.876  0.00  0.00    +0.000 C 
ATOM     12  C   UNL     1       1.635   4.401  17.768  0.00  0.00    +0.000 C 
ATOM     13  C   UNL     1       1.296   3.763  19.129  0.00  0.00    +0.000 C 
ATOM     14  C   UNL     1       2.210   4.312  20.207  0.00  0.00    +0.000 C 
ATOM     15 SE   UNL     1       2.410   6.194  19.730  0.00  0.00    +0.000 Se
BRANCH  14  16
ATOM     16  C   UNL     1       3.541   3.541  20.298  0.00  0.00    +0.000 C 
BRANCH  16  17
ATOM     17  O   UNL     1       3.392   2.237  19.807  0.00  0.00    +0.000 OA
ATOM     18  H   UNL     1       3.461   1.629  20.587  0.00  0.00    +0.000 HD
ENDBRANCH  16  17
ENDBRANCH  14  16
ENDBRANCH   4  11
TORSDOF 3
ENDMDL
MODEL 5
REMARK VINA RESULT:      -6.3      2.203      3.496
REMARK  Name = 
REMARK  4 active torsions:
REMARK  status: ('A' for Active; 'I' for Inactive)
REMARK    1  A    between atoms: C_1  and  C_2
REMARK    2  A    between atoms: N_4  and  C_5
REMARK    3  A    between atoms: C_8  and  C_9
REMARK    4  A    between atoms: C_9  and  O_10
REMARK                            x       y       z     vdW  Elec       q    Type
REMARK                         _______ _______ _______ _____ _____    ______ ____
ROOT
ATOM      1  C   UNL     1       6.767   5.490  19.195  0.00  0.00    +0.000 C 
ATOM      2  C   UNL     1       5.619   4.793  18.514  0.00  0.00    +0.000 A 
ATOM      3  C   UNL     1       4.810   3.893  19.216  0.00  0.00    +0.000 A 
ATOM      4  N   UNL     1       3.756   3.235  18.623  0.00  0.00    +0.000 N 
ATOM      5  C   UNL     1       3.468   3.546  17.294  0.00  0.00    +0.000 A 
ATOM      6  O   UNL     1       2.507   3.066  16.726  0.00  0.00    +0.000 OA
ATOM      7  N   UNL     1       4.264   4.416  16.591  0.00  0.00    +0.000 N 
ATOM      8  C   UNL     1       5.330   5.036  17.174  0.00  0.00    +0.000 A 
ATOM      9  O   UNL     1       6.011   5.810  16.521  0.00  0.00    +0.000 OA
ATOM     10  H   UNL     1       4.039   4.622  15.590  0.00  0.00    +0.000 HD
ENDROOT
BRANCH   4  11
ATOM     11  C   UNL     1       2.912   2.312  19.454  0.00  0.00    +0.000 C 
ATOM     12  C   UNL     1       3.019   2.448  21.005  0.00  0.00    +0.000 C 
ATOM     13  C   UNL     1       1.895   3.307  21.615  0.00  0.00    +0.000 C 
ATOM     14  C   UNL     1       1.073   3.952  20.517  0.00  0.00    +0.000 C 
ATOM     15 SE   UNL     1       0.976   2.572  19.141  0.00  0.00    +0.000 Se
BRANCH  14  16
ATOM     16  C   UNL     1       1.679   5.282  20.032  0.00  0.00    +0.000 C 
BRANCH  16  17
ATOM     17  O   UNL     1       2.311   5.952  21.089  0.00  0.00    +0.000 OA
ATOM     18  H   UNL     1       2.448   6.888  20.791  0.00  0.00    +0.000 HD
ENDBRANCH  16  17
ENDBRANCH  14  16
ENDBRANCH   4  11
TORSDOF 3
ENDMDL
MODEL 6
REMARK VINA RESULT:      -6.2      1.617      1.887
REMARK  Name = 
REMARK  4 active torsions:
REMARK  status: ('A' for Active; 'I' for Inactive)
REMARK    1  A    between atoms: C_1  and  C_2
REMARK    2  A    between atoms: N_4  and  C_5
REMARK    3  A    between atoms: C_8  and  C_9
REMARK    4  A    between atoms: C_9  and  O_10
REMARK                            x       y       z     vdW  Elec       q    Type
REMARK                         _______ _______ _______ _____ _____    ______ ____
ROOT
ATOM      1  C   UNL     1       4.659   6.829  16.660  0.00  0.00    +0.000 C 
ATOM      2  C   UNL     1       4.796   5.692  17.639  0.00  0.00    +0.000 A 
ATOM      3  C   UNL     1       3.897   5.550  18.701  0.00  0.00    +0.000 A 
ATOM      4  N   UNL     1       3.996   4.526  19.617  0.00  0.00    +0.000 N 
ATOM      5  C   UNL     1       4.997   3.576  19.414  0.00  0.00    +0.000 A 
ATOM      6  O   UNL     1       5.099   2.602  20.133  0.00  0.00    +0.000 OA
ATOM      7  N   UNL     1       5.894   3.714  18.384  0.00  0.00    +0.000 N 
ATOM      8  C   UNL     1       5.814   4.752  17.503  0.00  0.00    +0.000 A 
ATOM      9  O   UNL     1       6.623   4.839  16.593  0.00  0.00    +0.000 OA
ATOM     10  H   UNL     1       6.648   2.998  18.261  0.00  0.00    +0.000 HD
ENDROOT
BRANCH   4  11
ATOM     11  C   UNL     1       2.970   4.421  20.707  0.00  0.00    +0.000 C 
ATOM     12  C   UNL     1       1.548   4.991  20.409  0.00  0.00    +0.000 C 
ATOM     13  C   UNL     1       0.544   3.910  19.967  0.00  0.00    +0.000 C 
ATOM     14  C   UNL     1       1.254   2.586  19.761  0.00  0.00    +0.000 C 
ATOM     15 SE   UNL     1       2.577   2.544  21.196  0.00  0.00    +0.000 Se
BRANCH  14  16
ATOM     16  C   UNL     1       1.854   2.454  18.349  0.00  0.00    +0.000 C 
BRANCH  16  17
ATOM     17  O   UNL     1       2.772   1.396  18.299  0.00  0.00    +0.000 OA
ATOM     18  H   UNL     1       3.074   1.326  17.357  0.00  0.00    +0.000 HD
ENDBRANCH  16  17
ENDBRANCH  14  16
ENDBRANCH   4  11
TORSDOF 3
ENDMDL
MODEL 7
REMARK VINA RESULT:      -6.2      1.688      2.422
REMARK  Name = 
REMARK  4 active torsions:
REMARK  status: ('A' for Active; 'I' for Inactive)
REMARK    1  A    between atoms: C_1  and  C_2
REMARK    2  A    between atoms: N_4  and  C_5
REMARK    3  A    between atoms: C_8  and  C_9
REMARK    4  A    between atoms: C_9  and  O_10
REMARK                            x       y       z     vdW  Elec       q    Type
REMARK                         _______ _______ _______ _____ _____    ______ ____
ROOT
ATOM      1  C   UNL     1       5.973   4.512  14.333  0.00  0.00    +0.000 C 
ATOM      2  C   UNL     1       5.884   4.567  15.836  0.00  0.00    +0.000 A 
ATOM      3  C   UNL     1       4.983   3.752  16.529  0.00  0.00    +0.000 A 
ATOM      4  N   UNL     1       4.872   3.781  17.902  0.00  0.00    +0.000 N 
ATOM      5  C   UNL     1       5.747   4.611  18.601  0.00  0.00    +0.000 A 
ATOM      6  O   UNL     1       5.763   4.632  19.816  0.00  0.00    +0.000 OA
ATOM      7  N   UNL     1       6.625   5.426  17.931  0.00  0.00    +0.000 N 
ATOM      8  C   UNL     1       6.703   5.421  16.569  0.00  0.00    +0.000 A 
ATOM      9  O   UNL     1       7.501   6.153  16.005  0.00  0.00    +0.000 OA
ATOM     10  H   UNL     1       7.261   6.054  18.476  0.00  0.00    +0.000 HD
ENDROOT
BRANCH   4  11
ATOM     11  C   UNL     1       3.906   2.848  18.575  0.00  0.00    +0.000 C 
ATOM     12  C   UNL     1       3.711   3.010  20.114  0.00  0.00    +0.000 C 
ATOM     13  C   UNL     1       2.471   3.848  20.481  0.00  0.00    +0.000 C 
ATOM     14  C   UNL     1       1.859   4.454  19.233  0.00  0.00    +0.000 C 
ATOM     15 SE   UNL     1       2.060   3.050  17.892  0.00  0.00    +0.000 Se
BRANCH  14  16
ATOM     16  C   UNL     1       2.516   5.792  18.846  0.00  0.00    +0.000 C 
BRANCH  16  17
ATOM     17  O   UNL     1       3.114   6.390  19.964  0.00  0.00    +0.000 OA
ATOM     18  H   UNL     1       4.074   6.508  19.744  0.00  0.00    +0.000 HD
ENDBRANCH  16  17
ENDBRANCH  14  16
ENDBRANCH   4  11
TORSDOF 3
ENDMDL
MODEL 8
REMARK VINA RESULT:      -6.2      1.694      2.605
REMARK  Name = 
REMARK  4 active torsions:
REMARK  status: ('A' for Active; 'I' for Inactive)
REMARK    1  A    between atoms: C_1  and  C_2
REMARK    2  A    between atoms: N_4  and  C_5
REMARK    3  A    between atoms: C_8  and  C_9
REMARK    4  A    between atoms: C_9  and  O_10
REMARK                            x       y       z     vdW  Elec       q    Type
REMARK                         _______ _______ _______ _____ _____    ______ ____
ROOT
ATOM      1  C   UNL     1       5.774   4.888  14.705  0.00  0.00    +0.000 C 
ATOM      2  C   UNL     1       5.604   4.444  16.134  0.00  0.00    +0.000 A 
ATOM      3  C   UNL     1       4.398   3.887  16.572  0.00  0.00    +0.000 A 
ATOM      4  N   UNL     1       4.207   3.476  17.872  0.00  0.00    +0.000 N 
ATOM      5  C   UNL     1       5.292   3.570  18.743  0.00  0.00    +0.000 A 
ATOM      6  O   UNL     1       5.225   3.156  19.884  0.00  0.00    +0.000 OA
ATOM      7  N   UNL     1       6.475   4.130  18.329  0.00  0.00    +0.000 N 
ATOM      8  C   UNL     1       6.645   4.570  17.049  0.00  0.00    +0.000 A 
ATOM      9  O   UNL     1       7.714   5.055  16.713  0.00  0.00    +0.000 OA
ATOM     10  H   UNL     1       7.271   4.206  19.005  0.00  0.00    +0.000 HD
ENDROOT
BRANCH   4  11
ATOM     11  C   UNL     1       2.895   2.853  18.255  0.00  0.00    +0.000 C 
ATOM     12  C   UNL     1       2.692   2.481  19.757  0.00  0.00    +0.000 C 
ATOM     13  C   UNL     1       1.908   3.549  20.543  0.00  0.00    +0.000 C 
ATOM     14  C   UNL     1       1.693   4.780  19.684  0.00  0.00    +0.000 C 
ATOM     15 SE   UNL     1       1.359   4.049  17.905  0.00  0.00    +0.000 Se
BRANCH  14  16
ATOM     16  C   UNL     1       2.881   5.757  19.750  0.00  0.00    +0.000 C 
BRANCH  16  17
ATOM     17  O   UNL     1       2.452   7.030  20.150  0.00  0.00    +0.000 OA
ATOM     18  H   UNL     1       1.489   7.092  19.922  0.00  0.00    +0.000 HD
ENDBRANCH  16  17
ENDBRANCH  14  16
ENDBRANCH   4  11
TORSDOF 3
ENDMDL
MODEL 9
REMARK VINA RESULT:      -6.2      2.182      2.546
REMARK  Name = 
REMARK  4 active torsions:
REMARK  status: ('A' for Active; 'I' for Inactive)
REMARK    1  A    between atoms: C_1  and  C_2
REMARK    2  A    between atoms: N_4  and  C_5
REMARK    3  A    between atoms: C_8  and  C_9
REMARK    4  A    between atoms: C_9  and  O_10
REMARK                            x       y       z     vdW  Elec       q    Type
REMARK                         _______ _______ _______ _____ _____    ______ ____
ROOT
ATOM      1  C   UNL     1       7.606   5.523  18.585  0.00  0.00    +0.000 C 
ATOM      2  C   UNL     1       6.116   5.669  18.423  0.00  0.00    +0.000 A 
ATOM      3  C   UNL     1       5.235   5.076  19.334  0.00  0.00    +0.000 A 
ATOM      4  N   UNL     1       3.868   5.185  19.213  0.00  0.00    +0.000 N 
ATOM      5  C   UNL     1       3.375   5.975  18.174  0.00  0.00    +0.000 A 
ATOM      6  O   UNL     1       2.184   6.183  18.049  0.00  0.00    +0.000 OA
ATOM      7  N   UNL     1       4.229   6.549  17.265  0.00  0.00    +0.000 N 
ATOM      8  C   UNL     1       5.581   6.405  17.369  0.00  0.00    +0.000 A 
ATOM      9  O   UNL     1       6.312   6.936  16.548  0.00  0.00    +0.000 OA
ATOM     10  H   UNL     1       3.836   7.124  16.483  0.00  0.00    +0.000 HD
ENDROOT
BRANCH   4  11
ATOM     11  C   UNL     1       2.990   4.551  20.253  0.00  0.00    +0.000 C 
ATOM     12  C   UNL     1       1.462   4.472  19.948  0.00  0.00    +0.000 C 
ATOM     13  C   UNL     1       1.028   3.106  19.386  0.00  0.00    +0.000 C 
ATOM     14  C   UNL     1       2.243   2.244  19.103  0.00  0.00    +0.000 C 
ATOM     15 SE   UNL     1       3.453   2.656  20.579  0.00  0.00    +0.000 Se
BRANCH  14  16
ATOM     16  C   UNL     1       2.839   2.508  17.709  0.00  0.00    +0.000 C 
BRANCH  16  17
ATOM     17  O   UNL     1       4.189   2.132  17.668  0.00  0.00    +0.000 OA
ATOM     18  H   UNL     1       4.303   1.408  18.337  0.00  0.00    +0.000 HD
ENDBRANCH  16  17
ENDBRANCH  14  16
ENDBRANCH   4  11
TORSDOF 3
ENDMDL
