MODEL 1
REMARK VINA RESULT:      -7.7      0.000      0.000
REMARK  Name = 
REMARK  11 active torsions:
REMARK  status: ('A' for Active; 'I' for Inactive)
REMARK    1  A    between atoms: C_1  and  C_2
REMARK    2  A    between atoms: C_4  and  C_5
REMARK    3  A    between atoms: C_7  and  S_8
REMARK    4  A    between atoms: S_8  and  N_11
REMARK    5  A    between atoms: N_11  and  C_12
REMARK    6  A    between atoms: C_12  and  C_13
REMARK    7  A    between atoms: C_12  and  CA_16
REMARK    8  A    between atoms: C_13  and  O_15
REMARK    9  A    between atoms: CA_16  and  N_17
REMARK   10  A    between atoms: CA_16  and  C_18
REMARK   11  A    between atoms: C_18  and  OXT_20
REMARK                            x       y       z     vdW  Elec       q    Type
REMARK                         _______ _______ _______ _____ _____    ______ ____
ROOT
ATOM      1  N   UNL     1       3.201   4.870  19.860  0.00  0.00    +0.000 NA
ATOM      2  H   UNL     1       2.755   5.394  20.627  0.00  0.00    +0.000 HD
ENDROOT
BRANCH   1   3
ATOM      3  S   UNL     1       2.848   5.735  18.409  0.00  0.00    +0.000 S 
ATOM      4  O   UNL     1       2.535   7.095  18.783  0.00  0.00    +0.000 OA
ATOM      5  O   UNL     1       1.921   4.907  17.670  0.00  0.00    +0.000 OA
BRANCH   3  12
ATOM      6  C   UNL     1       6.009   3.840  14.638  0.00  0.00    +0.000 C 
ATOM      7  C   UNL     1       5.790   4.807  15.766  0.00  0.00    +0.000 A 
ATOM      8  C   UNL     1       6.787   5.726  16.125  0.00  0.00    +0.000 A 
ATOM      9  C   UNL     1       6.595   6.628  17.180  0.00  0.00    +0.000 A 
ATOM     10  C   UNL     1       7.654   7.620  17.556  0.00  0.00    +0.000 C 
ATOM     11  C   UNL     1       5.388   6.603  17.886  0.00  0.00    +0.000 A 
ATOM     12  C   UNL     1       4.381   5.707  17.516  0.00  0.00    +0.000 A 
ATOM     13  C   UNL     1       4.576   4.801  16.469  0.00  0.00    +0.000 A 
ENDBRANCH   3  12
ENDBRANCH   1   3
BRANCH   1  14
ATOM     14  C   UNL     1       2.692   3.450  19.883  0.00  0.00    +0.000 C 
BRANCH  14  15
ATOM     15  C   UNL     1       1.894   3.162  21.146  0.00  0.00    +0.000 C 
ATOM     16  O   UNL     1       2.414   3.030  22.242  0.00  0.00    +0.000 OA
BRANCH  15  17
ATOM     17  O   UNL     1       0.565   3.040  20.949  0.00  0.00    +0.000 OA
ATOM     18  H   UNL     1       0.219   2.150  21.181  0.00  0.00    +0.000 HD
ENDBRANCH  15  17
ENDBRANCH  14  15
BRANCH  14  19
ATOM     19  CA  UNL     1       3.854   2.448  19.729  0.00  0.00    +0.000 C 
BRANCH  19  20
ATOM     20  N   UNL     1       5.181   3.128  19.629  0.00  0.00    +0.000 NA
ATOM     21  H1  UNL     1       5.812   2.648  20.296  0.00  0.00    +0.000 HD
ATOM     22  H2  UNL     1       5.094   4.054  20.062  0.00  0.00    +0.000 HD
ENDBRANCH  19  20
BRANCH  19  23
ATOM     23  C   UNL     1       3.655   1.543  18.507  0.00  0.00    +0.000 C 
ATOM     24  O   UNL     1       2.876   1.801  17.600  0.00  0.00    +0.000 OA
BRANCH  23  25
ATOM     25  OXT UNL     1       4.428   0.435  18.506  0.00  0.00    +0.000 OA
ATOM     26  HXT UNL     1       5.294   0.530  18.058  0.00  0.00    +0.000 HD
ENDBRANCH  23  25
ENDBRANCH  19  23
ENDBRANCH  14  19
ENDBRANCH   1  14
TORSDOF 9
ENDMDL
MODEL 2
REMARK VINA RESULT:      -7.3      0.261      2.016
REMARK  Name = 
REMARK  11 active torsions:
REMARK  status: ('A' for Active; 'I' for Inactive)
REMARK    1  A    between atoms: C_1  and  C_2
REMARK    2  A    between atoms: C_4  and  C_5
REMARK    3  A    between atoms: C_7  and  S_8
REMARK    4  A    between atoms: S_8  and  N_11
REMARK    5  A    between atoms: N_11  and  C_12
REMARK    6  A    between atoms: C_12  and  C_13
REMARK    7  A    between atoms: C_12  and  CA_16
REMARK    8  A    between atoms: C_13  and  O_15
REMARK    9  A    between atoms: CA_16  and  N_17
REMARK   10  A    between atoms: CA_16  and  C_18
REMARK   11  A    between atoms: C_18  and  OXT_20
REMARK                            x       y       z     vdW  Elec       q    Type
REMARK                         _______ _______ _______ _____ _____    ______ ____
ROOT
ATOM      1  N   UNL     1       3.236   4.804  19.859  0.00  0.00    +0.000 NA
ATOM      2  H   UNL     1       2.867   5.357  20.646  0.00  0.00    +0.000 HD
ENDROOT
BRANCH   1   3
ATOM      3  S   UNL     1       2.876   5.692  18.425  0.00  0.00    +0.000 S 
ATOM      4  O   UNL     1       2.525   7.035  18.827  0.00  0.00    +0.000 OA
ATOM      5  O   UNL     1       1.977   4.859  17.658  0.00  0.00    +0.000 OA
BRANCH   3  12
ATOM      6  C   UNL     1       7.706   7.622  17.560  0.00  0.00    +0.000 C 
ATOM      7  C   UNL     1       6.630   6.640  17.196  0.00  0.00    +0.000 A 
ATOM      8  C   UNL     1       6.829   5.709  16.166  0.00  0.00    +0.000 A 
ATOM      9  C   UNL     1       5.829   4.792  15.814  0.00  0.00    +0.000 A 
ATOM     10  C   UNL     1       6.046   3.787  14.724  0.00  0.00    +0.000 C 
ATOM     11  C   UNL     1       4.612   4.814  16.504  0.00  0.00    +0.000 A 
ATOM     12  C   UNL     1       4.418   5.723  17.548  0.00  0.00    +0.000 A 
ATOM     13  C   UNL     1       5.413   6.643  17.893  0.00  0.00    +0.000 A 
ENDBRANCH   3  12
ENDBRANCH   1   3
BRANCH   1  14
ATOM     14  C   UNL     1       2.627   3.424  19.911  0.00  0.00    +0.000 C 
BRANCH  14  15
ATOM     15  C   UNL     1       1.915   3.175  21.232  0.00  0.00    +0.000 C 
ATOM     16  O   UNL     1       2.487   3.212  22.310  0.00  0.00    +0.000 OA
BRANCH  15  17
ATOM     17  O   UNL     1       0.602   2.886  21.112  0.00  0.00    +0.000 OA
ATOM     18  H   UNL     1       0.156   3.401  20.405  0.00  0.00    +0.000 HD
ENDBRANCH  15  17
ENDBRANCH  14  15
BRANCH  14  19
ATOM     19  CA  UNL     1       3.696   2.343  19.653  0.00  0.00    +0.000 C 
BRANCH  19  20
ATOM     20  N   UNL     1       5.081   2.904  19.640  0.00  0.00    +0.000 NA
ATOM     21  H1  UNL     1       5.159   3.482  18.784  0.00  0.00    +0.000 HD
ATOM     22  H2  UNL     1       5.729   2.138  19.427  0.00  0.00    +0.000 HD
ENDBRANCH  19  20
BRANCH  19  23
ATOM     23  C   UNL     1       3.437   1.601  18.336  0.00  0.00    +0.000 C 
ATOM     24  O   UNL     1       4.237   0.826  17.833  0.00  0.00    +0.000 OA
BRANCH  23  25
ATOM     25  OXT UNL     1       2.233   1.865  17.780  0.00  0.00    +0.000 OA
ATOM     26  HXT UNL     1       1.974   1.271  17.045  0.00  0.00    +0.000 HD
ENDBRANCH  23  25
ENDBRANCH  19  23
ENDBRANCH  14  19
ENDBRANCH   1  14
TORSDOF 9
ENDMDL
MODEL 3
REMARK VINA RESULT:      -7.2      1.472      2.615
REMARK  Name = 
REMARK  11 active torsions:
REMARK  status: ('A' for Active; 'I' for Inactive)
REMARK    1  A    between atoms: C_1  and  C_2
REMARK    2  A    between atoms: C_4  and  C_5
REMARK    3  A    between atoms: C_7  and  S_8
REMARK    4  A    between atoms: S_8  and  N_11
REMARK    5  A    between atoms: N_11  and  C_12
REMARK    6  A    between atoms: C_12  and  C_13
REMARK    7  A    between atoms: C_12  and  CA_16
REMARK    8  A    between atoms: C_13  and  O_15
REMARK    9  A    between atoms: CA_16  and  N_17
REMARK   10  A    between atoms: CA_16  and  C_18
REMARK   11  A    between atoms: C_18  and  OXT_20
REMARK                            x       y       z     vdW  Elec       q    Type
REMARK                         _______ _______ _______ _____ _____    ______ ____
ROOT
ATOM      1  N   UNL     1       2.818   4.453  19.643  0.00  0.00    +0.000 NA
ATOM      2  H   UNL     1       2.151   4.890  20.296  0.00  0.00    +0.000 HD
ENDROOT
BRANCH   1   3
ATOM      3  S   UNL     1       2.777   5.394  18.198  0.00  0.00    +0.000 S 
ATOM      4  O   UNL     1       2.451   6.750  18.576  0.00  0.00    +0.000 OA
ATOM      5  O   UNL     1       1.973   4.643  17.259  0.00  0.00    +0.000 OA
BRANCH   3  12
ATOM      6  C   UNL     1       7.929   6.408  18.673  0.00  0.00    +0.000 C 
ATOM      7  C   UNL     1       6.804   5.816  17.874  0.00  0.00    +0.000 A 
ATOM      8  C   UNL     1       7.052   5.181  16.648  0.00  0.00    +0.000 A 
ATOM      9  C   UNL     1       6.009   4.631  15.892  0.00  0.00    +0.000 A 
ATOM     10  C   UNL     1       6.275   3.939  14.589  0.00  0.00    +0.000 C 
ATOM     11  C   UNL     1       4.698   4.723  16.372  0.00  0.00    +0.000 A 
ATOM     12  C   UNL     1       4.447   5.333  17.605  0.00  0.00    +0.000 A 
ATOM     13  C   UNL     1       5.488   5.889  18.355  0.00  0.00    +0.000 A 
ENDBRANCH   3  12
ENDBRANCH   1   3
BRANCH   1  14
ATOM     14  C   UNL     1       2.435   3.005  19.459  0.00  0.00    +0.000 C 
BRANCH  14  15
ATOM     15  C   UNL     1       0.925   2.828  19.404  0.00  0.00    +0.000 C 
ATOM     16  O   UNL     1       0.368   2.152  18.554  0.00  0.00    +0.000 OA
BRANCH  15  17
ATOM     17  O   UNL     1       0.249   3.501  20.358  0.00  0.00    +0.000 OA
ATOM     18  H   UNL     1      -0.469   2.973  20.770  0.00  0.00    +0.000 HD
ENDBRANCH  15  17
ENDBRANCH  14  15
BRANCH  14  19
ATOM     19  CA  UNL     1       3.049   2.130  20.571  0.00  0.00    +0.000 C 
BRANCH  19  20
ATOM     20  N   UNL     1       2.702   2.622  21.939  0.00  0.00    +0.000 NA
ATOM     21  H1  UNL     1       3.551   2.505  22.521  0.00  0.00    +0.000 HD
ATOM     22  H2  UNL     1       2.067   1.940  22.367  0.00  0.00    +0.000 HD
ENDBRANCH  19  20
BRANCH  19  23
ATOM     23  C   UNL     1       4.574   2.040  20.435  0.00  0.00    +0.000 C 
ATOM     24  O   UNL     1       5.298   1.570  21.300  0.00  0.00    +0.000 OA
BRANCH  23  25
ATOM     25  OXT UNL     1       5.054   2.514  19.264  0.00  0.00    +0.000 OA
ATOM     26  HXT UNL     1       5.838   2.042  18.913  0.00  0.00    +0.000 HD
ENDBRANCH  23  25
ENDBRANCH  19  23
ENDBRANCH  14  19
ENDBRANCH   1  14
TORSDOF 9
ENDMDL
MODEL 4
REMARK VINA RESULT:      -7.1      1.398      2.744
REMARK  Name = 
REMARK  11 active torsions:
REMARK  status: ('A' for Active; 'I' for Inactive)
REMARK    1  A    between atoms: C_1  and  C_2
REMARK    2  A    between atoms: C_4  and  C_5
REMARK    3  A    between atoms: C_7  and  S_8
REMARK    4  A    between atoms: S_8  and  N_11
REMARK    5  A    between atoms: N_11  and  C_12
REMARK    6  A    between atoms: C_12  and  C_13
REMARK    7  A    between atoms: C_12  and  CA_16
REMARK    8  A    between atoms: C_13  and  O_15
REMARK    9  A    between atoms: CA_16  and  N_17
REMARK   10  A    between atoms: CA_16  and  C_18
REMARK   11  A    between atoms: C_18  and  OXT_20
REMARK                            x       y       z     vdW  Elec       q    Type
REMARK                         _______ _______ _______ _____ _____    ______ ____
ROOT
ATOM      1  N   UNL     1       3.094   3.452  18.352  0.00  0.00    +0.000 NA
ATOM      2  H   UNL     1       3.787   3.102  17.674  0.00  0.00    +0.000 HD
ENDROOT
BRANCH   1   3
ATOM      3  S   UNL     1       3.359   5.151  18.488  0.00  0.00    +0.000 S 
ATOM      4  O   UNL     1       3.658   5.432  19.874  0.00  0.00    +0.000 OA
ATOM      5  O   UNL     1       2.255   5.781  17.797  0.00  0.00    +0.000 OA
BRANCH   3  12
ATOM      6  C   UNL     1       6.427   4.148  14.319  0.00  0.00    +0.000 C 
ATOM      7  C   UNL     1       6.176   4.941  15.569  0.00  0.00    +0.000 A 
ATOM      8  C   UNL     1       7.072   5.941  15.975  0.00  0.00    +0.000 A 
ATOM      9  C   UNL     1       6.851   6.682  17.143  0.00  0.00    +0.000 A 
ATOM     10  C   UNL     1       7.800   7.761  17.571  0.00  0.00    +0.000 C 
ATOM     11  C   UNL     1       5.716   6.413  17.916  0.00  0.00    +0.000 A 
ATOM     12  C   UNL     1       4.806   5.435  17.503  0.00  0.00    +0.000 A 
ATOM     13  C   UNL     1       5.032   4.690  16.342  0.00  0.00    +0.000 A 
ENDBRANCH   3  12
ENDBRANCH   1   3
BRANCH   1  14
ATOM     14  C   UNL     1       3.252   2.688  19.644  0.00  0.00    +0.000 C 
BRANCH  14  15
ATOM     15  C   UNL     1       4.366   1.655  19.550  0.00  0.00    +0.000 C 
ATOM     16  O   UNL     1       5.285   1.599  20.351  0.00  0.00    +0.000 OA
BRANCH  15  17
ATOM     17  O   UNL     1       4.268   0.823  18.493  0.00  0.00    +0.000 OA
ATOM     18  H   UNL     1       3.343   0.560  18.292  0.00  0.00    +0.000 HD
ENDBRANCH  15  17
ENDBRANCH  14  15
BRANCH  14  19
ATOM     19  CA  UNL     1       1.923   2.023  20.054  0.00  0.00    +0.000 C 
BRANCH  19  20
ATOM     20  N   UNL     1       1.052   1.719  18.878  0.00  0.00    +0.000 NA
ATOM     21  H1  UNL     1       0.157   1.360  19.256  0.00  0.00    +0.000 HD
ATOM     22  H2  UNL     1       1.427   0.882  18.417  0.00  0.00    +0.000 HD
ENDBRANCH  19  20
BRANCH  19  23
ATOM     23  C   UNL     1       1.145   2.894  21.049  0.00  0.00    +0.000 C 
ATOM     24  O   UNL     1       1.099   2.665  22.248  0.00  0.00    +0.000 OA
BRANCH  23  25
ATOM     25  OXT UNL     1       0.523   3.955  20.487  0.00  0.00    +0.000 OA
ATOM     26  HXT UNL     1       0.884   4.241  19.622  0.00  0.00    +0.000 HD
ENDBRANCH  23  25
ENDBRANCH  19  23
ENDBRANCH  14  19
ENDBRANCH   1  14
TORSDOF 9
ENDMDL
MODEL 5
REMARK VINA RESULT:      -7.1      1.231      1.394
REMARK  Name = 
REMARK  11 active torsions:
REMARK  status: ('A' for Active; 'I' for Inactive)
REMARK    1  A    between atoms: C_1  and  C_2
REMARK    2  A    between atoms: C_4  and  C_5
REMARK    3  A    between atoms: C_7  and  S_8
REMARK    4  A    between atoms: S_8  and  N_11
REMARK    5  A    between atoms: N_11  and  C_12
REMARK    6  A    between atoms: C_12  and  C_13
REMARK    7  A    between atoms: C_12  and  CA_16
REMARK    8  A    between atoms: C_13  and  O_15
REMARK    9  A    between atoms: CA_16  and  N_17
REMARK   10  A    between atoms: CA_16  and  C_18
REMARK   11  A    between atoms: C_18  and  OXT_20
REMARK                            x       y       z     vdW  Elec       q    Type
REMARK                         _______ _______ _______ _____ _____    ______ ____
ROOT
ATOM      1  N   UNL     1       3.074   5.099  19.760  0.00  0.00    +0.000 NA
ATOM      2  H   UNL     1       2.733   5.622  20.579  0.00  0.00    +0.000 HD
ENDROOT
BRANCH   1   3
ATOM      3  S   UNL     1       2.874   6.137  18.397  0.00  0.00    +0.000 S 
ATOM      4  O   UNL     1       2.721   7.483  18.900  0.00  0.00    +0.000 OA
ATOM      5  O   UNL     1       1.873   5.509  17.563  0.00  0.00    +0.000 OA
BRANCH   3  12
ATOM      6  C   UNL     1       5.985   3.981  14.727  0.00  0.00    +0.000 C 
ATOM      7  C   UNL     1       5.802   4.985  15.828  0.00  0.00    +0.000 A 
ATOM      8  C   UNL     1       6.843   5.855  16.183  0.00  0.00    +0.000 A 
ATOM      9  C   UNL     1       6.685   6.792  17.214  0.00  0.00    +0.000 A 
ATOM     10  C   UNL     1       7.791   7.733  17.585  0.00  0.00    +0.000 C 
ATOM     11  C   UNL     1       5.466   6.851  17.898  0.00  0.00    +0.000 A 
ATOM     12  C   UNL     1       4.417   6.003  17.532  0.00  0.00    +0.000 A 
ATOM     13  C   UNL     1       4.578   5.063  16.510  0.00  0.00    +0.000 A 
ENDBRANCH   3  12
ENDBRANCH   1   3
BRANCH   1  14
ATOM     14  C   UNL     1       2.320   3.795  19.670  0.00  0.00    +0.000 C 
BRANCH  14  15
ATOM     15  C   UNL     1       1.786   3.363  21.028  0.00  0.00    +0.000 C 
ATOM     16  O   UNL     1       2.382   3.575  22.072  0.00  0.00    +0.000 OA
BRANCH  15  17
ATOM     17  O   UNL     1       0.610   2.704  20.980  0.00  0.00    +0.000 OA
ATOM     18  H   UNL     1       0.162   2.773  20.108  0.00  0.00    +0.000 HD
ENDBRANCH  15  17
ENDBRANCH  14  15
BRANCH  14  19
ATOM     19  CA  UNL     1       3.203   2.692  19.052  0.00  0.00    +0.000 C 
BRANCH  19  20
ATOM     20  N   UNL     1       2.530   1.358  19.051  0.00  0.00    +0.000 NA
ATOM     21  H1  UNL     1       1.685   1.451  19.644  0.00  0.00    +0.000 HD
ATOM     22  H2  UNL     1       3.101   0.716  19.612  0.00  0.00    +0.000 HD
ENDBRANCH  19  20
BRANCH  19  23
ATOM     23  C   UNL     1       4.549   2.579  19.779  0.00  0.00    +0.000 C 
ATOM     24  O   UNL     1       4.762   1.779  20.678  0.00  0.00    +0.000 OA
BRANCH  23  25
ATOM     25  OXT UNL     1       5.494   3.435  19.330  0.00  0.00    +0.000 OA
ATOM     26  HXT UNL     1       5.459   4.335  19.715  0.00  0.00    +0.000 HD
ENDBRANCH  23  25
ENDBRANCH  19  23
ENDBRANCH  14  19
ENDBRANCH   1  14
TORSDOF 9
ENDMDL
MODEL 6
REMARK VINA RESULT:      -7.1      1.457      1.724
REMARK  Name = 
REMARK  11 active torsions:
REMARK  status: ('A' for Active; 'I' for Inactive)
REMARK    1  A    between atoms: C_1  and  C_2
REMARK    2  A    between atoms: C_4  and  C_5
REMARK    3  A    between atoms: C_7  and  S_8
REMARK    4  A    between atoms: S_8  and  N_11
REMARK    5  A    between atoms: N_11  and  C_12
REMARK    6  A    between atoms: C_12  and  C_13
REMARK    7  A    between atoms: C_12  and  CA_16
REMARK    8  A    between atoms: C_13  and  O_15
REMARK    9  A    between atoms: CA_16  and  N_17
REMARK   10  A    between atoms: CA_16  and  C_18
REMARK   11  A    between atoms: C_18  and  OXT_20
REMARK                            x       y       z     vdW  Elec       q    Type
REMARK                         _______ _______ _______ _____ _____    ______ ____
ROOT
ATOM      1  N   UNL     1       2.886   4.559  19.576  0.00  0.00    +0.000 NA
ATOM      2  H   UNL     1       2.299   5.020  20.286  0.00  0.00    +0.000 HD
ENDROOT
BRANCH   1   3
ATOM      3  S   UNL     1       2.727   5.488  18.132  0.00  0.00    +0.000 S 
ATOM      4  O   UNL     1       2.418   6.844  18.523  0.00  0.00    +0.000 OA
ATOM      5  O   UNL     1       1.861   4.723  17.261  0.00  0.00    +0.000 OA
BRANCH   3  12
ATOM      6  C   UNL     1       6.154   3.841  14.479  0.00  0.00    +0.000 C 
ATOM      7  C   UNL     1       5.880   4.658  15.709  0.00  0.00    +0.000 A 
ATOM      8  C   UNL     1       6.897   5.415  16.307  0.00  0.00    +0.000 A 
ATOM      9  C   UNL     1       6.654   6.175  17.459  0.00  0.00    +0.000 A 
ATOM     10  C   UNL     1       7.736   6.997  18.090  0.00  0.00    +0.000 C 
ATOM     11  C   UNL     1       5.372   6.170  18.019  0.00  0.00    +0.000 A 
ATOM     12  C   UNL     1       4.348   5.437  17.414  0.00  0.00    +0.000 A 
ATOM     13  C   UNL     1       4.594   4.672  16.269  0.00  0.00    +0.000 A 
ENDBRANCH   3  12
ENDBRANCH   1   3
BRANCH   1  14
ATOM     14  C   UNL     1       2.448   3.120  19.447  0.00  0.00    +0.000 C 
BRANCH  14  15
ATOM     15  C   UNL     1       0.934   2.987  19.518  0.00  0.00    +0.000 C 
ATOM     16  O   UNL     1       0.303   2.216  18.813  0.00  0.00    +0.000 OA
BRANCH  15  17
ATOM     17  O   UNL     1       0.343   3.811  20.408  0.00  0.00    +0.000 OA
ATOM     18  H   UNL     1      -0.236   4.484  19.988  0.00  0.00    +0.000 HD
ENDBRANCH  15  17
ENDBRANCH  14  15
BRANCH  14  19
ATOM     19  CA  UNL     1       3.126   2.243  20.519  0.00  0.00    +0.000 C 
BRANCH  19  20
ATOM     20  N   UNL     1       2.726   2.628  21.906  0.00  0.00    +0.000 NA
ATOM     21  H1  UNL     1       2.395   1.764  22.371  0.00  0.00    +0.000 HD
ATOM     22  H2  UNL     1       1.858   3.171  21.844  0.00  0.00    +0.000 HD
ENDBRANCH  19  20
BRANCH  19  23
ATOM     23  C   UNL     1       4.654   2.293  20.399  0.00  0.00    +0.000 C 
ATOM     24  O   UNL     1       5.241   3.000  19.593  0.00  0.00    +0.000 OA
BRANCH  23  25
ATOM     25  OXT UNL     1       5.305   1.496  21.275  0.00  0.00    +0.000 OA
ATOM     26  HXT UNL     1       5.628   1.942  22.085  0.00  0.00    +0.000 HD
ENDBRANCH  23  25
ENDBRANCH  19  23
ENDBRANCH  14  19
ENDBRANCH   1  14
TORSDOF 9
ENDMDL
MODEL 7
REMARK VINA RESULT:      -7.1      3.142      5.980
REMARK  Name = 
REMARK  11 active torsions:
REMARK  status: ('A' for Active; 'I' for Inactive)
REMARK    1  A    between atoms: C_1  and  C_2
REMARK    2  A    between atoms: C_4  and  C_5
REMARK    3  A    between atoms: C_7  and  S_8
REMARK    4  A    between atoms: S_8  and  N_11
REMARK    5  A    between atoms: N_11  and  C_12
REMARK    6  A    between atoms: C_12  and  C_13
REMARK    7  A    between atoms: C_12  and  CA_16
REMARK    8  A    between atoms: C_13  and  O_15
REMARK    9  A    between atoms: CA_16  and  N_17
REMARK   10  A    between atoms: CA_16  and  C_18
REMARK   11  A    between atoms: C_18  and  OXT_20
REMARK                            x       y       z     vdW  Elec       q    Type
REMARK                         _______ _______ _______ _____ _____    ______ ____
ROOT
ATOM      1  N   UNL     1       5.617   3.991  17.622  0.00  0.00    +0.000 NA
ATOM      2  H   UNL     1       6.251   3.318  17.168  0.00  0.00    +0.000 HD
ENDROOT
BRANCH   1   3
ATOM      3  S   UNL     1       4.022   3.361  17.437  0.00  0.00    +0.000 S 
ATOM      4  O   UNL     1       4.104   1.926  17.586  0.00  0.00    +0.000 OA
ATOM      5  O   UNL     1       3.486   3.981  16.245  0.00  0.00    +0.000 OA
BRANCH   3  12
ATOM      6  C   UNL     1       1.995   7.427  20.114  0.00  0.00    +0.000 C 
ATOM      7  C   UNL     1       2.216   5.946  19.999  0.00  0.00    +0.000 A 
ATOM      8  C   UNL     1       1.706   5.069  20.967  0.00  0.00    +0.000 A 
ATOM      9  C   UNL     1       1.913   3.686  20.872  0.00  0.00    +0.000 A 
ATOM     10  C   UNL     1       1.356   2.745  21.898  0.00  0.00    +0.000 C 
ATOM     11  C   UNL     1       2.645   3.179  19.793  0.00  0.00    +0.000 A 
ATOM     12  C   UNL     1       3.134   4.046  18.812  0.00  0.00    +0.000 A 
ATOM     13  C   UNL     1       2.935   5.427  18.911  0.00  0.00    +0.000 A 
ENDBRANCH   3  12
ENDBRANCH   1   3
BRANCH   1  14
ATOM     14  C   UNL     1       5.830   5.350  17.002  0.00  0.00    +0.000 C 
BRANCH  14  15
ATOM     15  C   UNL     1       6.413   5.240  15.601  0.00  0.00    +0.000 C 
ATOM     16  O   UNL     1       5.906   5.777  14.629  0.00  0.00    +0.000 OA
BRANCH  15  17
ATOM     17  O   UNL     1       7.525   4.480  15.518  0.00  0.00    +0.000 OA
ATOM     18  H   UNL     1       8.284   4.847  16.022  0.00  0.00    +0.000 HD
ENDBRANCH  15  17
ENDBRANCH  14  15
BRANCH  14  19
ATOM     19  CA  UNL     1       6.723   6.229  17.900  0.00  0.00    +0.000 C 
BRANCH  19  20
ATOM     20  N   UNL     1       7.684   7.057  17.111  0.00  0.00    +0.000 NA
ATOM     21  H1  UNL     1       8.261   6.397  16.558  0.00  0.00    +0.000 HD
ATOM     22  H2  UNL     1       8.380   7.438  17.762  0.00  0.00    +0.000 HD
ENDBRANCH  19  20
BRANCH  19  23
ATOM     23  C   UNL     1       7.498   5.383  18.918  0.00  0.00    +0.000 C 
ATOM     24  O   UNL     1       7.378   5.512  20.128  0.00  0.00    +0.000 OA
BRANCH  23  25
ATOM     25  OXT UNL     1       8.320   4.465  18.363  0.00  0.00    +0.000 OA
ATOM     26  HXT UNL     1       7.885   3.825  17.762  0.00  0.00    +0.000 HD
ENDBRANCH  23  25
ENDBRANCH  19  23
ENDBRANCH  14  19
ENDBRANCH   1  14
TORSDOF 9
ENDMDL
MODEL 8
REMARK VINA RESULT:      -7.1      1.255      2.789
REMARK  Name = 
REMARK  11 active torsions:
REMARK  status: ('A' for Active; 'I' for Inactive)
REMARK    1  A    between atoms: C_1  and  C_2
REMARK    2  A    between atoms: C_4  and  C_5
REMARK    3  A    between atoms: C_7  and  S_8
REMARK    4  A    between atoms: S_8  and  N_11
REMARK    5  A    between atoms: N_11  and  C_12
REMARK    6  A    between atoms: C_12  and  C_13
REMARK    7  A    between atoms: C_12  and  CA_16
REMARK    8  A    between atoms: C_13  and  O_15
REMARK    9  A    between atoms: CA_16  and  N_17
REMARK   10  A    between atoms: CA_16  and  C_18
REMARK   11  A    between atoms: C_18  and  OXT_20
REMARK                            x       y       z     vdW  Elec       q    Type
REMARK                         _______ _______ _______ _____ _____    ______ ____
ROOT
ATOM      1  N   UNL     1       2.620   3.798  18.371  0.00  0.00    +0.000 NA
ATOM      2  H   UNL     1       3.102   3.420  17.542  0.00  0.00    +0.000 HD
ENDROOT
BRANCH   1   3
ATOM      3  S   UNL     1       3.080   5.456  18.490  0.00  0.00    +0.000 S 
ATOM      4  O   UNL     1       3.375   5.724  19.879  0.00  0.00    +0.000 OA
ATOM      5  O   UNL     1       2.076   6.199  17.760  0.00  0.00    +0.000 OA
BRANCH   3  12
ATOM      6  C   UNL     1       6.188   3.895  14.528  0.00  0.00    +0.000 C 
ATOM      7  C   UNL     1       5.962   4.802  15.703  0.00  0.00    +0.000 A 
ATOM      8  C   UNL     1       6.921   5.759  16.064  0.00  0.00    +0.000 A 
ATOM      9  C   UNL     1       6.723   6.606  17.163  0.00  0.00    +0.000 A 
ATOM     10  C   UNL     1       7.740   7.639  17.541  0.00  0.00    +0.000 C 
ATOM     11  C   UNL     1       5.546   6.485  17.911  0.00  0.00    +0.000 A 
ATOM     12  C   UNL     1       4.576   5.550  17.541  0.00  0.00    +0.000 A 
ATOM     13  C   UNL     1       4.779   4.700  16.449  0.00  0.00    +0.000 A 
ENDBRANCH   3  12
ENDBRANCH   1   3
BRANCH   1  14
ATOM     14  C   UNL     1       2.988   2.958  19.570  0.00  0.00    +0.000 C 
BRANCH  14  15
ATOM     15  C   UNL     1       3.950   1.840  19.195  0.00  0.00    +0.000 C 
ATOM     16  O   UNL     1       3.718   1.038  18.304  0.00  0.00    +0.000 OA
BRANCH  15  17
ATOM     17  O   UNL     1       5.070   1.792  19.946  0.00  0.00    +0.000 OA
ATOM     18  H   UNL     1       5.725   1.135  19.624  0.00  0.00    +0.000 HD
ENDBRANCH  15  17
ENDBRANCH  14  15
BRANCH  14  19
ATOM     19  CA  UNL     1       1.726   2.390  20.250  0.00  0.00    +0.000 C 
BRANCH  19  20
ATOM     20  N   UNL     1       0.468   2.845  19.585  0.00  0.00    +0.000 NA
ATOM     21  H1  UNL     1      -0.293   2.242  19.945  0.00  0.00    +0.000 HD
ATOM     22  H2  UNL     1       0.509   2.554  18.601  0.00  0.00    +0.000 HD
ENDBRANCH  19  20
BRANCH  19  23
ATOM     23  C   UNL     1       1.676   2.763  21.737  0.00  0.00    +0.000 C 
ATOM     24  O   UNL     1       1.056   2.119  22.570  0.00  0.00    +0.000 OA
BRANCH  23  25
ATOM     25  OXT UNL     1       2.394   3.863  22.057  0.00  0.00    +0.000 OA
ATOM     26  HXT UNL     1       2.457   4.057  23.015  0.00  0.00    +0.000 HD
ENDBRANCH  23  25
ENDBRANCH  19  23
ENDBRANCH  14  19
ENDBRANCH   1  14
TORSDOF 9
ENDMDL
MODEL 9
REMARK VINA RESULT:      -7.0      2.901      3.952
REMARK  Name = 
REMARK  11 active torsions:
REMARK  status: ('A' for Active; 'I' for Inactive)
REMARK    1  A    between atoms: C_1  and  C_2
REMARK    2  A    between atoms: C_4  and  C_5
REMARK    3  A    between atoms: C_7  and  S_8
REMARK    4  A    between atoms: S_8  and  N_11
REMARK    5  A    between atoms: N_11  and  C_12
REMARK    6  A    between atoms: C_12  and  C_13
REMARK    7  A    between atoms: C_12  and  CA_16
REMARK    8  A    between atoms: C_13  and  O_15
REMARK    9  A    between atoms: CA_16  and  N_17
REMARK   10  A    between atoms: CA_16  and  C_18
REMARK   11  A    between atoms: C_18  and  OXT_20
REMARK                            x       y       z     vdW  Elec       q    Type
REMARK                         _______ _______ _______ _____ _____    ______ ____
ROOT
ATOM      1  N   UNL     1       5.327   3.569  16.769  0.00  0.00    +0.000 NA
ATOM      2  H   UNL     1       5.809   2.861  17.343  0.00  0.00    +0.000 HD
ENDROOT
BRANCH   1   3
ATOM      3  S   UNL     1       6.509   4.758  16.363  0.00  0.00    +0.000 S 
ATOM      4  O   UNL     1       7.739   4.386  17.024  0.00  0.00    +0.000 OA
ATOM      5  O   UNL     1       5.874   6.039  16.583  0.00  0.00    +0.000 OA
BRANCH   3  12
ATOM      6  C   UNL     1       5.423   2.406  11.771  0.00  0.00    +0.000 C 
ATOM      7  C   UNL     1       6.167   3.470  12.525  0.00  0.00    +0.000 A 
ATOM      8  C   UNL     1       7.018   4.361  11.856  0.00  0.00    +0.000 A 
ATOM      9  C   UNL     1       7.722   5.353  12.552  0.00  0.00    +0.000 A 
ATOM     10  C   UNL     1       8.620   6.315  11.836  0.00  0.00    +0.000 C 
ATOM     11  C   UNL     1       7.570   5.448  13.940  0.00  0.00    +0.000 A 
ATOM     12  C   UNL     1       6.704   4.579  14.609  0.00  0.00    +0.000 A 
ATOM     13  C   UNL     1       6.009   3.584  13.915  0.00  0.00    +0.000 A 
ENDBRANCH   3  12
ENDBRANCH   1   3
BRANCH   1  14
ATOM     14  C   UNL     1       4.146   4.098  17.545  0.00  0.00    +0.000 C 
BRANCH  14  15
ATOM     15  C   UNL     1       4.461   4.219  19.029  0.00  0.00    +0.000 C 
ATOM     16  O   UNL     1       3.851   4.967  19.776  0.00  0.00    +0.000 OA
BRANCH  15  17
ATOM     17  O   UNL     1       5.487   3.449  19.446  0.00  0.00    +0.000 OA
ATOM     18  H   UNL     1       5.237   2.508  19.577  0.00  0.00    +0.000 HD
ENDBRANCH  15  17
ENDBRANCH  14  15
BRANCH  14  19
ATOM     19  CA  UNL     1       2.901   3.215  17.319  0.00  0.00    +0.000 C 
BRANCH  19  20
ATOM     20  N   UNL     1       1.627   3.967  17.526  0.00  0.00    +0.000 NA
ATOM     21  H1  UNL     1       0.856   3.295  17.363  0.00  0.00    +0.000 HD
ATOM     22  H2  UNL     1       1.507   4.609  16.735  0.00  0.00    +0.000 HD
ENDBRANCH  19  20
BRANCH  19  23
ATOM     23  C   UNL     1       2.917   1.982  18.231  0.00  0.00    +0.000 C 
ATOM     24  O   UNL     1       2.040   1.740  19.047  0.00  0.00    +0.000 OA
BRANCH  23  25
ATOM     25  OXT UNL     1       3.980   1.169  18.044  0.00  0.00    +0.000 OA
ATOM     26  HXT UNL     1       3.793   0.211  18.125  0.00  0.00    +0.000 HD
ENDBRANCH  23  25
ENDBRANCH  19  23
ENDBRANCH  14  19
ENDBRANCH   1  14
TORSDOF 9
ENDMDL
