MODEL 1
REMARK VINA RESULT:      -7.5      0.000      0.000
REMARK  Name = 
REMARK  4 active torsions:
REMARK  status: ('A' for Active; 'I' for Inactive)
REMARK    1  A    between atoms: N_1  and  N_2
REMARK    2  A    between atoms: C_3  and  C_4
REMARK    3  A    between atoms: C_4  and  O_5
REMARK    4  A    between atoms: O_5  and  C_6
REMARK                            x       y       z     vdW  Elec       q    Type
REMARK                         _______ _______ _______ _____ _____    ______ ____
ROOT
ATOM      1  N   UNL     1       6.154   4.997  17.059  0.00  0.00    +0.000 N 
ATOM      2  C   UNL     1       5.214   4.022  16.743  0.00  0.00    +0.000 A 
ATOM      3  N   UNL     1       5.069   3.546  15.544  0.00  0.00    +0.000 NA
ATOM      4  C   UNL     1       5.911   4.019  14.527  0.00  0.00    +0.000 A 
ATOM      5  C   UNL     1       5.796   3.462  13.251  0.00  0.00    +0.000 A 
ATOM      6  C   UNL     1       6.625   3.885  12.209  0.00  0.00    +0.000 A 
ATOM      7  C   UNL     1       7.577   4.880  12.431  0.00  0.00    +0.000 A 
ATOM      8  C   UNL     1       7.701   5.449  13.700  0.00  0.00    +0.000 A 
ATOM      9  C   UNL     1       6.870   5.012  14.739  0.00  0.00    +0.000 A 
ATOM     10  C   UNL     1       6.995   5.565  16.099  0.00  0.00    +0.000 A 
ATOM     11  O   UNL     1       7.798   6.464  16.346  0.00  0.00    +0.000 OA
ENDROOT
BRANCH   1  12
ATOM     12  N   UNL     1       6.317   5.444  18.406  0.00  0.00    +0.000 N 
ATOM     13  H   UNL     1       7.081   4.904  18.815  0.00  0.00    +0.000 HD
ATOM     14  H   UNL     1       5.480   5.120  18.908  0.00  0.00    +0.000 HD
ENDBRANCH   1  12
BRANCH   2  15
ATOM     15  C   UNL     1       4.305   3.501  17.852  0.00  0.00    +0.000 C 
BRANCH  15  16
ATOM     16  O   UNL     1       3.012   4.078  17.675  0.00  0.00    +0.000 OA
BRANCH  16  17
ATOM     17  C   UNL     1       2.664   5.131  18.482  0.00  0.00    +0.000 A 
ATOM     18  C   UNL     1       2.861   6.477  18.156  0.00  0.00    +0.000 A 
ATOM     19  C   UNL     1       2.448   7.489  19.032  0.00  0.00    +0.000 A 
ATOM     20  C   UNL     1       1.836   7.158  20.241  0.00  0.00    +0.000 A 
ATOM     21 CL   UNL     1       1.318   8.408  21.303  0.00  0.00    +0.000 Cl
ATOM     22  C   UNL     1       1.638   5.826  20.588  0.00  0.00    +0.000 A 
ATOM     23  C   UNL     1       2.053   4.819  19.711  0.00  0.00    +0.000 A 
ATOM     24 CL   UNL     1       1.785   3.178  20.188  0.00  0.00    +0.000 Cl
ENDBRANCH  16  17
ENDBRANCH  15  16
ENDBRANCH   2  15
TORSDOF 4
ENDMDL
MODEL 2
REMARK VINA RESULT:      -7.4      3.284      5.193
REMARK  Name = 
REMARK  4 active torsions:
REMARK  status: ('A' for Active; 'I' for Inactive)
REMARK    1  A    between atoms: N_1  and  N_2
REMARK    2  A    between atoms: C_3  and  C_4
REMARK    3  A    between atoms: C_4  and  O_5
REMARK    4  A    between atoms: O_5  and  C_6
REMARK                            x       y       z     vdW  Elec       q    Type
REMARK                         _______ _______ _______ _____ _____    ______ ____
ROOT
ATOM      1  N   UNL     1       2.146   4.619  19.501  0.00  0.00    +0.000 N 
ATOM      2  C   UNL     1       2.319   5.995  19.598  0.00  0.00    +0.000 A 
ATOM      3  N   UNL     1       3.110   6.663  18.815  0.00  0.00    +0.000 NA
ATOM      4  C   UNL     1       3.805   5.970  17.814  0.00  0.00    +0.000 A 
ATOM      5  C   UNL     1       4.610   6.698  16.933  0.00  0.00    +0.000 A 
ATOM      6  C   UNL     1       5.307   6.057  15.906  0.00  0.00    +0.000 A 
ATOM      7  C   UNL     1       5.214   4.674  15.754  0.00  0.00    +0.000 A 
ATOM      8  C   UNL     1       4.418   3.932  16.629  0.00  0.00    +0.000 A 
ATOM      9  C   UNL     1       3.717   4.587  17.650  0.00  0.00    +0.000 A 
ATOM     10  C   UNL     1       2.841   3.841  18.570  0.00  0.00    +0.000 A 
ATOM     11  O   UNL     1       2.742   2.617  18.500  0.00  0.00    +0.000 OA
ENDROOT
BRANCH   1  12
ATOM     12  N   UNL     1       1.216   3.938  20.345  0.00  0.00    +0.000 N 
ATOM     13  H   UNL     1       1.679   3.776  21.241  0.00  0.00    +0.000 HD
ATOM     14  H   UNL     1       1.114   2.997  19.940  0.00  0.00    +0.000 HD
ENDBRANCH   1  12
BRANCH   2  15
ATOM     15  C   UNL     1       1.554   6.749  20.682  0.00  0.00    +0.000 C 
BRANCH  15  16
ATOM     16  O   UNL     1       1.681   8.147  20.426  0.00  0.00    +0.000 OA
BRANCH  16  17
ATOM     17  C   UNL     1       0.841   9.001  21.094  0.00  0.00    +0.000 A 
ATOM     18  C   UNL     1       0.634   8.987  22.477  0.00  0.00    +0.000 A 
ATOM     19  C   UNL     1      -0.225   9.917  23.078  0.00  0.00    +0.000 A 
ATOM     20  C   UNL     1      -0.882  10.866  22.295  0.00  0.00    +0.000 A 
ATOM     21 CL   UNL     1      -1.922  12.014  23.042  0.00  0.00    +0.000 Cl
ATOM     22  C   UNL     1      -0.697  10.892  20.917  0.00  0.00    +0.000 A 
ATOM     23  C   UNL     1       0.161   9.961  20.321  0.00  0.00    +0.000 A 
ATOM     24 CL   UNL     1       0.358  10.034  18.605  0.00  0.00    +0.000 Cl
ENDBRANCH  16  17
ENDBRANCH  15  16
ENDBRANCH   2  15
TORSDOF 4
ENDMDL
MODEL 3
REMARK VINA RESULT:      -7.1      3.262      5.249
REMARK  Name = 
REMARK  4 active torsions:
REMARK  status: ('A' for Active; 'I' for Inactive)
REMARK    1  A    between atoms: N_1  and  N_2
REMARK    2  A    between atoms: C_3  and  C_4
REMARK    3  A    between atoms: C_4  and  O_5
REMARK    4  A    between atoms: O_5  and  C_6
REMARK                            x       y       z     vdW  Elec       q    Type
REMARK                         _______ _______ _______ _____ _____    ______ ____
ROOT
ATOM      1  N   UNL     1       4.109   6.039  17.346  0.00  0.00    +0.000 N 
ATOM      2  C   UNL     1       2.965   6.509  17.982  0.00  0.00    +0.000 A 
ATOM      3  N   UNL     1       2.089   5.723  18.528  0.00  0.00    +0.000 NA
ATOM      4  C   UNL     1       2.315   4.339  18.494  0.00  0.00    +0.000 A 
ATOM      5  C   UNL     1       1.402   3.497  19.135  0.00  0.00    +0.000 A 
ATOM      6  C   UNL     1       1.593   2.113  19.146  0.00  0.00    +0.000 A 
ATOM      7  C   UNL     1       2.699   1.553  18.507  0.00  0.00    +0.000 A 
ATOM      8  C   UNL     1       3.617   2.381  17.859  0.00  0.00    +0.000 A 
ATOM      9  C   UNL     1       3.420   3.768  17.860  0.00  0.00    +0.000 A 
ATOM     10  C   UNL     1       4.386   4.675  17.216  0.00  0.00    +0.000 A 
ATOM     11  O   UNL     1       5.364   4.235  16.614  0.00  0.00    +0.000 OA
ENDROOT
BRANCH   1  12
ATOM     12  N   UNL     1       5.075   6.946  16.815  0.00  0.00    +0.000 N 
ATOM     13  H   UNL     1       4.978   7.827  17.324  0.00  0.00    +0.000 HD
ATOM     14  H   UNL     1       4.753   7.167  15.863  0.00  0.00    +0.000 HD
ENDBRANCH   1  12
BRANCH   2  15
ATOM     15  C   UNL     1       2.725   8.015  18.027  0.00  0.00    +0.000 C 
BRANCH  15  16
ATOM     16  O   UNL     1       2.166   8.339  19.299  0.00  0.00    +0.000 OA
BRANCH  16  17
ATOM     17  C   UNL     1       1.128   9.235  19.333  0.00  0.00    +0.000 A 
ATOM     18  C   UNL     1       0.532   9.801  18.202  0.00  0.00    +0.000 A 
ATOM     19  C   UNL     1      -0.544  10.689  18.333  0.00  0.00    +0.000 A 
ATOM     20  C   UNL     1      -1.028  11.016  19.599  0.00  0.00    +0.000 A 
ATOM     21 CL   UNL     1      -2.359  12.094  19.750  0.00  0.00    +0.000 Cl
ATOM     22  C   UNL     1      -0.444  10.471  20.738  0.00  0.00    +0.000 A 
ATOM     23  C   UNL     1       0.631   9.586  20.602  0.00  0.00    +0.000 A 
ATOM     24 CL   UNL     1       1.322   8.936  22.048  0.00  0.00    +0.000 Cl
ENDBRANCH  16  17
ENDBRANCH  15  16
ENDBRANCH   2  15
TORSDOF 4
ENDMDL
MODEL 4
REMARK VINA RESULT:      -7.1      3.300      5.191
REMARK  Name = 
REMARK  4 active torsions:
REMARK  status: ('A' for Active; 'I' for Inactive)
REMARK    1  A    between atoms: N_1  and  N_2
REMARK    2  A    between atoms: C_3  and  C_4
REMARK    3  A    between atoms: C_4  and  O_5
REMARK    4  A    between atoms: O_5  and  C_6
REMARK                            x       y       z     vdW  Elec       q    Type
REMARK                         _______ _______ _______ _____ _____    ______ ____
ROOT
ATOM      1  N   UNL     1       1.829   4.644  19.582  0.00  0.00    +0.000 N 
ATOM      2  C   UNL     1       2.120   5.997  19.721  0.00  0.00    +0.000 A 
ATOM      3  N   UNL     1       3.008   6.605  18.995  0.00  0.00    +0.000 NA
ATOM      4  C   UNL     1       3.691   5.871  18.014  0.00  0.00    +0.000 A 
ATOM      5  C   UNL     1       4.603   6.540  17.194  0.00  0.00    +0.000 A 
ATOM      6  C   UNL     1       5.294   5.858  16.189  0.00  0.00    +0.000 A 
ATOM      7  C   UNL     1       5.085   4.492  15.999  0.00  0.00    +0.000 A 
ATOM      8  C   UNL     1       4.180   3.809  16.813  0.00  0.00    +0.000 A 
ATOM      9  C   UNL     1       3.487   4.505  17.813  0.00  0.00    +0.000 A 
ATOM     10  C   UNL     1       2.500   3.825  18.669  0.00  0.00    +0.000 A 
ATOM     11  O   UNL     1       2.295   2.617  18.565  0.00  0.00    +0.000 OA
ENDROOT
BRANCH   1  12
ATOM     12  N   UNL     1       0.799   4.035  20.360  0.00  0.00    +0.000 N 
ATOM     13  H   UNL     1       1.004   4.227  21.342  0.00  0.00    +0.000 HD
ATOM     14  H   UNL     1       0.944   3.020  20.265  0.00  0.00    +0.000 HD
ENDBRANCH   1  12
BRANCH   2  15
ATOM     15  C   UNL     1       1.369   6.797  20.782  0.00  0.00    +0.000 C 
BRANCH  15  16
ATOM     16  O   UNL     1       1.849   8.140  20.749  0.00  0.00    +0.000 OA
BRANCH  16  17
ATOM     17  C   UNL     1       0.984   9.120  20.334  0.00  0.00    +0.000 A 
ATOM     18  C   UNL     1       0.789   9.492  19.000  0.00  0.00    +0.000 A 
ATOM     19  C   UNL     1      -0.138  10.488  18.667  0.00  0.00    +0.000 A 
ATOM     20  C   UNL     1      -0.875  11.118  19.669  0.00  0.00    +0.000 A 
ATOM     21 CL   UNL     1      -2.023  12.328  19.250  0.00  0.00    +0.000 Cl
ATOM     22  C   UNL     1      -0.691  10.769  21.003  0.00  0.00    +0.000 A 
ATOM     23  C   UNL     1       0.237   9.775  21.331  0.00  0.00    +0.000 A 
ATOM     24 CL   UNL     1       0.430   9.378  23.003  0.00  0.00    +0.000 Cl
ENDBRANCH  16  17
ENDBRANCH  15  16
ENDBRANCH   2  15
TORSDOF 4
ENDMDL
MODEL 5
REMARK VINA RESULT:      -7.1      4.502      8.492
REMARK  Name = 
REMARK  4 active torsions:
REMARK  status: ('A' for Active; 'I' for Inactive)
REMARK    1  A    between atoms: N_1  and  N_2
REMARK    2  A    between atoms: C_3  and  C_4
REMARK    3  A    between atoms: C_4  and  O_5
REMARK    4  A    between atoms: O_5  and  C_6
REMARK                            x       y       z     vdW  Elec       q    Type
REMARK                         _______ _______ _______ _____ _____    ______ ____
ROOT
ATOM      1  N   UNL     1       1.562  10.875  18.884  0.00  0.00    +0.000 N 
ATOM      2  C   UNL     1       1.635   9.494  19.034  0.00  0.00    +0.000 A 
ATOM      3  N   UNL     1       1.129   8.869  20.053  0.00  0.00    +0.000 NA
ATOM      4  C   UNL     1       0.462   9.615  21.036  0.00  0.00    +0.000 A 
ATOM      5  C   UNL     1      -0.135   8.936  22.101  0.00  0.00    +0.000 A 
ATOM      6  C   UNL     1      -0.828   9.632  23.095  0.00  0.00    +0.000 A 
ATOM      7  C   UNL     1      -0.925  11.022  23.037  0.00  0.00    +0.000 A 
ATOM      8  C   UNL     1      -0.330  11.716  21.982  0.00  0.00    +0.000 A 
ATOM      9  C   UNL     1       0.355  11.006  20.987  0.00  0.00    +0.000 A 
ATOM     10  C   UNL     1       0.966  11.701  19.840  0.00  0.00    +0.000 A 
ATOM     11  O   UNL     1       0.935  12.928  19.753  0.00  0.00    +0.000 OA
ENDROOT
BRANCH   1  12
ATOM     12  N   UNL     1       2.079  11.510  17.714  0.00  0.00    +0.000 N 
ATOM     13  H   UNL     1       1.860  12.505  17.786  0.00  0.00    +0.000 HD
ATOM     14  H   UNL     1       1.491  11.177  16.937  0.00  0.00    +0.000 HD
ENDBRANCH   1  12
BRANCH   2  15
ATOM     15  C   UNL     1       2.352   8.682  17.960  0.00  0.00    +0.000 C 
BRANCH  15  16
ATOM     16  O   UNL     1       2.591   7.373  18.477  0.00  0.00    +0.000 OA
BRANCH  16  17
ATOM     17  C   UNL     1       3.413   6.541  17.760  0.00  0.00    +0.000 A 
ATOM     18  C   UNL     1       4.502   6.970  16.995  0.00  0.00    +0.000 A 
ATOM     19  C   UNL     1       5.304   6.043  16.316  0.00  0.00    +0.000 A 
ATOM     20  C   UNL     1       5.018   4.681  16.399  0.00  0.00    +0.000 A 
ATOM     21 CL   UNL     1       6.017   3.549  15.576  0.00  0.00    +0.000 Cl
ATOM     22  C   UNL     1       3.934   4.233  17.148  0.00  0.00    +0.000 A 
ATOM     23  C   UNL     1       3.135   5.163  17.823  0.00  0.00    +0.000 A 
ATOM     24 CL   UNL     1       1.800   4.557  18.740  0.00  0.00    +0.000 Cl
ENDBRANCH  16  17
ENDBRANCH  15  16
ENDBRANCH   2  15
TORSDOF 4
ENDMDL
MODEL 6
REMARK VINA RESULT:      -7.0      1.208      1.587
REMARK  Name = 
REMARK  4 active torsions:
REMARK  status: ('A' for Active; 'I' for Inactive)
REMARK    1  A    between atoms: N_1  and  N_2
REMARK    2  A    between atoms: C_3  and  C_4
REMARK    3  A    between atoms: C_4  and  O_5
REMARK    4  A    between atoms: O_5  and  C_6
REMARK                            x       y       z     vdW  Elec       q    Type
REMARK                         _______ _______ _______ _____ _____    ______ ____
ROOT
ATOM      1  N   UNL     1       6.107   5.199  17.150  0.00  0.00    +0.000 N 
ATOM      2  C   UNL     1       5.097   4.285  16.869  0.00  0.00    +0.000 A 
ATOM      3  N   UNL     1       4.917   3.774  15.689  0.00  0.00    +0.000 NA
ATOM      4  C   UNL     1       5.793   4.144  14.657  0.00  0.00    +0.000 A 
ATOM      5  C   UNL     1       5.636   3.548  13.402  0.00  0.00    +0.000 A 
ATOM      6  C   UNL     1       6.494   3.868  12.347  0.00  0.00    +0.000 A 
ATOM      7  C   UNL     1       7.518   4.798  12.534  0.00  0.00    +0.000 A 
ATOM      8  C   UNL     1       7.684   5.404  13.780  0.00  0.00    +0.000 A 
ATOM      9  C   UNL     1       6.822   5.070  14.833  0.00  0.00    +0.000 A 
ATOM     10  C   UNL     1       6.988   5.665  16.171  0.00  0.00    +0.000 A 
ATOM     11  O   UNL     1       7.855   6.510  16.386  0.00  0.00    +0.000 OA
ENDROOT
BRANCH   1  12
ATOM     12  N   UNL     1       6.303   5.684  18.479  0.00  0.00    +0.000 N 
ATOM     13  H   UNL     1       6.082   6.681  18.475  0.00  0.00    +0.000 HD
ATOM     14  H   UNL     1       7.320   5.650  18.637  0.00  0.00    +0.000 HD
ENDBRANCH   1  12
BRANCH   2  15
ATOM     15  C   UNL     1       4.151   3.876  17.994  0.00  0.00    +0.000 C 
BRANCH  15  16
ATOM     16  O   UNL     1       2.899   4.525  17.782  0.00  0.00    +0.000 OA
BRANCH  16  17
ATOM     17  C   UNL     1       2.465   5.409  18.737  0.00  0.00    +0.000 A 
ATOM     18  C   UNL     1       1.864   5.038  19.944  0.00  0.00    +0.000 A 
ATOM     19  C   UNL     1       1.476   6.012  20.874  0.00  0.00    +0.000 A 
ATOM     20  C   UNL     1       1.687   7.362  20.599  0.00  0.00    +0.000 A 
ATOM     21 CL   UNL     1       1.222   8.550  21.753  0.00  0.00    +0.000 Cl
ATOM     22  C   UNL     1       2.275   7.753  19.401  0.00  0.00    +0.000 A 
ATOM     23  C   UNL     1       2.660   6.778  18.475  0.00  0.00    +0.000 A 
ATOM     24 CL   UNL     1       3.387   7.314  17.000  0.00  0.00    +0.000 Cl
ENDBRANCH  16  17
ENDBRANCH  15  16
ENDBRANCH   2  15
TORSDOF 4
ENDMDL
MODEL 7
REMARK VINA RESULT:      -7.0      4.113      8.342
REMARK  Name = 
REMARK  4 active torsions:
REMARK  status: ('A' for Active; 'I' for Inactive)
REMARK    1  A    between atoms: N_1  and  N_2
REMARK    2  A    between atoms: C_3  and  C_4
REMARK    3  A    between atoms: C_4  and  O_5
REMARK    4  A    between atoms: O_5  and  C_6
REMARK                            x       y       z     vdW  Elec       q    Type
REMARK                         _______ _______ _______ _____ _____    ______ ____
ROOT
ATOM      1  N   UNL     1       1.472   9.139  19.184  0.00  0.00    +0.000 N 
ATOM      2  C   UNL     1       1.700   8.200  20.185  0.00  0.00    +0.000 A 
ATOM      3  N   UNL     1       1.184   8.295  21.372  0.00  0.00    +0.000 NA
ATOM      4  C   UNL     1       0.342   9.381  21.652  0.00  0.00    +0.000 A 
ATOM      5  C   UNL     1      -0.261   9.451  22.911  0.00  0.00    +0.000 A 
ATOM      6  C   UNL     1      -1.124  10.503  23.233  0.00  0.00    +0.000 A 
ATOM      7  C   UNL     1      -1.386  11.504  22.298  0.00  0.00    +0.000 A 
ATOM      8  C   UNL     1      -0.787  11.451  21.038  0.00  0.00    +0.000 A 
ATOM      9  C   UNL     1       0.069  10.388  20.724  0.00  0.00    +0.000 A 
ATOM     10  C   UNL     1       0.693  10.280  19.393  0.00  0.00    +0.000 A 
ATOM     11  O   UNL     1       0.519  11.148  18.539  0.00  0.00    +0.000 OA
ENDROOT
BRANCH   1  12
ATOM     12  N   UNL     1       2.012   8.956  17.875  0.00  0.00    +0.000 N 
ATOM     13  H   UNL     1       1.530   8.159  17.455  0.00  0.00    +0.000 HD
ATOM     14  H   UNL     1       2.975   8.624  18.017  0.00  0.00    +0.000 HD
ENDBRANCH   1  12
BRANCH   2  15
ATOM     15  C   UNL     1       2.609   7.013  19.875  0.00  0.00    +0.000 C 
BRANCH  15  16
ATOM     16  O   UNL     1       2.160   6.415  18.660  0.00  0.00    +0.000 OA
BRANCH  16  17
ATOM     17  C   UNL     1       3.095   5.804  17.863  0.00  0.00    +0.000 A 
ATOM     18  C   UNL     1       4.203   6.448  17.305  0.00  0.00    +0.000 A 
ATOM     19  C   UNL     1       5.122   5.735  16.524  0.00  0.00    +0.000 A 
ATOM     20  C   UNL     1       4.935   4.372  16.298  0.00  0.00    +0.000 A 
ATOM     21 CL   UNL     1       6.077   3.500  15.351  0.00  0.00    +0.000 Cl
ATOM     22  C   UNL     1       3.835   3.713  16.837  0.00  0.00    +0.000 A 
ATOM     23  C   UNL     1       2.919   4.429  17.615  0.00  0.00    +0.000 A 
ATOM     24 CL   UNL     1       1.568   3.566  18.262  0.00  0.00    +0.000 Cl
ENDBRANCH  16  17
ENDBRANCH  15  16
ENDBRANCH   2  15
TORSDOF 4
ENDMDL
MODEL 8
REMARK VINA RESULT:      -7.0      3.365      6.382
REMARK  Name = 
REMARK  4 active torsions:
REMARK  status: ('A' for Active; 'I' for Inactive)
REMARK    1  A    between atoms: N_1  and  N_2
REMARK    2  A    between atoms: C_3  and  C_4
REMARK    3  A    between atoms: C_4  and  O_5
REMARK    4  A    between atoms: O_5  and  C_6
REMARK                            x       y       z     vdW  Elec       q    Type
REMARK                         _______ _______ _______ _____ _____    ______ ____
ROOT
ATOM      1  N   UNL     1       2.822   3.982  19.314  0.00  0.00    +0.000 N 
ATOM      2  C   UNL     1       3.072   4.509  18.051  0.00  0.00    +0.000 A 
ATOM      3  N   UNL     1       2.840   5.749  17.746  0.00  0.00    +0.000 NA
ATOM      4  C   UNL     1       2.335   6.601  18.740  0.00  0.00    +0.000 A 
ATOM      5  C   UNL     1       2.143   7.950  18.428  0.00  0.00    +0.000 A 
ATOM      6  C   UNL     1       1.661   8.843  19.388  0.00  0.00    +0.000 A 
ATOM      7  C   UNL     1       1.356   8.393  20.673  0.00  0.00    +0.000 A 
ATOM      8  C   UNL     1       1.538   7.048  20.997  0.00  0.00    +0.000 A 
ATOM      9  C   UNL     1       2.030   6.163  20.029  0.00  0.00    +0.000 A 
ATOM     10  C   UNL     1       2.267   4.744  20.346  0.00  0.00    +0.000 A 
ATOM     11  O   UNL     1       1.990   4.286  21.453  0.00  0.00    +0.000 OA
ENDROOT
BRANCH   1  12
ATOM     12  N   UNL     1       3.152   2.626  19.618  0.00  0.00    +0.000 N 
ATOM     13  H   UNL     1       3.591   2.225  18.787  0.00  0.00    +0.000 HD
ATOM     14  H   UNL     1       2.252   2.133  19.693  0.00  0.00    +0.000 HD
ENDBRANCH   1  12
BRANCH   2  15
ATOM     15  C   UNL     1       3.631   3.583  16.975  0.00  0.00    +0.000 C 
BRANCH  15  16
ATOM     16  O   UNL     1       5.010   3.350  17.260  0.00  0.00    +0.000 OA
BRANCH  16  17
ATOM     17  C   UNL     1       5.787   4.430  17.590  0.00  0.00    +0.000 A 
ATOM     18  C   UNL     1       6.205   4.738  18.889  0.00  0.00    +0.000 A 
ATOM     19  C   UNL     1       7.023   5.851  19.128  0.00  0.00    +0.000 A 
ATOM     20  C   UNL     1       7.425   6.661  18.067  0.00  0.00    +0.000 A 
ATOM     21 CL   UNL     1       8.442   8.016  18.368  0.00  0.00    +0.000 Cl
ATOM     22  C   UNL     1       7.014   6.378  16.769  0.00  0.00    +0.000 A 
ATOM     23  C   UNL     1       6.197   5.267  16.535  0.00  0.00    +0.000 A 
ATOM     24 CL   UNL     1       5.712   4.957  14.904  0.00  0.00    +0.000 Cl
ENDBRANCH  16  17
ENDBRANCH  15  16
ENDBRANCH   2  15
TORSDOF 4
ENDMDL
MODEL 9
REMARK VINA RESULT:      -6.9      4.480      8.405
REMARK  Name = 
REMARK  4 active torsions:
REMARK  status: ('A' for Active; 'I' for Inactive)
REMARK    1  A    between atoms: N_1  and  N_2
REMARK    2  A    between atoms: C_3  and  C_4
REMARK    3  A    between atoms: C_4  and  O_5
REMARK    4  A    between atoms: O_5  and  C_6
REMARK                            x       y       z     vdW  Elec       q    Type
REMARK                         _______ _______ _______ _____ _____    ______ ____
ROOT
ATOM      1  N   UNL     1       1.622  10.840  18.763  0.00  0.00    +0.000 N 
ATOM      2  C   UNL     1       1.568   9.453  18.847  0.00  0.00    +0.000 A 
ATOM      3  N   UNL     1       1.023   8.829  19.846  0.00  0.00    +0.000 NA
ATOM      4  C   UNL     1       0.444   9.585  20.876  0.00  0.00    +0.000 A 
ATOM      5  C   UNL     1      -0.196   8.913  21.921  0.00  0.00    +0.000 A 
ATOM      6  C   UNL     1      -0.804   9.621  22.960  0.00  0.00    +0.000 A 
ATOM      7  C   UNL     1      -0.772  11.016  22.970  0.00  0.00    +0.000 A 
ATOM      8  C   UNL     1      -0.133  11.702  21.936  0.00  0.00    +0.000 A 
ATOM      9  C   UNL     1       0.467  10.981  20.895  0.00  0.00    +0.000 A 
ATOM     10  C   UNL     1       1.121  11.671  19.769  0.00  0.00    +0.000 A 
ATOM     11  O   UNL     1       1.204  12.898  19.740  0.00  0.00    +0.000 OA
ENDROOT
BRANCH   1  12
ATOM     12  N   UNL     1       2.177  11.481  17.614  0.00  0.00    +0.000 N 
ATOM     13  H   UNL     1       2.348  10.757  16.914  0.00  0.00    +0.000 HD
ATOM     14  H   UNL     1       3.118  11.788  17.896  0.00  0.00    +0.000 HD
ENDBRANCH   1  12
BRANCH   2  15
ATOM     15  C   UNL     1       2.189   8.631  17.722  0.00  0.00    +0.000 C 
BRANCH  15  16
ATOM     16  O   UNL     1       3.245   7.847  18.274  0.00  0.00    +0.000 OA
BRANCH  16  17
ATOM     17  C   UNL     1       3.141   6.482  18.188  0.00  0.00    +0.000 A 
ATOM     18  C   UNL     1       2.177   5.717  18.853  0.00  0.00    +0.000 A 
ATOM     19  C   UNL     1       2.131   4.327  18.684  0.00  0.00    +0.000 A 
ATOM     20  C   UNL     1       3.051   3.695  17.849  0.00  0.00    +0.000 A 
ATOM     21 CL   UNL     1       2.977   1.990  17.634  0.00  0.00    +0.000 Cl
ATOM     22  C   UNL     1       4.024   4.436  17.184  0.00  0.00    +0.000 A 
ATOM     23  C   UNL     1       4.067   5.823  17.357  0.00  0.00    +0.000 A 
ATOM     24 CL   UNL     1       5.295   6.699  16.510  0.00  0.00    +0.000 Cl
ENDBRANCH  16  17
ENDBRANCH  15  16
ENDBRANCH   2  15
TORSDOF 4
ENDMDL
