MODEL 1
REMARK VINA RESULT:      -6.5      0.000      0.000
REMARK  Name = 
REMARK  13 active torsions:
REMARK  status: ('A' for Active; 'I' for Inactive)
REMARK    1  A    between atoms: C_1  and  C_2
REMARK    2  A    between atoms: C_2  and  C_3
REMARK    3  A    between atoms: C_3  and  C_4
REMARK    4  A    between atoms: C_4  and  C_5
REMARK    5  A    between atoms: C_5  and  C_6
REMARK    6  A    between atoms: C_6  and  C_7
REMARK    7  A    between atoms: C_7  and  C_8
REMARK    8  A    between atoms: C_8  and  C_9
REMARK    9  A    between atoms: C_9  and  C_10
REMARK   10  A    between atoms: C_10  and  N_11
REMARK   11  A    between atoms: N_14  and  C_15
REMARK   12  A    between atoms: C_15  and  C_16
REMARK   13  A    between atoms: C_18  and  C_19
REMARK                            x       y       z     vdW  Elec       q    Type
REMARK                         _______ _______ _______ _____ _____    ______ ____
ROOT
ATOM      1  N   UNL     1       4.775   3.875  17.638  0.00  0.00    +0.000 NA
ATOM      2  C   UNL     1       6.073   3.971  16.941  0.00  0.00    +0.000 C 
ATOM      3  C   UNL     1       6.301   5.314  16.209  0.00  0.00    +0.000 C 
ATOM      4  N   UNL     1       6.143   6.502  17.076  0.00  0.00    +0.000 NA
ATOM      5  C   UNL     1       4.864   6.391  17.819  0.00  0.00    +0.000 C 
ATOM      6  C   UNL     1       4.637   5.041  18.536  0.00  0.00    +0.000 C 
ENDROOT
BRANCH   1   7
ATOM      7  C   UNL     1       3.632   3.801  16.710  0.00  0.00    +0.000 C 
BRANCH   7   8
ATOM      8  C   UNL     1       2.290   3.580  17.411  0.00  0.00    +0.000 C 
BRANCH   8   9
ATOM      9  C   UNL     1       2.194   2.168  17.975  0.00  0.00    +0.000 C 
BRANCH   9  10
ATOM     10  C   UNL     1       1.452   2.151  19.299  0.00  0.00    +0.000 C 
BRANCH  10  11
ATOM     11  C   UNL     1       2.045   3.203  20.228  0.00  0.00    +0.000 C 
BRANCH  11  12
ATOM     12  C   UNL     1       1.084   4.368  20.400  0.00  0.00    +0.000 C 
BRANCH  12  13
ATOM     13  C   UNL     1       1.805   5.583  20.970  0.00  0.00    +0.000 C 
BRANCH  13  14
ATOM     14  C   UNL     1       1.806   6.716  19.951  0.00  0.00    +0.000 C 
BRANCH  14  16
ATOM     15  C   UNL     1       0.369   8.142  21.423  0.00  0.00    +0.000 C 
ATOM     16  C   UNL     1       1.664   8.072  20.631  0.00  0.00    +0.000 C 
ENDBRANCH  14  16
ENDBRANCH  13  14
ENDBRANCH  12  13
ENDBRANCH  11  12
ENDBRANCH  10  11
ENDBRANCH   9  10
ENDBRANCH   8   9
ENDBRANCH   7   8
ENDBRANCH   1   7
BRANCH   4  17
ATOM     17  C   UNL     1       7.315   6.625  17.974  0.00  0.00    +0.000 C 
BRANCH  17  18
ATOM     18  C   UNL     1       7.899   7.992  17.992  0.00  0.00    +0.000 A 
ATOM     19  N   UNL     1       8.848   8.468  18.765  0.00  0.00    +0.000 NA
ATOM     20  C   UNL     1       8.834   9.807  18.451  0.00  0.00    +0.000 A 
ATOM     21  N   UNL     1       7.970  10.131  17.474  0.00  0.00    +0.000 NA
ATOM     22  O   UNL     1       7.338   8.925  17.177  0.00  0.00    +0.000 OA
BRANCH  20  23
ATOM     23  C   UNL     1       9.647  10.773  19.178  0.00  0.00    +0.000 A 
ATOM     24  C   UNL     1      10.812  11.299  18.595  0.00  0.00    +0.000 A 
ATOM     25  C   UNL     1      11.622  12.190  19.302  0.00  0.00    +0.000 A 
ATOM     26  C   UNL     1      11.273  12.561  20.599  0.00  0.00    +0.000 A 
ATOM     27  C   UNL     1      10.121  12.048  21.187  0.00  0.00    +0.000 A 
ATOM     28  C   UNL     1       9.308  11.160  20.480  0.00  0.00    +0.000 A 
ENDBRANCH  20  23
ENDBRANCH  17  18
ENDBRANCH   4  17
TORSDOF 12
ENDMDL
MODEL 2
REMARK VINA RESULT:      -6.2      4.940      7.340
REMARK  Name = 
REMARK  13 active torsions:
REMARK  status: ('A' for Active; 'I' for Inactive)
REMARK    1  A    between atoms: C_1  and  C_2
REMARK    2  A    between atoms: C_2  and  C_3
REMARK    3  A    between atoms: C_3  and  C_4
REMARK    4  A    between atoms: C_4  and  C_5
REMARK    5  A    between atoms: C_5  and  C_6
REMARK    6  A    between atoms: C_6  and  C_7
REMARK    7  A    between atoms: C_7  and  C_8
REMARK    8  A    between atoms: C_8  and  C_9
REMARK    9  A    between atoms: C_9  and  C_10
REMARK   10  A    between atoms: C_10  and  N_11
REMARK   11  A    between atoms: N_14  and  C_15
REMARK   12  A    between atoms: C_15  and  C_16
REMARK   13  A    between atoms: C_18  and  C_19
REMARK                            x       y       z     vdW  Elec       q    Type
REMARK                         _______ _______ _______ _____ _____    ______ ____
ROOT
ATOM      1  N   UNL     1       2.575   5.789  20.649  0.00  0.00    +0.000 NA
ATOM      2  C   UNL     1       2.287   4.344  20.746  0.00  0.00    +0.000 C 
ATOM      3  C   UNL     1       1.558   3.761  19.514  0.00  0.00    +0.000 C 
ATOM      4  N   UNL     1       2.249   4.018  18.232  0.00  0.00    +0.000 NA
ATOM      5  C   UNL     1       2.587   5.460  18.147  0.00  0.00    +0.000 C 
ATOM      6  C   UNL     1       3.304   6.040  19.388  0.00  0.00    +0.000 C 
ENDROOT
BRANCH   1   7
ATOM      7  C   UNL     1       1.359   6.620  20.716  0.00  0.00    +0.000 C 
BRANCH   7   8
ATOM      8  C   UNL     1       1.626   8.112  20.504  0.00  0.00    +0.000 C 
BRANCH   8   9
ATOM      9  C   UNL     1       0.483   8.955  21.052  0.00  0.00    +0.000 C 
BRANCH   9  10
ATOM     10  C   UNL     1       0.774  10.439  20.913  0.00  0.00    +0.000 C 
BRANCH  10  11
ATOM     11  C   UNL     1      -0.486  11.164  20.458  0.00  0.00    +0.000 C 
BRANCH  11  12
ATOM     12  C   UNL     1      -1.357  10.245  19.616  0.00  0.00    +0.000 C 
BRANCH  12  13
ATOM     13  C   UNL     1      -1.784  10.937  18.328  0.00  0.00    +0.000 C 
BRANCH  13  14
ATOM     14  C   UNL     1      -1.658   9.977  17.152  0.00  0.00    +0.000 C 
BRANCH  14  16
ATOM     15  C   UNL     1      -3.722  11.115  16.310  0.00  0.00    +0.000 C 
ATOM     16  C   UNL     1      -2.995   9.788  16.445  0.00  0.00    +0.000 C 
ENDBRANCH  14  16
ENDBRANCH  13  14
ENDBRANCH  12  13
ENDBRANCH  11  12
ENDBRANCH  10  11
ENDBRANCH   9  10
ENDBRANCH   8   9
ENDBRANCH   7   8
ENDBRANCH   1   7
BRANCH   4  17
ATOM     17  C   UNL     1       3.442   3.146  18.122  0.00  0.00    +0.000 C 
BRANCH  17  18
ATOM     18  C   UNL     1       4.497   3.704  17.237  0.00  0.00    +0.000 A 
ATOM     19  N   UNL     1       4.543   3.721  15.925  0.00  0.00    +0.000 NA
ATOM     20  C   UNL     1       5.812   4.193  15.684  0.00  0.00    +0.000 A 
ATOM     21  N   UNL     1       6.492   4.526  16.794  0.00  0.00    +0.000 NA
ATOM     22  O   UNL     1       5.622   4.188  17.829  0.00  0.00    +0.000 OA
BRANCH  20  23
ATOM     23  C   UNL     1       6.365   4.251  14.337  0.00  0.00    +0.000 A 
ATOM     24  C   UNL     1       7.430   5.122  14.046  0.00  0.00    +0.000 A 
ATOM     25  C   UNL     1       7.935   5.218  12.748  0.00  0.00    +0.000 A 
ATOM     26  C   UNL     1       7.380   4.445  11.731  0.00  0.00    +0.000 A 
ATOM     27  C   UNL     1       6.327   3.579  12.006  0.00  0.00    +0.000 A 
ATOM     28  C   UNL     1       5.822   3.478  13.304  0.00  0.00    +0.000 A 
ENDBRANCH  20  23
ENDBRANCH  17  18
ENDBRANCH   4  17
TORSDOF 12
ENDMDL
MODEL 3
REMARK VINA RESULT:      -6.2      1.796      2.926
REMARK  Name = 
REMARK  13 active torsions:
REMARK  status: ('A' for Active; 'I' for Inactive)
REMARK    1  A    between atoms: C_1  and  C_2
REMARK    2  A    between atoms: C_2  and  C_3
REMARK    3  A    between atoms: C_3  and  C_4
REMARK    4  A    between atoms: C_4  and  C_5
REMARK    5  A    between atoms: C_5  and  C_6
REMARK    6  A    between atoms: C_6  and  C_7
REMARK    7  A    between atoms: C_7  and  C_8
REMARK    8  A    between atoms: C_8  and  C_9
REMARK    9  A    between atoms: C_9  and  C_10
REMARK   10  A    between atoms: C_10  and  N_11
REMARK   11  A    between atoms: N_14  and  C_15
REMARK   12  A    between atoms: C_15  and  C_16
REMARK   13  A    between atoms: C_18  and  C_19
REMARK                            x       y       z     vdW  Elec       q    Type
REMARK                         _______ _______ _______ _____ _____    ______ ____
ROOT
ATOM      1  N   UNL     1       5.291   4.920  16.606  0.00  0.00    +0.000 NA
ATOM      2  C   UNL     1       5.101   6.348  16.282  0.00  0.00    +0.000 C 
ATOM      3  C   UNL     1       5.295   7.300  17.486  0.00  0.00    +0.000 C 
ATOM      4  N   UNL     1       6.596   7.142  18.171  0.00  0.00    +0.000 NA
ATOM      5  C   UNL     1       6.819   5.703  18.456  0.00  0.00    +0.000 C 
ATOM      6  C   UNL     1       6.610   4.756  17.252  0.00  0.00    +0.000 C 
ENDROOT
BRANCH   1   7
ATOM      7  C   UNL     1       4.223   4.383  17.469  0.00  0.00    +0.000 C 
BRANCH   7   8
ATOM      8  C   UNL     1       3.904   2.911  17.199  0.00  0.00    +0.000 C 
BRANCH   8   9
ATOM      9  C   UNL     1       2.422   2.626  17.406  0.00  0.00    +0.000 C 
BRANCH   9  10
ATOM     10  C   UNL     1       1.650   3.900  17.701  0.00  0.00    +0.000 C 
BRANCH  10  11
ATOM     11  C   UNL     1       1.000   3.794  19.075  0.00  0.00    +0.000 C 
BRANCH  11  12
ATOM     12  C   UNL     1       1.455   4.934  19.971  0.00  0.00    +0.000 C 
BRANCH  12  13
ATOM     13  C   UNL     1       2.254   4.404  21.155  0.00  0.00    +0.000 C 
BRANCH  13  14
ATOM     14  C   UNL     1       1.835   2.973  21.470  0.00  0.00    +0.000 C 
BRANCH  14  16
ATOM     15  C   UNL     1       4.124   2.420  20.620  0.00  0.00    +0.000 C 
ATOM     16  C   UNL     1       3.048   2.065  21.633  0.00  0.00    +0.000 C 
ENDBRANCH  14  16
ENDBRANCH  13  14
ENDBRANCH  12  13
ENDBRANCH  11  12
ENDBRANCH  10  11
ENDBRANCH   9  10
ENDBRANCH   8   9
ENDBRANCH   7   8
ENDBRANCH   1   7
BRANCH   4  17
ATOM     17  C   UNL     1       7.673   7.732  17.343  0.00  0.00    +0.000 C 
BRANCH  17  18
ATOM     18  C   UNL     1       8.264   8.959  17.938  0.00  0.00    +0.000 A 
ATOM     19  N   UNL     1       8.331  10.168  17.429  0.00  0.00    +0.000 NA
ATOM     20  C   UNL     1       9.130  10.823  18.336  0.00  0.00    +0.000 A 
ATOM     21  N   UNL     1       9.478  10.075  19.398  0.00  0.00    +0.000 NA
ATOM     22  O   UNL     1       8.913   8.831  19.126  0.00  0.00    +0.000 OA
BRANCH  20  23
ATOM     23  C   UNL     1       9.595  12.184  18.106  0.00  0.00    +0.000 A 
ATOM     24  C   UNL     1       8.845  13.277  18.571  0.00  0.00    +0.000 A 
ATOM     25  C   UNL     1       9.260  14.586  18.315  0.00  0.00    +0.000 A 
ATOM     26  C   UNL     1      10.429  14.810  17.590  0.00  0.00    +0.000 A 
ATOM     27  C   UNL     1      11.181  13.737  17.125  0.00  0.00    +0.000 A 
ATOM     28  C   UNL     1      10.770  12.427  17.384  0.00  0.00    +0.000 A 
ENDBRANCH  20  23
ENDBRANCH  17  18
ENDBRANCH   4  17
TORSDOF 12
ENDMDL
MODEL 4
REMARK VINA RESULT:      -6.2      1.634      2.669
REMARK  Name = 
REMARK  13 active torsions:
REMARK  status: ('A' for Active; 'I' for Inactive)
REMARK    1  A    between atoms: C_1  and  C_2
REMARK    2  A    between atoms: C_2  and  C_3
REMARK    3  A    between atoms: C_3  and  C_4
REMARK    4  A    between atoms: C_4  and  C_5
REMARK    5  A    between atoms: C_5  and  C_6
REMARK    6  A    between atoms: C_6  and  C_7
REMARK    7  A    between atoms: C_7  and  C_8
REMARK    8  A    between atoms: C_8  and  C_9
REMARK    9  A    between atoms: C_9  and  C_10
REMARK   10  A    between atoms: C_10  and  N_11
REMARK   11  A    between atoms: N_14  and  C_15
REMARK   12  A    between atoms: C_15  and  C_16
REMARK   13  A    between atoms: C_18  and  C_19
REMARK                            x       y       z     vdW  Elec       q    Type
REMARK                         _______ _______ _______ _____ _____    ______ ____
ROOT
ATOM      1  N   UNL     1       5.099   5.472  16.268  0.00  0.00    +0.000 NA
ATOM      2  C   UNL     1       4.904   6.856  16.744  0.00  0.00    +0.000 C 
ATOM      3  C   UNL     1       5.685   7.197  18.034  0.00  0.00    +0.000 C 
ATOM      4  N   UNL     1       7.137   6.930  17.943  0.00  0.00    +0.000 NA
ATOM      5  C   UNL     1       7.343   5.558  17.419  0.00  0.00    +0.000 C 
ATOM      6  C   UNL     1       6.549   5.220  16.136  0.00  0.00    +0.000 C 
ENDROOT
BRANCH   1   7
ATOM      7  C   UNL     1       4.479   4.471  17.155  0.00  0.00    +0.000 C 
BRANCH   7   8
ATOM      8  C   UNL     1       3.074   4.856  17.622  0.00  0.00    +0.000 C 
BRANCH   8   9
ATOM      9  C   UNL     1       2.072   3.753  17.307  0.00  0.00    +0.000 C 
BRANCH   9  10
ATOM     10  C   UNL     1       2.679   2.377  17.513  0.00  0.00    +0.000 C 
BRANCH  10  11
ATOM     11  C   UNL     1       2.276   1.843  18.881  0.00  0.00    +0.000 C 
BRANCH  11  12
ATOM     12  C   UNL     1       0.780   1.998  19.096  0.00  0.00    +0.000 C 
BRANCH  12  13
ATOM     13  C   UNL     1       0.487   3.153  20.046  0.00  0.00    +0.000 C 
BRANCH  13  14
ATOM     14  C   UNL     1       1.357   3.038  21.292  0.00  0.00    +0.000 C 
BRANCH  14  16
ATOM     15  C   UNL     1       1.747   5.454  20.769  0.00  0.00    +0.000 C 
ATOM     16  C   UNL     1       2.337   4.200  21.392  0.00  0.00    +0.000 C 
ENDBRANCH  14  16
ENDBRANCH  13  14
ENDBRANCH  12  13
ENDBRANCH  11  12
ENDBRANCH  10  11
ENDBRANCH   9  10
ENDBRANCH   8   9
ENDBRANCH   7   8
ENDBRANCH   1   7
BRANCH   4  17
ATOM     17  C   UNL     1       7.785   7.964  17.103  0.00  0.00    +0.000 C 
BRANCH  17  18
ATOM     18  C   UNL     1       8.306   9.114  17.887  0.00  0.00    +0.000 A 
ATOM     19  N   UNL     1       8.330  10.386  17.560  0.00  0.00    +0.000 NA
ATOM     20  C   UNL     1       9.076  10.934  18.577  0.00  0.00    +0.000 A 
ATOM     21  N   UNL     1       9.431  10.055  19.530  0.00  0.00    +0.000 NA
ATOM     22  O   UNL     1       8.929   8.841  19.065  0.00  0.00    +0.000 OA
BRANCH  20  23
ATOM     23  C   UNL     1       9.485  12.332  18.561  0.00  0.00    +0.000 A 
ATOM     24  C   UNL     1       9.007  13.222  19.538  0.00  0.00    +0.000 A 
ATOM     25  C   UNL     1       9.358  14.573  19.502  0.00  0.00    +0.000 A 
ATOM     26  C   UNL     1      10.188  15.045  18.488  0.00  0.00    +0.000 A 
ATOM     27  C   UNL     1      10.669  14.175  17.516  0.00  0.00    +0.000 A 
ATOM     28  C   UNL     1      10.323  12.822  17.551  0.00  0.00    +0.000 A 
ENDBRANCH  20  23
ENDBRANCH  17  18
ENDBRANCH   4  17
TORSDOF 12
ENDMDL
MODEL 5
REMARK VINA RESULT:      -6.2      1.210      1.713
REMARK  Name = 
REMARK  13 active torsions:
REMARK  status: ('A' for Active; 'I' for Inactive)
REMARK    1  A    between atoms: C_1  and  C_2
REMARK    2  A    between atoms: C_2  and  C_3
REMARK    3  A    between atoms: C_3  and  C_4
REMARK    4  A    between atoms: C_4  and  C_5
REMARK    5  A    between atoms: C_5  and  C_6
REMARK    6  A    between atoms: C_6  and  C_7
REMARK    7  A    between atoms: C_7  and  C_8
REMARK    8  A    between atoms: C_8  and  C_9
REMARK    9  A    between atoms: C_9  and  C_10
REMARK   10  A    between atoms: C_10  and  N_11
REMARK   11  A    between atoms: N_14  and  C_15
REMARK   12  A    between atoms: C_15  and  C_16
REMARK   13  A    between atoms: C_18  and  C_19
REMARK                            x       y       z     vdW  Elec       q    Type
REMARK                         _______ _______ _______ _____ _____    ______ ____
ROOT
ATOM      1  N   UNL     1       4.235   4.570  18.363  0.00  0.00    +0.000 NA
ATOM      2  C   UNL     1       5.177   5.441  19.093  0.00  0.00    +0.000 C 
ATOM      3  C   UNL     1       6.645   5.318  18.621  0.00  0.00    +0.000 C 
ATOM      4  N   UNL     1       6.828   5.537  17.170  0.00  0.00    +0.000 NA
ATOM      5  C   UNL     1       5.851   4.703  16.429  0.00  0.00    +0.000 C 
ATOM      6  C   UNL     1       4.388   4.820  16.914  0.00  0.00    +0.000 C 
ENDROOT
BRANCH   1   7
ATOM      7  C   UNL     1       4.429   3.139  18.663  0.00  0.00    +0.000 C 
BRANCH   7   8
ATOM      8  C   UNL     1       3.480   2.220  17.892  0.00  0.00    +0.000 C 
BRANCH   8   9
ATOM      9  C   UNL     1       2.279   1.833  18.746  0.00  0.00    +0.000 C 
BRANCH   9  10
ATOM     10  C   UNL     1       1.158   2.848  18.615  0.00  0.00    +0.000 C 
BRANCH  10  11
ATOM     11  C   UNL     1       0.590   3.158  19.995  0.00  0.00    +0.000 C 
BRANCH  11  12
ATOM     12  C   UNL     1       1.699   3.196  21.033  0.00  0.00    +0.000 C 
BRANCH  12  13
ATOM     13  C   UNL     1       2.179   4.624  21.257  0.00  0.00    +0.000 C 
BRANCH  13  14
ATOM     14  C   UNL     1       1.402   5.583  20.365  0.00  0.00    +0.000 C 
BRANCH  14  16
ATOM     15  C   UNL     1       2.178   7.479  18.926  0.00  0.00    +0.000 C 
ATOM     16  C   UNL     1       2.041   6.967  20.350  0.00  0.00    +0.000 C 
ENDBRANCH  14  16
ENDBRANCH  13  14
ENDBRANCH  12  13
ENDBRANCH  11  12
ENDBRANCH  10  11
ENDBRANCH   9  10
ENDBRANCH   8   9
ENDBRANCH   7   8
ENDBRANCH   1   7
BRANCH   4  17
ATOM     17  C   UNL     1       6.696   6.980  16.861  0.00  0.00    +0.000 C 
BRANCH  17  18
ATOM     18  C   UNL     1       7.528   7.846  17.736  0.00  0.00    +0.000 A 
ATOM     19  N   UNL     1       7.664   9.152  17.708  0.00  0.00    +0.000 NA
ATOM     20  C   UNL     1       8.677   9.359  18.613  0.00  0.00    +0.000 A 
ATOM     21  N   UNL     1       9.097   8.242  19.231  0.00  0.00    +0.000 NA
ATOM     22  O   UNL     1       8.341   7.232  18.637  0.00  0.00    +0.000 OA
BRANCH  20  23
ATOM     23  C   UNL     1       9.268  10.676  18.815  0.00  0.00    +0.000 A 
ATOM     24  C   UNL     1       9.819  11.379  17.729  0.00  0.00    +0.000 A 
ATOM     25  C   UNL     1      10.428  12.620  17.921  0.00  0.00    +0.000 A 
ATOM     26  C   UNL     1      10.494  13.167  19.201  0.00  0.00    +0.000 A 
ATOM     27  C   UNL     1       9.952  12.482  20.283  0.00  0.00    +0.000 A 
ATOM     28  C   UNL     1       9.338  11.242  20.093  0.00  0.00    +0.000 A 
ENDBRANCH  20  23
ENDBRANCH  17  18
ENDBRANCH   4  17
TORSDOF 12
ENDMDL
MODEL 6
REMARK VINA RESULT:      -6.2      0.617      1.200
REMARK  Name = 
REMARK  13 active torsions:
REMARK  status: ('A' for Active; 'I' for Inactive)
REMARK    1  A    between atoms: C_1  and  C_2
REMARK    2  A    between atoms: C_2  and  C_3
REMARK    3  A    between atoms: C_3  and  C_4
REMARK    4  A    between atoms: C_4  and  C_5
REMARK    5  A    between atoms: C_5  and  C_6
REMARK    6  A    between atoms: C_6  and  C_7
REMARK    7  A    between atoms: C_7  and  C_8
REMARK    8  A    between atoms: C_8  and  C_9
REMARK    9  A    between atoms: C_9  and  C_10
REMARK   10  A    between atoms: C_10  and  N_11
REMARK   11  A    between atoms: N_14  and  C_15
REMARK   12  A    between atoms: C_15  and  C_16
REMARK   13  A    between atoms: C_18  and  C_19
REMARK                            x       y       z     vdW  Elec       q    Type
REMARK                         _______ _______ _______ _____ _____    ______ ____
ROOT
ATOM      1  N   UNL     1       4.659   3.528  17.544  0.00  0.00    +0.000 NA
ATOM      2  C   UNL     1       5.780   3.873  16.648  0.00  0.00    +0.000 C 
ATOM      3  C   UNL     1       5.797   5.352  16.197  0.00  0.00    +0.000 C 
ATOM      4  N   UNL     1       5.773   6.319  17.315  0.00  0.00    +0.000 NA
ATOM      5  C   UNL     1       4.679   5.951  18.248  0.00  0.00    +0.000 C 
ATOM      6  C   UNL     1       4.661   4.469  18.684  0.00  0.00    +0.000 C 
ENDROOT
BRANCH   1   7
ATOM      7  C   UNL     1       3.353   3.550  16.860  0.00  0.00    +0.000 C 
BRANCH   7   8
ATOM      8  C   UNL     1       2.165   3.678  17.816  0.00  0.00    +0.000 C 
BRANCH   8   9
ATOM      9  C   UNL     1       2.077   2.474  18.744  0.00  0.00    +0.000 C 
BRANCH   9  10
ATOM     10  C   UNL     1       1.251   2.787  19.980  0.00  0.00    +0.000 C 
BRANCH  10  11
ATOM     11  C   UNL     1       0.929   4.276  20.012  0.00  0.00    +0.000 C 
BRANCH  11  12
ATOM     12  C   UNL     1       1.831   4.997  20.999  0.00  0.00    +0.000 C 
BRANCH  12  13
ATOM     13  C   UNL     1       1.886   6.488  20.691  0.00  0.00    +0.000 C 
BRANCH  13  14
ATOM     14  C   UNL     1       0.575   7.153  21.092  0.00  0.00    +0.000 C 
BRANCH  14  16
ATOM     15  C   UNL     1       1.501   9.161  22.266  0.00  0.00    +0.000 C 
ATOM     16  C   UNL     1       0.697   8.672  21.074  0.00  0.00    +0.000 C 
ENDBRANCH  14  16
ENDBRANCH  13  14
ENDBRANCH  12  13
ENDBRANCH  11  12
ENDBRANCH  10  11
ENDBRANCH   9  10
ENDBRANCH   8   9
ENDBRANCH   7   8
ENDBRANCH   1   7
BRANCH   4  17
ATOM     17  C   UNL     1       7.098   6.354  17.976  0.00  0.00    +0.000 C 
BRANCH  17  18
ATOM     18  C   UNL     1       7.724   7.701  17.965  0.00  0.00    +0.000 A 
ATOM     19  N   UNL     1       8.664   8.176  18.750  0.00  0.00    +0.000 NA
ATOM     20  C   UNL     1       8.702   9.502  18.390  0.00  0.00    +0.000 A 
ATOM     21  N   UNL     1       7.878   9.818  17.376  0.00  0.00    +0.000 NA
ATOM     22  O   UNL     1       7.217   8.622  17.102  0.00  0.00    +0.000 OA
BRANCH  20  23
ATOM     23  C   UNL     1       9.524  10.468  19.107  0.00  0.00    +0.000 A 
ATOM     24  C   UNL     1       9.232  10.793  20.443  0.00  0.00    +0.000 A 
ATOM     25  C   UNL     1       9.985  11.751  21.123  0.00  0.00    +0.000 A 
ATOM     26  C   UNL     1      11.035  12.395  20.472  0.00  0.00    +0.000 A 
ATOM     27  C   UNL     1      11.335  12.083  19.150  0.00  0.00    +0.000 A 
ATOM     28  C   UNL     1      10.585  11.121  18.469  0.00  0.00    +0.000 A 
ENDBRANCH  20  23
ENDBRANCH  17  18
ENDBRANCH   4  17
TORSDOF 12
ENDMDL
MODEL 7
REMARK VINA RESULT:      -6.1      4.598      7.294
REMARK  Name = 
REMARK  13 active torsions:
REMARK  status: ('A' for Active; 'I' for Inactive)
REMARK    1  A    between atoms: C_1  and  C_2
REMARK    2  A    between atoms: C_2  and  C_3
REMARK    3  A    between atoms: C_3  and  C_4
REMARK    4  A    between atoms: C_4  and  C_5
REMARK    5  A    between atoms: C_5  and  C_6
REMARK    6  A    between atoms: C_6  and  C_7
REMARK    7  A    between atoms: C_7  and  C_8
REMARK    8  A    between atoms: C_8  and  C_9
REMARK    9  A    between atoms: C_9  and  C_10
REMARK   10  A    between atoms: C_10  and  N_11
REMARK   11  A    between atoms: N_14  and  C_15
REMARK   12  A    between atoms: C_15  and  C_16
REMARK   13  A    between atoms: C_18  and  C_19
REMARK                            x       y       z     vdW  Elec       q    Type
REMARK                         _______ _______ _______ _____ _____    ______ ____
ROOT
ATOM      1  N   UNL     1       2.391   6.099  20.739  0.00  0.00    +0.000 NA
ATOM      2  C   UNL     1       2.133   4.650  20.862  0.00  0.00    +0.000 C 
ATOM      3  C   UNL     1       1.532   4.005  19.591  0.00  0.00    +0.000 C 
ATOM      4  N   UNL     1       2.327   4.240  18.367  0.00  0.00    +0.000 NA
ATOM      5  C   UNL     1       2.633   5.688  18.260  0.00  0.00    +0.000 C 
ATOM      6  C   UNL     1       3.221   6.329  19.538  0.00  0.00    +0.000 C 
ENDROOT
BRANCH   1   7
ATOM      7  C   UNL     1       1.152   6.895  20.669  0.00  0.00    +0.000 C 
BRANCH   7   8
ATOM      8  C   UNL     1       1.395   8.406  20.691  0.00  0.00    +0.000 C 
BRANCH   8   9
ATOM      9  C   UNL     1       1.281   8.958  22.105  0.00  0.00    +0.000 C 
BRANCH   9  10
ATOM     10  C   UNL     1       0.001   9.756  22.286  0.00  0.00    +0.000 C 
BRANCH  10  11
ATOM     11  C   UNL     1      -0.261  10.585  21.035  0.00  0.00    +0.000 C 
BRANCH  11  12
ATOM     12  C   UNL     1       0.327  11.978  21.185  0.00  0.00    +0.000 C 
BRANCH  12  13
ATOM     13  C   UNL     1       0.468  12.653  19.825  0.00  0.00    +0.000 C 
BRANCH  13  14
ATOM     14  C   UNL     1       1.216  11.738  18.863  0.00  0.00    +0.000 C 
BRANCH  14  16
ATOM     15  C   UNL     1       2.746  13.715  18.996  0.00  0.00    +0.000 C 
ATOM     16  C   UNL     1       2.393  12.459  18.217  0.00  0.00    +0.000 C 
ENDBRANCH  14  16
ENDBRANCH  13  14
ENDBRANCH  12  13
ENDBRANCH  11  12
ENDBRANCH  10  11
ENDBRANCH   9  10
ENDBRANCH   8   9
ENDBRANCH   7   8
ENDBRANCH   1   7
BRANCH   4  17
ATOM     17  C   UNL     1       3.547   3.401  18.393  0.00  0.00    +0.000 C 
BRANCH  17  18
ATOM     18  C   UNL     1       4.603   3.871  17.459  0.00  0.00    +0.000 A 
ATOM     19  N   UNL     1       4.587   3.891  16.145  0.00  0.00    +0.000 NA
ATOM     20  C   UNL     1       5.879   4.253  15.844  0.00  0.00    +0.000 A 
ATOM     21  N   UNL     1       6.638   4.521  16.921  0.00  0.00    +0.000 NA
ATOM     22  O   UNL     1       5.792   4.254  17.996  0.00  0.00    +0.000 OA
BRANCH  20  23
ATOM     23  C   UNL     1       6.371   4.271  14.473  0.00  0.00    +0.000 A 
ATOM     24  C   UNL     1       7.405   5.147  14.103  0.00  0.00    +0.000 A 
ATOM     25  C   UNL     1       7.851   5.204  12.781  0.00  0.00    +0.000 A 
ATOM     26  C   UNL     1       7.264   4.386  11.818  0.00  0.00    +0.000 A 
ATOM     27  C   UNL     1       6.239   3.514  12.171  0.00  0.00    +0.000 A 
ATOM     28  C   UNL     1       5.795   3.452  13.494  0.00  0.00    +0.000 A 
ENDBRANCH  20  23
ENDBRANCH  17  18
ENDBRANCH   4  17
TORSDOF 12
ENDMDL
MODEL 8
REMARK VINA RESULT:      -6.1      5.048      8.122
REMARK  Name = 
REMARK  13 active torsions:
REMARK  status: ('A' for Active; 'I' for Inactive)
REMARK    1  A    between atoms: C_1  and  C_2
REMARK    2  A    between atoms: C_2  and  C_3
REMARK    3  A    between atoms: C_3  and  C_4
REMARK    4  A    between atoms: C_4  and  C_5
REMARK    5  A    between atoms: C_5  and  C_6
REMARK    6  A    between atoms: C_6  and  C_7
REMARK    7  A    between atoms: C_7  and  C_8
REMARK    8  A    between atoms: C_8  and  C_9
REMARK    9  A    between atoms: C_9  and  C_10
REMARK   10  A    between atoms: C_10  and  N_11
REMARK   11  A    between atoms: N_14  and  C_15
REMARK   12  A    between atoms: C_15  and  C_16
REMARK   13  A    between atoms: C_18  and  C_19
REMARK                            x       y       z     vdW  Elec       q    Type
REMARK                         _______ _______ _______ _____ _____    ______ ____
ROOT
ATOM      1  N   UNL     1       4.775   5.258  17.563  0.00  0.00    +0.000 NA
ATOM      2  C   UNL     1       3.836   6.392  17.456  0.00  0.00    +0.000 C 
ATOM      3  C   UNL     1       2.420   6.094  18.001  0.00  0.00    +0.000 C 
ATOM      4  N   UNL     1       2.407   5.601  19.395  0.00  0.00    +0.000 NA
ATOM      5  C   UNL     1       3.384   4.492  19.525  0.00  0.00    +0.000 C 
ATOM      6  C   UNL     1       4.794   4.792  18.965  0.00  0.00    +0.000 C 
ENDROOT
BRANCH   1   7
ATOM      7  C   UNL     1       4.434   4.147  16.655  0.00  0.00    +0.000 C 
BRANCH   7   8
ATOM      8  C   UNL     1       5.610   3.676  15.797  0.00  0.00    +0.000 C 
BRANCH   8   9
ATOM      9  C   UNL     1       6.427   4.858  15.293  0.00  0.00    +0.000 C 
BRANCH   9  10
ATOM     10  C   UNL     1       6.742   4.722  13.814  0.00  0.00    +0.000 C 
BRANCH  10  11
ATOM     11  C   UNL     1       6.107   3.447  13.274  0.00  0.00    +0.000 C 
BRANCH  11  12
ATOM     12  C   UNL     1       5.505   3.689  11.900  0.00  0.00    +0.000 C 
BRANCH  12  13
ATOM     13  C   UNL     1       3.987   3.564  11.947  0.00  0.00    +0.000 C 
BRANCH  13  14
ATOM     14  C   UNL     1       3.467   3.016  10.623  0.00  0.00    +0.000 C 
BRANCH  14  16
ATOM     15  C   UNL     1       2.274   4.707   9.216  0.00  0.00    +0.000 C 
ATOM     16  C   UNL     1       3.609   4.042   9.505  0.00  0.00    +0.000 C 
ENDBRANCH  14  16
ENDBRANCH  13  14
ENDBRANCH  12  13
ENDBRANCH  11  12
ENDBRANCH  10  11
ENDBRANCH   9  10
ENDBRANCH   8   9
ENDBRANCH   7   8
ENDBRANCH   1   7
BRANCH   4  17
ATOM     17  C   UNL     1       2.688   6.719  20.325  0.00  0.00    +0.000 C 
BRANCH  17  18
ATOM     18  C   UNL     1       1.690   7.817  20.241  0.00  0.00    +0.000 A 
ATOM     19  N   UNL     1       1.615   8.793  19.365  0.00  0.00    +0.000 NA
ATOM     20  C   UNL     1       0.618   9.580  19.890  0.00  0.00    +0.000 A 
ATOM     21  N   UNL     1       0.048   9.075  20.998  0.00  0.00    +0.000 NA
ATOM     22  O   UNL     1       0.771   7.908  21.239  0.00  0.00    +0.000 OA
BRANCH  20  23
ATOM     23  C   UNL     1       0.278  10.874  19.313  0.00  0.00    +0.000 A 
ATOM     24  C   UNL     1       1.272  11.849  19.125  0.00  0.00    +0.000 A 
ATOM     25  C   UNL     1       0.946  13.108  18.616  0.00  0.00    +0.000 A 
ATOM     26  C   UNL     1      -0.377  13.401  18.291  0.00  0.00    +0.000 A 
ATOM     27  C   UNL     1      -1.370  12.444  18.471  0.00  0.00    +0.000 A 
ATOM     28  C   UNL     1      -1.046  11.183  18.977  0.00  0.00    +0.000 A 
ENDBRANCH  20  23
ENDBRANCH  17  18
ENDBRANCH   4  17
TORSDOF 12
ENDMDL
MODEL 9
REMARK VINA RESULT:      -6.0      1.909      2.737
REMARK  Name = 
REMARK  13 active torsions:
REMARK  status: ('A' for Active; 'I' for Inactive)
REMARK    1  A    between atoms: C_1  and  C_2
REMARK    2  A    between atoms: C_2  and  C_3
REMARK    3  A    between atoms: C_3  and  C_4
REMARK    4  A    between atoms: C_4  and  C_5
REMARK    5  A    between atoms: C_5  and  C_6
REMARK    6  A    between atoms: C_6  and  C_7
REMARK    7  A    between atoms: C_7  and  C_8
REMARK    8  A    between atoms: C_8  and  C_9
REMARK    9  A    between atoms: C_9  and  C_10
REMARK   10  A    between atoms: C_10  and  N_11
REMARK   11  A    between atoms: N_14  and  C_15
REMARK   12  A    between atoms: C_15  and  C_16
REMARK   13  A    between atoms: C_18  and  C_19
REMARK                            x       y       z     vdW  Elec       q    Type
REMARK                         _______ _______ _______ _____ _____    ______ ____
ROOT
ATOM      1  N   UNL     1       4.963   4.952  16.288  0.00  0.00    +0.000 NA
ATOM      2  C   UNL     1       4.836   6.422  16.340  0.00  0.00    +0.000 C 
ATOM      3  C   UNL     1       5.308   7.051  17.672  0.00  0.00    +0.000 C 
ATOM      4  N   UNL     1       6.690   6.684  18.049  0.00  0.00    +0.000 NA
ATOM      5  C   UNL     1       6.842   5.211  17.952  0.00  0.00    +0.000 C 
ATOM      6  C   UNL     1       6.355   4.588  16.624  0.00  0.00    +0.000 C 
ENDROOT
BRANCH   1   7
ATOM      7  C   UNL     1       4.019   4.265  17.188  0.00  0.00    +0.000 C 
BRANCH   7   8
ATOM      8  C   UNL     1       4.062   2.740  17.069  0.00  0.00    +0.000 C 
BRANCH   8   9
ATOM      9  C   UNL     1       3.884   2.080  18.429  0.00  0.00    +0.000 C 
BRANCH   9  10
ATOM     10  C   UNL     1       4.470   2.934  19.540  0.00  0.00    +0.000 C 
BRANCH  10  11
ATOM     11  C   UNL     1       4.118   2.323  20.890  0.00  0.00    +0.000 C 
BRANCH  11  12
ATOM     12  C   UNL     1       2.632   2.470  21.173  0.00  0.00    +0.000 C 
BRANCH  12  13
ATOM     13  C   UNL     1       2.258   3.937  21.346  0.00  0.00    +0.000 C 
BRANCH  13  14
ATOM     14  C   UNL     1       0.968   4.240  20.594  0.00  0.00    +0.000 C 
BRANCH  14  16
ATOM     15  C   UNL     1       0.441   2.588  18.789  0.00  0.00    +0.000 C 
ATOM     16  C   UNL     1       1.103   3.918  19.111  0.00  0.00    +0.000 C 
ENDBRANCH  14  16
ENDBRANCH  13  14
ENDBRANCH  12  13
ENDBRANCH  11  12
ENDBRANCH  10  11
ENDBRANCH   9  10
ENDBRANCH   8   9
ENDBRANCH   7   8
ENDBRANCH   1   7
BRANCH   4  17
ATOM     17  C   UNL     1       7.654   7.414  17.194  0.00  0.00    +0.000 C 
BRANCH  17  18
ATOM     18  C   UNL     1       8.194   8.642  17.834  0.00  0.00    +0.000 A 
ATOM     19  N   UNL     1       8.299   9.851  17.331  0.00  0.00    +0.000 NA
ATOM     20  C   UNL     1       9.021  10.507  18.299  0.00  0.00    +0.000 A 
ATOM     21  N   UNL     1       9.283   9.761  19.386  0.00  0.00    +0.000 NA
ATOM     22  O   UNL     1       8.744   8.515  19.071  0.00  0.00    +0.000 OA
BRANCH  20  23
ATOM     23  C   UNL     1       9.502  11.869  18.107  0.00  0.00    +0.000 A 
ATOM     24  C   UNL     1       8.650  12.961  18.345  0.00  0.00    +0.000 A 
ATOM     25  C   UNL     1       9.088  14.267  18.118  0.00  0.00    +0.000 A 
ATOM     26  C   UNL     1      10.381  14.492  17.650  0.00  0.00    +0.000 A 
ATOM     27  C   UNL     1      11.234  13.419  17.411  0.00  0.00    +0.000 A 
ATOM     28  C   UNL     1      10.800  12.112  17.641  0.00  0.00    +0.000 A 
ENDBRANCH  20  23
ENDBRANCH  17  18
ENDBRANCH   4  17
TORSDOF 12
ENDMDL
