MODEL 1
REMARK VINA RESULT:      -7.5      0.000      0.000
REMARK  Name = 
REMARK  11 active torsions:
REMARK  status: ('A' for Active; 'I' for Inactive)
REMARK    1  A    between atoms: C_1  and  O_2
REMARK    2  A    between atoms: O_2  and  C_3
REMARK    3  A    between atoms: C_9  and  N_10
REMARK    4  A    between atoms: N_10  and  C_11
REMARK    5  A    between atoms: C_11  and  C_12
REMARK    6  A    between atoms: C_12  and  N_13
REMARK    7  A    between atoms: C_15  and  C_16
REMARK    8  A    between atoms: C_21  and  O_22
REMARK    9  A    between atoms: C_24  and  O_25
REMARK   10  A    between atoms: C_30  and  C_31
REMARK   11  A    between atoms: C_30  and  C_32
REMARK                            x       y       z     vdW  Elec       q    Type
REMARK                         _______ _______ _______ _____ _____    ______ ____
ROOT
ATOM      1  C   UNL     1      -0.514  11.462  20.414  0.00  0.00    +0.000 A 
ATOM      2  C   UNL     1      -0.976  12.251  21.472  0.00  0.00    +0.000 A 
ATOM      3  C   UNL     1      -2.272  12.754  21.486  0.00  0.00    +0.000 A 
ATOM      4  C   UNL     1      -3.088  12.548  20.354  0.00  0.00    +0.000 A 
ATOM      5  C   UNL     1      -2.642  11.746  19.257  0.00  0.00    +0.000 A 
ATOM      6  C   UNL     1      -3.515  11.465  18.161  0.00  0.00    +0.000 A 
ATOM      7  C   UNL     1      -3.076  10.809  16.995  0.00  0.00    +0.000 A 
ATOM      8  C   UNL     1      -1.801  10.242  17.045  0.00  0.00    +0.000 A 
ATOM      9  C   UNL     1      -0.937  10.389  18.149  0.00  0.00    +0.000 A 
ATOM     10  C   UNL     1       0.400   9.694  18.025  0.00  0.00    +0.000 C 
ATOM     11  C   UNL     1      -1.326  11.191  19.267  0.00  0.00    +0.000 A 
ATOM     12  C   UNL     1      -4.959  11.786  18.369  0.00  0.00    +0.000 C 
ATOM     13  O   UNL     1      -5.864  11.171  17.818  0.00  0.00    +0.000 OA
ATOM     14  C   UNL     1      -5.347  12.812  19.346  0.00  0.00    +0.000 A 
ATOM     15  C   UNL     1      -6.644  13.352  19.341  0.00  0.00    +0.000 A 
ATOM     16  C   UNL     1      -7.042  14.257  20.318  0.00  0.00    +0.000 A 
ATOM     17  C   UNL     1      -6.134  14.633  21.300  0.00  0.00    +0.000 A 
ATOM     18  C   UNL     1      -4.824  14.134  21.274  0.00  0.00    +0.000 A 
ATOM     19  C   UNL     1      -4.421  13.179  20.320  0.00  0.00    +0.000 A 
ATOM     20  C   UNL     1      -3.824  14.542  22.289  0.00  0.00    +0.000 C 
ATOM     21  O   UNL     1      -3.779  15.694  22.708  0.00  0.00    +0.000 OA
ATOM     22  C   UNL     1      -2.857  13.438  22.728  0.00  0.00    +0.000 C 
ATOM     23  C   UNL     1      -3.668  12.391  23.529  0.00  0.00    +0.000 C 
ATOM     24  C   UNL     1      -1.801  14.038  23.679  0.00  0.00    +0.000 C 
ENDROOT
BRANCH   1  26
ATOM     25  C   UNL     1       1.026  10.041  21.530  0.00  0.00    +0.000 C 
ATOM     26  O   UNL     1       0.763  10.956  20.462  0.00  0.00    +0.000 OA
ENDBRANCH   1  26
BRANCH   7  27
ATOM     27  N   UNL     1      -3.804  10.528  15.820  0.00  0.00    +0.000 N 
ATOM     28  H   UNL     1      -4.344  11.358  15.563  0.00  0.00    +0.000 HD
BRANCH  27  29
ATOM     29  C   UNL     1      -3.063  10.069  14.631  0.00  0.00    +0.000 C 
BRANCH  29  30
ATOM     30  C   UNL     1      -4.002   9.942  13.415  0.00  0.00    +0.000 C 
BRANCH  30  31
ATOM     31  N   UNL     1      -3.277   9.663  12.168  0.00  0.00    +0.000 NA
ATOM     32  H   UNL     1      -3.224   8.650  12.063  0.00  0.00    +0.000 HD
ATOM     33  H   UNL     1      -2.318   9.992  12.262  0.00  0.00    +0.000 HD
ENDBRANCH  30  31
ENDBRANCH  29  30
ENDBRANCH  27  29
ENDBRANCH   7  27
BRANCH  15  34
ATOM     34  O   UNL     1      -7.589  13.007  18.411  0.00  0.00    +0.000 OA
ATOM     35  H   UNL     1      -8.471  13.241  18.780  0.00  0.00    +0.000 HD
ENDBRANCH  15  34
BRANCH  17  36
ATOM     36  O   UNL     1      -6.553  15.416  22.336  0.00  0.00    +0.000 OA
ATOM     37  H   UNL     1      -6.689  16.329  22.034  0.00  0.00    +0.000 HD
ENDBRANCH  17  36
TORSDOF 7
ENDMDL
MODEL 2
REMARK VINA RESULT:      -7.3      2.451      5.071
REMARK  Name = 
REMARK  11 active torsions:
REMARK  status: ('A' for Active; 'I' for Inactive)
REMARK    1  A    between atoms: C_1  and  O_2
REMARK    2  A    between atoms: O_2  and  C_3
REMARK    3  A    between atoms: C_9  and  N_10
REMARK    4  A    between atoms: N_10  and  C_11
REMARK    5  A    between atoms: C_11  and  C_12
REMARK    6  A    between atoms: C_12  and  N_13
REMARK    7  A    between atoms: C_15  and  C_16
REMARK    8  A    between atoms: C_21  and  O_22
REMARK    9  A    between atoms: C_24  and  O_25
REMARK   10  A    between atoms: C_30  and  C_31
REMARK   11  A    between atoms: C_30  and  C_32
REMARK                            x       y       z     vdW  Elec       q    Type
REMARK                         _______ _______ _______ _____ _____    ______ ____
ROOT
ATOM      1  C   UNL     1      -5.330  11.640  19.194  0.00  0.00    +0.000 A 
ATOM      2  C   UNL     1      -5.894  11.996  20.423  0.00  0.00    +0.000 A 
ATOM      3  C   UNL     1      -5.145  12.641  21.401  0.00  0.00    +0.000 A 
ATOM      4  C   UNL     1      -3.766  12.835  21.177  0.00  0.00    +0.000 A 
ATOM      5  C   UNL     1      -3.162  12.480  19.931  0.00  0.00    +0.000 A 
ATOM      6  C   UNL     1      -1.785  12.771  19.682  0.00  0.00    +0.000 A 
ATOM      7  C   UNL     1      -1.112  12.310  18.535  0.00  0.00    +0.000 A 
ATOM      8  C   UNL     1      -1.904  11.743  17.535  0.00  0.00    +0.000 A 
ATOM      9  C   UNL     1      -3.291  11.536  17.679  0.00  0.00    +0.000 A 
ATOM     10  C   UNL     1      -3.984  10.920  16.485  0.00  0.00    +0.000 C 
ATOM     11  C   UNL     1      -3.945  11.860  18.909  0.00  0.00    +0.000 A 
ATOM     12  C   UNL     1      -1.125  13.707  20.641  0.00  0.00    +0.000 C 
ATOM     13  O   UNL     1      -0.201  14.445  20.323  0.00  0.00    +0.000 OA
ATOM     14  C   UNL     1      -1.649  13.844  22.007  0.00  0.00    +0.000 A 
ATOM     15  C   UNL     1      -0.882  14.461  23.010  0.00  0.00    +0.000 A 
ATOM     16  C   UNL     1      -1.408  14.671  24.279  0.00  0.00    +0.000 A 
ATOM     17  C   UNL     1      -2.704  14.254  24.551  0.00  0.00    +0.000 A 
ATOM     18  C   UNL     1      -3.450  13.591  23.566  0.00  0.00    +0.000 A 
ATOM     19  C   UNL     1      -2.949  13.414  22.261  0.00  0.00    +0.000 A 
ATOM     20  C   UNL     1      -4.824  13.104  23.837  0.00  0.00    +0.000 C 
ATOM     21  O   UNL     1      -5.122  12.619  24.923  0.00  0.00    +0.000 OA
ATOM     22  C   UNL     1      -5.798  13.223  22.661  0.00  0.00    +0.000 C 
ATOM     23  C   UNL     1      -6.069  14.728  22.423  0.00  0.00    +0.000 C 
ATOM     24  C   UNL     1      -7.138  12.562  23.045  0.00  0.00    +0.000 C 
ENDROOT
BRANCH   1  26
ATOM     25  C   UNL     1      -6.994  10.013  18.724  0.00  0.00    +0.000 C 
ATOM     26  O   UNL     1      -6.119  11.037  18.243  0.00  0.00    +0.000 OA
ENDBRANCH   1  26
BRANCH   7  27
ATOM     27  N   UNL     1       0.249  12.464  18.196  0.00  0.00    +0.000 N 
ATOM     28  H   UNL     1       0.505  13.449  18.304  0.00  0.00    +0.000 HD
BRANCH  27  29
ATOM     29  C   UNL     1       1.244  11.645  18.912  0.00  0.00    +0.000 C 
BRANCH  29  30
ATOM     30  C   UNL     1       1.067  10.150  18.579  0.00  0.00    +0.000 C 
BRANCH  30  31
ATOM     31  N   UNL     1       1.922   9.714  17.467  0.00  0.00    +0.000 NA
ATOM     32  H   UNL     1       1.632  10.229  16.636  0.00  0.00    +0.000 HD
ATOM     33  H   UNL     1       1.738   8.731  17.274  0.00  0.00    +0.000 HD
ENDBRANCH  30  31
ENDBRANCH  29  30
ENDBRANCH  27  29
ENDBRANCH   7  27
BRANCH  15  34
ATOM     34  O   UNL     1       0.394  14.911  22.797  0.00  0.00    +0.000 OA
ATOM     35  H   UNL     1       0.948  14.134  22.556  0.00  0.00    +0.000 HD
ENDBRANCH  15  34
BRANCH  17  36
ATOM     36  O   UNL     1      -3.274  14.573  25.749  0.00  0.00    +0.000 OA
ATOM     37  H   UNL     1      -3.458  15.526  25.791  0.00  0.00    +0.000 HD
ENDBRANCH  17  36
TORSDOF 7
ENDMDL
MODEL 3
REMARK VINA RESULT:      -7.0      1.245      1.405
REMARK  Name = 
REMARK  11 active torsions:
REMARK  status: ('A' for Active; 'I' for Inactive)
REMARK    1  A    between atoms: C_1  and  O_2
REMARK    2  A    between atoms: O_2  and  C_3
REMARK    3  A    between atoms: C_9  and  N_10
REMARK    4  A    between atoms: N_10  and  C_11
REMARK    5  A    between atoms: C_11  and  C_12
REMARK    6  A    between atoms: C_12  and  N_13
REMARK    7  A    between atoms: C_15  and  C_16
REMARK    8  A    between atoms: C_21  and  O_22
REMARK    9  A    between atoms: C_24  and  O_25
REMARK   10  A    between atoms: C_30  and  C_31
REMARK   11  A    between atoms: C_30  and  C_32
REMARK                            x       y       z     vdW  Elec       q    Type
REMARK                         _______ _______ _______ _____ _____    ______ ____
ROOT
ATOM      1  C   UNL     1      -0.645  12.645  21.325  0.00  0.00    +0.000 A 
ATOM      2  C   UNL     1      -1.336  13.176  22.419  0.00  0.00    +0.000 A 
ATOM      3  C   UNL     1      -2.721  13.295  22.409  0.00  0.00    +0.000 A 
ATOM      4  C   UNL     1      -3.418  12.974  21.225  0.00  0.00    +0.000 A 
ATOM      5  C   UNL     1      -2.739  12.430  20.092  0.00  0.00    +0.000 A 
ATOM      6  C   UNL     1      -3.470  12.017  18.935  0.00  0.00    +0.000 A 
ATOM      7  C   UNL     1      -2.835  11.617  17.744  0.00  0.00    +0.000 A 
ATOM      8  C   UNL     1      -1.454  11.424  17.810  0.00  0.00    +0.000 A 
ATOM      9  C   UNL     1      -0.694  11.705  18.964  0.00  0.00    +0.000 A 
ATOM     10  C   UNL     1       0.787  11.423  18.851  0.00  0.00    +0.000 C 
ATOM     11  C   UNL     1      -1.320  12.263  20.122  0.00  0.00    +0.000 A 
ATOM     12  C   UNL     1      -4.950  11.904  19.097  0.00  0.00    +0.000 C 
ATOM     13  O   UNL     1      -5.633  11.115  18.455  0.00  0.00    +0.000 OA
ATOM     14  C   UNL     1      -5.635  12.690  20.133  0.00  0.00    +0.000 A 
ATOM     15  C   UNL     1      -7.031  12.847  20.107  0.00  0.00    +0.000 A 
ATOM     16  C   UNL     1      -7.691  13.514  21.132  0.00  0.00    +0.000 A 
ATOM     17  C   UNL     1      -6.950  14.037  22.184  0.00  0.00    +0.000 A 
ATOM     18  C   UNL     1      -5.552  13.927  22.183  0.00  0.00    +0.000 A 
ATOM     19  C   UNL     1      -4.874  13.211  21.176  0.00  0.00    +0.000 A 
ATOM     20  C   UNL     1      -4.732  14.503  23.275  0.00  0.00    +0.000 C 
ATOM     21  O   UNL     1      -5.023  15.579  23.785  0.00  0.00    +0.000 OA
ATOM     22  C   UNL     1      -3.506  13.676  23.671  0.00  0.00    +0.000 C 
ATOM     23  C   UNL     1      -4.010  12.377  24.346  0.00  0.00    +0.000 C 
ATOM     24  C   UNL     1      -2.685  14.458  24.717  0.00  0.00    +0.000 C 
ENDROOT
BRANCH   1  26
ATOM     25  C   UNL     1       1.466  13.731  21.337  0.00  0.00    +0.000 C 
ATOM     26  O   UNL     1       0.721  12.511  21.395  0.00  0.00    +0.000 OA
ENDBRANCH   1  26
BRANCH   7  27
ATOM     27  N   UNL     1      -3.426  11.252  16.516  0.00  0.00    +0.000 N 
ATOM     28  H   UNL     1      -3.605  12.100  15.973  0.00  0.00    +0.000 HD
BRANCH  27  29
ATOM     29  C   UNL     1      -2.713  10.291  15.655  0.00  0.00    +0.000 C 
BRANCH  29  30
ATOM     30  C   UNL     1      -3.475  10.068  14.333  0.00  0.00    +0.000 C 
BRANCH  30  31
ATOM     31  N   UNL     1      -2.577   9.802  13.201  0.00  0.00    +0.000 NA
ATOM     32  H   UNL     1      -1.992  10.627  13.072  0.00  0.00    +0.000 HD
ATOM     33  H   UNL     1      -3.133   9.709  12.353  0.00  0.00    +0.000 HD
ENDBRANCH  30  31
ENDBRANCH  29  30
ENDBRANCH  27  29
ENDBRANCH   7  27
BRANCH  15  34
ATOM     34  O   UNL     1      -7.817  12.338  19.107  0.00  0.00    +0.000 OA
ATOM     35  H   UNL     1      -8.631  11.973  19.524  0.00  0.00    +0.000 HD
ENDBRANCH  15  34
BRANCH  17  36
ATOM     36  O   UNL     1      -7.598  14.576  23.257  0.00  0.00    +0.000 OA
ATOM     37  H   UNL     1      -7.118  14.372  24.077  0.00  0.00    +0.000 HD
ENDBRANCH  17  36
TORSDOF 7
ENDMDL
MODEL 4
REMARK VINA RESULT:      -6.9      3.147      6.256
REMARK  Name = 
REMARK  11 active torsions:
REMARK  status: ('A' for Active; 'I' for Inactive)
REMARK    1  A    between atoms: C_1  and  O_2
REMARK    2  A    between atoms: O_2  and  C_3
REMARK    3  A    between atoms: C_9  and  N_10
REMARK    4  A    between atoms: N_10  and  C_11
REMARK    5  A    between atoms: C_11  and  C_12
REMARK    6  A    between atoms: C_12  and  N_13
REMARK    7  A    between atoms: C_15  and  C_16
REMARK    8  A    between atoms: C_21  and  O_22
REMARK    9  A    between atoms: C_24  and  O_25
REMARK   10  A    between atoms: C_30  and  C_31
REMARK   11  A    between atoms: C_30  and  C_32
REMARK                            x       y       z     vdW  Elec       q    Type
REMARK                         _______ _______ _______ _____ _____    ______ ____
ROOT
ATOM      1  C   UNL     1      -3.431  11.691  18.289  0.00  0.00    +0.000 A 
ATOM      2  C   UNL     1      -2.102  12.101  18.441  0.00  0.00    +0.000 A 
ATOM      3  C   UNL     1      -1.665  12.715  19.609  0.00  0.00    +0.000 A 
ATOM      4  C   UNL     1      -2.615  13.023  20.606  0.00  0.00    +0.000 A 
ATOM      5  C   UNL     1      -3.979  12.617  20.478  0.00  0.00    +0.000 A 
ATOM      6  C   UNL     1      -4.909  12.850  21.538  0.00  0.00    +0.000 A 
ATOM      7  C   UNL     1      -6.288  12.604  21.400  0.00  0.00    +0.000 A 
ATOM      8  C   UNL     1      -6.684  11.910  20.255  0.00  0.00    +0.000 A 
ATOM      9  C   UNL     1      -5.790  11.552  19.226  0.00  0.00    +0.000 A 
ATOM     10  C   UNL     1      -6.399  10.794  18.069  0.00  0.00    +0.000 C 
ATOM     11  C   UNL     1      -4.416  11.944  19.296  0.00  0.00    +0.000 A 
ATOM     12  C   UNL     1      -4.323  13.244  22.854  0.00  0.00    +0.000 C 
ATOM     13  O   UNL     1      -4.852  12.977  23.926  0.00  0.00    +0.000 OA
ATOM     14  C   UNL     1      -3.006  13.893  22.904  0.00  0.00    +0.000 A 
ATOM     15  C   UNL     1      -2.574  14.549  24.069  0.00  0.00    +0.000 A 
ATOM     16  C   UNL     1      -1.295  15.088  24.149  0.00  0.00    +0.000 A 
ATOM     17  C   UNL     1      -0.446  14.980  23.055  0.00  0.00    +0.000 A 
ATOM     18  C   UNL     1      -0.896  14.372  21.874  0.00  0.00    +0.000 A 
ATOM     19  C   UNL     1      -2.172  13.778  21.794  0.00  0.00    +0.000 A 
ATOM     20  C   UNL     1      -0.025  14.271  20.678  0.00  0.00    +0.000 C 
ATOM     21  O   UNL     1       0.730  15.184  20.366  0.00  0.00    +0.000 OA
ATOM     22  C   UNL     1      -0.177  12.977  19.873  0.00  0.00    +0.000 C 
ATOM     23  C   UNL     1       0.381  11.817  20.733  0.00  0.00    +0.000 C 
ATOM     24  C   UNL     1       0.687  13.071  18.598  0.00  0.00    +0.000 C 
ENDROOT
BRANCH   1  26
ATOM     25  C   UNL     1      -2.805  10.972  16.115  0.00  0.00    +0.000 C 
ATOM     26  O   UNL     1      -3.808  11.054  17.131  0.00  0.00    +0.000 OA
ENDBRANCH   1  26
BRANCH   7  27
ATOM     27  N   UNL     1      -7.320  12.848  22.331  0.00  0.00    +0.000 N 
ATOM     28  H   UNL     1      -7.002  12.550  23.257  0.00  0.00    +0.000 HD
BRANCH  27  29
ATOM     29  C   UNL     1      -7.854  14.217  22.440  0.00  0.00    +0.000 C 
BRANCH  29  30
ATOM     30  C   UNL     1      -7.915  14.667  23.913  0.00  0.00    +0.000 C 
BRANCH  30  31
ATOM     31  N   UNL     1      -7.778  13.545  24.852  0.00  0.00    +0.000 NA
ATOM     32  H   UNL     1      -7.204  13.865  25.632  0.00  0.00    +0.000 HD
ATOM     33  H   UNL     1      -7.257  12.796  24.400  0.00  0.00    +0.000 HD
ENDBRANCH  30  31
ENDBRANCH  29  30
ENDBRANCH  27  29
ENDBRANCH   7  27
BRANCH  15  34
ATOM     34  O   UNL     1      -3.357  14.671  25.186  0.00  0.00    +0.000 OA
ATOM     35  H   UNL     1      -4.046  13.970  25.145  0.00  0.00    +0.000 HD
ENDBRANCH  15  34
BRANCH  17  36
ATOM     36  O   UNL     1       0.851  15.386  23.169  0.00  0.00    +0.000 OA
ATOM     37  H   UNL     1       1.403  14.660  23.502  0.00  0.00    +0.000 HD
ENDBRANCH  17  36
TORSDOF 7
ENDMDL
MODEL 5
REMARK VINA RESULT:      -6.8      1.231      1.460
REMARK  Name = 
REMARK  11 active torsions:
REMARK  status: ('A' for Active; 'I' for Inactive)
REMARK    1  A    between atoms: C_1  and  O_2
REMARK    2  A    between atoms: O_2  and  C_3
REMARK    3  A    between atoms: C_9  and  N_10
REMARK    4  A    between atoms: N_10  and  C_11
REMARK    5  A    between atoms: C_11  and  C_12
REMARK    6  A    between atoms: C_12  and  N_13
REMARK    7  A    between atoms: C_15  and  C_16
REMARK    8  A    between atoms: C_21  and  O_22
REMARK    9  A    between atoms: C_24  and  O_25
REMARK   10  A    between atoms: C_30  and  C_31
REMARK   11  A    between atoms: C_30  and  C_32
REMARK                            x       y       z     vdW  Elec       q    Type
REMARK                         _______ _______ _______ _____ _____    ______ ____
ROOT
ATOM      1  C   UNL     1      -0.985  11.452  22.220  0.00  0.00    +0.000 A 
ATOM      2  C   UNL     1      -1.766  12.149  23.146  0.00  0.00    +0.000 A 
ATOM      3  C   UNL     1      -2.953  12.767  22.770  0.00  0.00    +0.000 A 
ATOM      4  C   UNL     1      -3.307  12.775  21.404  0.00  0.00    +0.000 A 
ATOM      5  C   UNL     1      -2.527  12.072  20.435  0.00  0.00    +0.000 A 
ATOM      6  C   UNL     1      -2.950  12.007  19.071  0.00  0.00    +0.000 A 
ATOM      7  C   UNL     1      -2.144  11.456  18.057  0.00  0.00    +0.000 A 
ATOM      8  C   UNL     1      -1.003  10.769  18.474  0.00  0.00    +0.000 A 
ATOM      9  C   UNL     1      -0.598  10.701  19.822  0.00  0.00    +0.000 A 
ATOM     10  C   UNL     1       0.659   9.902  20.084  0.00  0.00    +0.000 C 
ATOM     11  C   UNL     1      -1.333  11.397  20.832  0.00  0.00    +0.000 A 
ATOM     12  C   UNL     1      -4.354  12.436  18.795  0.00  0.00    +0.000 C 
ATOM     13  O   UNL     1      -5.021  11.980  17.875  0.00  0.00    +0.000 OA
ATOM     14  C   UNL     1      -5.026  13.370  19.708  0.00  0.00    +0.000 A 
ATOM     15  C   UNL     1      -6.206  14.028  19.319  0.00  0.00    +0.000 A 
ATOM     16  C   UNL     1      -6.892  14.844  20.211  0.00  0.00    +0.000 A 
ATOM     17  C   UNL     1      -6.391  15.012  21.495  0.00  0.00    +0.000 A 
ATOM     18  C   UNL     1      -5.186  14.399  21.866  0.00  0.00    +0.000 A 
ATOM     19  C   UNL     1      -4.505  13.530  20.990  0.00  0.00    +0.000 A 
ATOM     20  C   UNL     1      -4.610  14.586  23.219  0.00  0.00    +0.000 C 
ATOM     21  O   UNL     1      -4.669  15.670  23.788  0.00  0.00    +0.000 OA
ATOM     22  C   UNL     1      -3.921  13.351  23.807  0.00  0.00    +0.000 C 
ATOM     23  C   UNL     1      -5.015  12.298  24.106  0.00  0.00    +0.000 C 
ATOM     24  C   UNL     1      -3.261  13.731  25.148  0.00  0.00    +0.000 C 
ENDROOT
BRANCH   1  26
ATOM     25  C   UNL     1      -0.033   9.638  23.419  0.00  0.00    +0.000 C 
ATOM     26  O   UNL     1       0.162  10.825  22.646  0.00  0.00    +0.000 OA
ENDBRANCH   1  26
BRANCH   7  27
ATOM     27  N   UNL     1      -2.404  11.387  16.672  0.00  0.00    +0.000 N 
ATOM     28  H   UNL     1      -1.625  11.820  16.170  0.00  0.00    +0.000 HD
BRANCH  27  29
ATOM     29  C   UNL     1      -2.665  10.065  16.074  0.00  0.00    +0.000 C 
BRANCH  29  30
ATOM     30  C   UNL     1      -3.528  10.198  14.803  0.00  0.00    +0.000 C 
BRANCH  30  31
ATOM     31  N   UNL     1      -2.748  10.025  13.570  0.00  0.00    +0.000 NA
ATOM     32  H   UNL     1      -2.468  10.952  13.250  0.00  0.00    +0.000 HD
ATOM     33  H   UNL     1      -3.353   9.642  12.846  0.00  0.00    +0.000 HD
ENDBRANCH  30  31
ENDBRANCH  29  30
ENDBRANCH  27  29
ENDBRANCH   7  27
BRANCH  15  34
ATOM     34  O   UNL     1      -6.759  13.887  18.074  0.00  0.00    +0.000 OA
ATOM     35  H   UNL     1      -6.119  13.386  17.519  0.00  0.00    +0.000 HD
ENDBRANCH  15  34
BRANCH  17  36
ATOM     36  O   UNL     1      -7.125  15.702  22.416  0.00  0.00    +0.000 OA
ATOM     37  H   UNL     1      -8.073  15.542  22.279  0.00  0.00    +0.000 HD
ENDBRANCH  17  36
TORSDOF 7
ENDMDL
MODEL 6
REMARK VINA RESULT:      -6.8      2.745      6.548
REMARK  Name = 
REMARK  11 active torsions:
REMARK  status: ('A' for Active; 'I' for Inactive)
REMARK    1  A    between atoms: C_1  and  O_2
REMARK    2  A    between atoms: O_2  and  C_3
REMARK    3  A    between atoms: C_9  and  N_10
REMARK    4  A    between atoms: N_10  and  C_11
REMARK    5  A    between atoms: C_11  and  C_12
REMARK    6  A    between atoms: C_12  and  N_13
REMARK    7  A    between atoms: C_15  and  C_16
REMARK    8  A    between atoms: C_21  and  O_22
REMARK    9  A    between atoms: C_24  and  O_25
REMARK   10  A    between atoms: C_30  and  C_31
REMARK   11  A    between atoms: C_30  and  C_32
REMARK                            x       y       z     vdW  Elec       q    Type
REMARK                         _______ _______ _______ _____ _____    ______ ____
ROOT
ATOM      1  C   UNL     1      -4.745  13.759  22.062  0.00  0.00    +0.000 A 
ATOM      2  C   UNL     1      -5.634  13.458  21.025  0.00  0.00    +0.000 A 
ATOM      3  C   UNL     1      -5.229  12.722  19.917  0.00  0.00    +0.000 A 
ATOM      4  C   UNL     1      -3.867  12.375  19.799  0.00  0.00    +0.000 A 
ATOM      5  C   UNL     1      -2.935  12.670  20.842  0.00  0.00    +0.000 A 
ATOM      6  C   UNL     1      -1.579  12.226  20.752  0.00  0.00    +0.000 A 
ATOM      7  C   UNL     1      -0.594  12.618  21.679  0.00  0.00    +0.000 A 
ATOM      8  C   UNL     1      -1.044  13.281  22.821  0.00  0.00    +0.000 A 
ATOM      9  C   UNL     1      -2.392  13.644  23.018  0.00  0.00    +0.000 A 
ATOM     10  C   UNL     1      -2.693  14.346  24.323  0.00  0.00    +0.000 C 
ATOM     11  C   UNL     1      -3.364  13.385  22.002  0.00  0.00    +0.000 A 
ATOM     12  C   UNL     1      -1.286  11.212  19.696  0.00  0.00    +0.000 C 
ATOM     13  O   UNL     1      -0.397  10.376  19.802  0.00  0.00    +0.000 OA
ATOM     14  C   UNL     1      -2.147  11.122  18.509  0.00  0.00    +0.000 A 
ATOM     15  C   UNL     1      -1.728  10.412  17.371  0.00  0.00    +0.000 A 
ATOM     16  C   UNL     1      -2.574  10.251  16.281  0.00  0.00    +0.000 A 
ATOM     17  C   UNL     1      -3.845  10.812  16.323  0.00  0.00    +0.000 A 
ATOM     18  C   UNL     1      -4.244  11.565  17.436  0.00  0.00    +0.000 A 
ATOM     19  C   UNL     1      -3.415  11.696  18.569  0.00  0.00    +0.000 A 
ATOM     20  C   UNL     1      -5.580  12.203  17.497  0.00  0.00    +0.000 C 
ATOM     21  O   UNL     1      -6.087  12.708  16.501  0.00  0.00    +0.000 OA
ATOM     22  C   UNL     1      -6.236  12.207  18.881  0.00  0.00    +0.000 C 
ATOM     23  C   UNL     1      -6.599  10.745  19.235  0.00  0.00    +0.000 C 
ATOM     24  C   UNL     1      -7.549  13.013  18.817  0.00  0.00    +0.000 C 
ENDROOT
BRANCH   1  26
ATOM     25  C   UNL     1      -6.038  15.580  22.867  0.00  0.00    +0.000 C 
ATOM     26  O   UNL     1      -5.200  14.457  23.155  0.00  0.00    +0.000 OA
ENDBRANCH   1  26
BRANCH   7  27
ATOM     27  N   UNL     1       0.783  12.313  21.674  0.00  0.00    +0.000 N 
ATOM     28  H   UNL     1       0.895  11.302  21.570  0.00  0.00    +0.000 HD
BRANCH  27  29
ATOM     29  C   UNL     1       1.644  12.981  20.681  0.00  0.00    +0.000 C 
BRANCH  29  30
ATOM     30  C   UNL     1       1.766  14.487  20.985  0.00  0.00    +0.000 C 
BRANCH  30  31
ATOM     31  N   UNL     1       2.500  14.755  22.230  0.00  0.00    +0.000 NA
ATOM     32  H   UNL     1       3.440  15.058  21.974  0.00  0.00    +0.000 HD
ATOM     33  H   UNL     1       2.610  13.882  22.743  0.00  0.00    +0.000 HD
ENDBRANCH  30  31
ENDBRANCH  29  30
ENDBRANCH  27  29
ENDBRANCH   7  27
BRANCH  15  34
ATOM     34  O   UNL     1      -0.496   9.822  17.277  0.00  0.00    +0.000 OA
ATOM     35  H   UNL     1       0.152  10.409  17.730  0.00  0.00    +0.000 HD
ENDBRANCH  15  34
BRANCH  17  36
ATOM     36  O   UNL     1      -4.728  10.548  15.317  0.00  0.00    +0.000 OA
ATOM     37  H   UNL     1      -5.088  11.377  14.960  0.00  0.00    +0.000 HD
ENDBRANCH  17  36
TORSDOF 7
ENDMDL
MODEL 7
REMARK VINA RESULT:      -6.7      1.697      2.284
REMARK  Name = 
REMARK  11 active torsions:
REMARK  status: ('A' for Active; 'I' for Inactive)
REMARK    1  A    between atoms: C_1  and  O_2
REMARK    2  A    between atoms: O_2  and  C_3
REMARK    3  A    between atoms: C_9  and  N_10
REMARK    4  A    between atoms: N_10  and  C_11
REMARK    5  A    between atoms: C_11  and  C_12
REMARK    6  A    between atoms: C_12  and  N_13
REMARK    7  A    between atoms: C_15  and  C_16
REMARK    8  A    between atoms: C_21  and  O_22
REMARK    9  A    between atoms: C_24  and  O_25
REMARK   10  A    between atoms: C_30  and  C_31
REMARK   11  A    between atoms: C_30  and  C_32
REMARK                            x       y       z     vdW  Elec       q    Type
REMARK                         _______ _______ _______ _____ _____    ______ ____
ROOT
ATOM      1  C   UNL     1      -0.516  13.634  21.971  0.00  0.00    +0.000 A 
ATOM      2  C   UNL     1      -1.442  13.965  22.965  0.00  0.00    +0.000 A 
ATOM      3  C   UNL     1      -2.804  13.757  22.782  0.00  0.00    +0.000 A 
ATOM      4  C   UNL     1      -3.255  13.306  21.524  0.00  0.00    +0.000 A 
ATOM      5  C   UNL     1      -2.332  12.960  20.488  0.00  0.00    +0.000 A 
ATOM      6  C   UNL     1      -2.797  12.412  19.253  0.00  0.00    +0.000 A 
ATOM      7  C   UNL     1      -1.944  12.196  18.154  0.00  0.00    +0.000 A 
ATOM      8  C   UNL     1      -0.576  12.331  18.394  0.00  0.00    +0.000 A 
ATOM      9  C   UNL     1      -0.051  12.758  19.630  0.00  0.00    +0.000 A 
ATOM     10  C   UNL     1       1.457  12.833  19.705  0.00  0.00    +0.000 C 
ATOM     11  C   UNL     1      -0.929  13.130  20.696  0.00  0.00    +0.000 A 
ATOM     12  C   UNL     1      -4.218  11.952  19.231  0.00  0.00    +0.000 C 
ATOM     13  O   UNL     1      -4.612  11.038  18.516  0.00  0.00    +0.000 OA
ATOM     14  C   UNL     1      -5.191  12.533  20.166  0.00  0.00    +0.000 A 
ATOM     15  C   UNL     1      -6.571  12.360  19.965  0.00  0.00    +0.000 A 
ATOM     16  C   UNL     1      -7.490  12.832  20.894  0.00  0.00    +0.000 A 
ATOM     17  C   UNL     1      -7.028  13.492  22.026  0.00  0.00    +0.000 A 
ATOM     18  C   UNL     1      -5.654  13.712  22.200  0.00  0.00    +0.000 A 
ATOM     19  C   UNL     1      -4.708  13.196  21.292  0.00  0.00    +0.000 A 
ATOM     20  C   UNL     1      -5.133  14.442  23.380  0.00  0.00    +0.000 C 
ATOM     21  O   UNL     1      -5.729  15.409  23.841  0.00  0.00    +0.000 OA
ATOM     22  C   UNL     1      -3.805  13.917  23.933  0.00  0.00    +0.000 C 
ATOM     23  C   UNL     1      -4.069  12.523  24.551  0.00  0.00    +0.000 C 
ATOM     24  C   UNL     1      -3.326  14.847  25.066  0.00  0.00    +0.000 C 
ENDROOT
BRANCH   1  26
ATOM     25  C   UNL     1       1.254  15.185  22.282  0.00  0.00    +0.000 C 
ATOM     26  O   UNL     1       0.824  13.823  22.212  0.00  0.00    +0.000 OA
ENDBRANCH   1  26
BRANCH   7  27
ATOM     27  N   UNL     1      -2.277  11.728  16.866  0.00  0.00    +0.000 N 
ATOM     28  H   UNL     1      -1.784  12.297  16.173  0.00  0.00    +0.000 HD
BRANCH  27  29
ATOM     29  C   UNL     1      -2.041  10.307  16.555  0.00  0.00    +0.000 C 
BRANCH  29  30
ATOM     30  C   UNL     1      -3.063   9.794  15.521  0.00  0.00    +0.000 C 
BRANCH  30  31
ATOM     31  N   UNL     1      -4.261  10.640  15.443  0.00  0.00    +0.000 NA
ATOM     32  H   UNL     1      -5.072  10.039  15.586  0.00  0.00    +0.000 HD
ATOM     33  H   UNL     1      -4.342  11.013  14.498  0.00  0.00    +0.000 HD
ENDBRANCH  30  31
ENDBRANCH  29  30
ENDBRANCH  27  29
ENDBRANCH   7  27
BRANCH  15  34
ATOM     34  O   UNL     1      -7.086  11.702  18.880  0.00  0.00    +0.000 OA
ATOM     35  H   UNL     1      -7.077  10.739  19.083  0.00  0.00    +0.000 HD
ENDBRANCH  15  34
BRANCH  17  36
ATOM     36  O   UNL     1      -7.911  13.842  23.005  0.00  0.00    +0.000 OA
ATOM     37  H   UNL     1      -8.721  13.311  22.933  0.00  0.00    +0.000 HD
ENDBRANCH  17  36
TORSDOF 7
ENDMDL
MODEL 8
REMARK VINA RESULT:      -6.7      2.013      4.955
REMARK  Name = 
REMARK  11 active torsions:
REMARK  status: ('A' for Active; 'I' for Inactive)
REMARK    1  A    between atoms: C_1  and  O_2
REMARK    2  A    between atoms: O_2  and  C_3
REMARK    3  A    between atoms: C_9  and  N_10
REMARK    4  A    between atoms: N_10  and  C_11
REMARK    5  A    between atoms: C_11  and  C_12
REMARK    6  A    between atoms: C_12  and  N_13
REMARK    7  A    between atoms: C_15  and  C_16
REMARK    8  A    between atoms: C_21  and  O_22
REMARK    9  A    between atoms: C_24  and  O_25
REMARK   10  A    between atoms: C_30  and  C_31
REMARK   11  A    between atoms: C_30  and  C_32
REMARK                            x       y       z     vdW  Elec       q    Type
REMARK                         _______ _______ _______ _____ _____    ______ ____
ROOT
ATOM      1  C   UNL     1      -5.684  13.091  21.388  0.00  0.00    +0.000 A 
ATOM      2  C   UNL     1      -4.858  13.810  22.257  0.00  0.00    +0.000 A 
ATOM      3  C   UNL     1      -3.493  13.934  22.020  0.00  0.00    +0.000 A 
ATOM      4  C   UNL     1      -2.929  13.224  20.939  0.00  0.00    +0.000 A 
ATOM      5  C   UNL     1      -3.749  12.480  20.035  0.00  0.00    +0.000 A 
ATOM      6  C   UNL     1      -3.176  11.847  18.889  0.00  0.00    +0.000 A 
ATOM      7  C   UNL     1      -3.914  10.984  18.056  0.00  0.00    +0.000 A 
ATOM      8  C   UNL     1      -5.293  10.947  18.266  0.00  0.00    +0.000 A 
ATOM      9  C   UNL     1      -5.930  11.645  19.312  0.00  0.00    +0.000 A 
ATOM     10  C   UNL     1      -7.433  11.493  19.374  0.00  0.00    +0.000 C 
ATOM     11  C   UNL     1      -5.157  12.394  20.254  0.00  0.00    +0.000 A 
ATOM     12  C   UNL     1      -1.781  12.252  18.540  0.00  0.00    +0.000 C 
ATOM     13  O   UNL     1      -1.352  12.242  17.393  0.00  0.00    +0.000 OA
ATOM     14  C   UNL     1      -0.892  12.785  19.581  0.00  0.00    +0.000 A 
ATOM     15  C   UNL     1       0.493  12.877  19.362  0.00  0.00    +0.000 A 
ATOM     16  C   UNL     1       1.326  13.461  20.309  0.00  0.00    +0.000 A 
ATOM     17  C   UNL     1       0.773  13.947  21.487  0.00  0.00    +0.000 A 
ATOM     18  C   UNL     1      -0.601  13.808  21.728  0.00  0.00    +0.000 A 
ATOM     19  C   UNL     1      -1.465  13.262  20.757  0.00  0.00    +0.000 A 
ATOM     20  C   UNL     1      -1.215  14.287  22.989  0.00  0.00    +0.000 C 
ATOM     21  O   UNL     1      -0.633  14.171  24.061  0.00  0.00    +0.000 OA
ATOM     22  C   UNL     1      -2.616  14.888  22.842  0.00  0.00    +0.000 C 
ATOM     23  C   UNL     1      -2.479  16.219  22.065  0.00  0.00    +0.000 C 
ATOM     24  C   UNL     1      -3.175  15.217  24.241  0.00  0.00    +0.000 C 
ENDROOT
BRANCH   1  26
ATOM     25  C   UNL     1      -7.618  14.218  22.179  0.00  0.00    +0.000 C 
ATOM     26  O   UNL     1      -7.033  13.028  21.644  0.00  0.00    +0.000 OA
ENDBRANCH   1  26
BRANCH   7  27
ATOM     27  N   UNL     1      -3.464  10.246  16.941  0.00  0.00    +0.000 N 
ATOM     28  H   UNL     1      -3.795   9.282  17.031  0.00  0.00    +0.000 HD
BRANCH  27  29
ATOM     29  C   UNL     1      -3.810  10.733  15.594  0.00  0.00    +0.000 C 
BRANCH  29  30
ATOM     30  C   UNL     1      -2.923  10.065  14.524  0.00  0.00    +0.000 C 
BRANCH  30  31
ATOM     31  N   UNL     1      -3.514  10.127  13.181  0.00  0.00    +0.000 NA
ATOM     32  H   UNL     1      -2.842  10.593  12.570  0.00  0.00    +0.000 HD
ATOM     33  H   UNL     1      -4.338  10.725  13.209  0.00  0.00    +0.000 HD
ENDBRANCH  30  31
ENDBRANCH  29  30
ENDBRANCH  27  29
ENDBRANCH   7  27
BRANCH  15  34
ATOM     34  O   UNL     1       1.094  12.433  18.214  0.00  0.00    +0.000 OA
ATOM     35  H   UNL     1       1.598  11.617  18.437  0.00  0.00    +0.000 HD
ENDBRANCH  15  34
BRANCH  17  36
ATOM     36  O   UNL     1       1.559  14.639  22.361  0.00  0.00    +0.000 OA
ATOM     37  H   UNL     1       1.080  14.797  23.191  0.00  0.00    +0.000 HD
ENDBRANCH  17  36
TORSDOF 7
ENDMDL
MODEL 9
REMARK VINA RESULT:      -6.7      2.981      6.120
REMARK  Name = 
REMARK  11 active torsions:
REMARK  status: ('A' for Active; 'I' for Inactive)
REMARK    1  A    between atoms: C_1  and  O_2
REMARK    2  A    between atoms: O_2  and  C_3
REMARK    3  A    between atoms: C_9  and  N_10
REMARK    4  A    between atoms: N_10  and  C_11
REMARK    5  A    between atoms: C_11  and  C_12
REMARK    6  A    between atoms: C_12  and  N_13
REMARK    7  A    between atoms: C_15  and  C_16
REMARK    8  A    between atoms: C_21  and  O_22
REMARK    9  A    between atoms: C_24  and  O_25
REMARK   10  A    between atoms: C_30  and  C_31
REMARK   11  A    between atoms: C_30  and  C_32
REMARK                            x       y       z     vdW  Elec       q    Type
REMARK                         _______ _______ _______ _____ _____    ______ ____
ROOT
ATOM      1  C   UNL     1      -1.526  14.215  22.670  0.00  0.00    +0.000 A 
ATOM      2  C   UNL     1      -0.670  13.613  21.744  0.00  0.00    +0.000 A 
ATOM      3  C   UNL     1      -1.163  12.963  20.618  0.00  0.00    +0.000 A 
ATOM      4  C   UNL     1      -2.560  12.823  20.479  0.00  0.00    +0.000 A 
ATOM      5  C   UNL     1      -3.461  13.428  21.409  0.00  0.00    +0.000 A 
ATOM      6  C   UNL     1      -4.873  13.360  21.202  0.00  0.00    +0.000 A 
ATOM      7  C   UNL     1      -5.799  13.809  22.163  0.00  0.00    +0.000 A 
ATOM      8  C   UNL     1      -5.278  14.531  23.238  0.00  0.00    +0.000 A 
ATOM      9  C   UNL     1      -3.896  14.729  23.433  0.00  0.00    +0.000 A 
ATOM     10  C   UNL     1      -3.522  15.547  24.648  0.00  0.00    +0.000 C 
ATOM     11  C   UNL     1      -2.950  14.135  22.540  0.00  0.00    +0.000 A 
ATOM     12  C   UNL     1      -5.320  12.909  19.851  0.00  0.00    +0.000 C 
ATOM     13  O   UNL     1      -6.372  13.275  19.340  0.00  0.00    +0.000 OA
ATOM     14  C   UNL     1      -4.437  12.069  19.030  0.00  0.00    +0.000 A 
ATOM     15  C   UNL     1      -4.938  11.379  17.913  0.00  0.00    +0.000 A 
ATOM     16  C   UNL     1      -4.089  10.655  17.085  0.00  0.00    +0.000 A 
ATOM     17  C   UNL     1      -2.733  10.611  17.380  0.00  0.00    +0.000 A 
ATOM     18  C   UNL     1      -2.241  11.256  18.524  0.00  0.00    +0.000 A 
ATOM     19  C   UNL     1      -3.081  12.034  19.345  0.00  0.00    +0.000 A 
ATOM     20  C   UNL     1      -0.804  11.199  18.882  0.00  0.00    +0.000 C 
ATOM     21  O   UNL     1      -0.149  10.176  18.718  0.00  0.00    +0.000 OA
ATOM     22  C   UNL     1      -0.237  12.484  19.493  0.00  0.00    +0.000 C 
ATOM     23  C   UNL     1      -0.214  13.564  18.384  0.00  0.00    +0.000 C 
ATOM     24  C   UNL     1       1.220  12.235  19.933  0.00  0.00    +0.000 C 
ENDROOT
BRANCH   1  26
ATOM     25  C   UNL     1      -0.073  15.930  23.433  0.00  0.00    +0.000 C 
ATOM     26  O   UNL     1      -0.990  14.878  23.748  0.00  0.00    +0.000 OA
ENDBRANCH   1  26
BRANCH   7  27
ATOM     27  N   UNL     1      -7.208  13.743  22.121  0.00  0.00    +0.000 N 
ATOM     28  H   UNL     1      -7.497  13.519  21.165  0.00  0.00    +0.000 HD
BRANCH  27  29
ATOM     29  C   UNL     1      -7.893  12.818  23.042  0.00  0.00    +0.000 C 
BRANCH  29  30
ATOM     30  C   UNL     1      -7.741  11.358  22.567  0.00  0.00    +0.000 C 
BRANCH  30  31
ATOM     31  N   UNL     1      -7.916  10.389  23.656  0.00  0.00    +0.000 NA
ATOM     32  H   UNL     1      -7.543   9.495  23.336  0.00  0.00    +0.000 HD
ATOM     33  H   UNL     1      -8.911  10.245  23.815  0.00  0.00    +0.000 HD
ENDBRANCH  30  31
ENDBRANCH  29  30
ENDBRANCH  27  29
ENDBRANCH   7  27
BRANCH  15  34
ATOM     34  O   UNL     1      -6.262  11.399  17.561  0.00  0.00    +0.000 OA
ATOM     35  H   UNL     1      -6.592  12.317  17.695  0.00  0.00    +0.000 HD
ENDBRANCH  15  34
BRANCH  17  36
ATOM     36  O   UNL     1      -1.875  10.015  16.502  0.00  0.00    +0.000 OA
ATOM     37  H   UNL     1      -1.964  10.414  15.621  0.00  0.00    +0.000 HD
ENDBRANCH  17  36
TORSDOF 7
ENDMDL
