MODEL 1
REMARK VINA RESULT:      -8.4      0.000      0.000
REMARK  Name = 
REMARK  9 active torsions:
REMARK  status: ('A' for Active; 'I' for Inactive)
REMARK    1  A    between atoms: C_1  and  O_2
REMARK    2  A    between atoms: O_2  and  C_3
REMARK    3  A    between atoms: C_6  and  N_7
REMARK    4  A    between atoms: C_11  and  C_12
REMARK    5  A    between atoms: C_14  and  N_15
REMARK    6  A    between atoms: N_15  and  C_16
REMARK    7  A    between atoms: C_21  and  C_22
REMARK    8  A    between atoms: C_27  and  N_28
REMARK    9  A    between atoms: N_31  and  C_32
REMARK                            x       y       z     vdW  Elec       q    Type
REMARK                         _______ _______ _______ _____ _____    ______ ____
ROOT
ATOM      1  N   UNL     1       2.787   8.583  17.885  0.00  0.00    +0.000 N 
ATOM      2  C   UNL     1       3.425   7.437  17.428  0.00  0.00    +0.000 A 
ATOM      3  N   UNL     1       4.480   7.620  16.629  0.00  0.00    +0.000 NA
ATOM      4  C   UNL     1       5.117   6.521  16.194  0.00  0.00    +0.000 A 
ATOM      5  C   UNL     1       4.732   5.233  16.515  0.00  0.00    +0.000 A 
ATOM      6  C   UNL     1       3.635   5.118  17.349  0.00  0.00    +0.000 A 
ATOM      7  N   UNL     1       3.007   6.217  17.801  0.00  0.00    +0.000 NA
ATOM      8  H   UNL     1       3.307   9.393  17.575  0.00  0.00    +0.000 HD
ENDROOT
BRANCH   1  12
ATOM      9  C   UNL     1       0.142   9.049  21.152  0.00  0.00    +0.000 A 
ATOM     10  C   UNL     1       1.069   7.995  21.095  0.00  0.00    +0.000 A 
ATOM     11  C   UNL     1       1.949   7.864  20.022  0.00  0.00    +0.000 A 
ATOM     12  C   UNL     1       1.928   8.781  18.980  0.00  0.00    +0.000 A 
ATOM     13  C   UNL     1       1.069   9.884  19.107  0.00  0.00    +0.000 A 
ATOM     14  C   UNL     1       0.138  10.055  20.158  0.00  0.00    +0.000 A 
BRANCH  14  15
ATOM     15  N   UNL     1      -0.656  11.202  20.165  0.00  0.00    +0.000 N 
ATOM     16  C   UNL     1      -0.228  12.419  20.883  0.00  0.00    +0.000 C 
ATOM     17  C   UNL     1      -1.470  13.157  21.432  0.00  0.00    +0.000 C 
ATOM     18  N   UNL     1      -2.528  13.465  20.447  0.00  0.00    +0.000 NA
ATOM     19  C   UNL     1      -3.719  13.968  21.141  0.00  0.00    +0.000 C 
ATOM     20  C   UNL     1      -2.867  12.217  19.727  0.00  0.00    +0.000 C 
ATOM     21  C   UNL     1      -1.642  11.497  19.112  0.00  0.00    +0.000 C 
ENDBRANCH  14  15
BRANCH   9  23
ATOM     22  C   UNL     1      -0.312   9.673  23.407  0.00  0.00    +0.000 C 
ATOM     23  O   UNL     1      -0.774   9.141  22.173  0.00  0.00    +0.000 OA
ENDBRANCH   9  23
ENDBRANCH   1  12
BRANCH   5  24
ATOM     24  C   UNL     1       5.414   4.117  15.960  0.00  0.00    +0.000 C 
ATOM     25  N   UNL     1       5.945   3.197  15.501  0.00  0.00    +0.000 NA
ENDBRANCH   5  24
BRANCH   6  26
ATOM     26  N   UNL     1       3.149   3.867  17.791  0.00  0.00    +0.000 N 
ATOM     27  H   UNL     1       2.761   3.269  17.068  0.00  0.00    +0.000 HD
BRANCH  26  28
ATOM     28  C   UNL     1       2.575   3.553  19.051  0.00  0.00    +0.000 A 
ATOM     29  C   UNL     1       1.227   3.852  19.321  0.00  0.00    +0.000 A 
ATOM     30  C   UNL     1       0.608   3.438  20.503  0.00  0.00    +0.000 A 
ATOM     31  C   UNL     1       1.325   2.711  21.446  0.00  0.00    +0.000 A 
ATOM     32  C   UNL     1       2.679   2.451  21.230  0.00  0.00    +0.000 A 
ATOM     33  C   UNL     1       3.317   2.890  20.054  0.00  0.00    +0.000 A 
BRANCH  33  34
ATOM     34  C   UNL     1       4.791   2.660  19.992  0.00  0.00    +0.000 C 
ATOM     35  N   UNL     1       5.264   1.450  20.417  0.00  0.00    +0.000 N 
ATOM     36  O   UNL     1       5.554   3.496  19.523  0.00  0.00    +0.000 OA
ATOM     37  H   UNL     1       4.640   0.680  20.624  0.00  0.00    +0.000 HD
ATOM     38  H   UNL     1       6.242   1.250  20.241  0.00  0.00    +0.000 HD
ENDBRANCH  33  34
ENDBRANCH  26  28
ENDBRANCH   6  26
TORSDOF 7
ENDMDL
MODEL 2
REMARK VINA RESULT:      -8.1      2.162      4.376
REMARK  Name = 
REMARK  9 active torsions:
REMARK  status: ('A' for Active; 'I' for Inactive)
REMARK    1  A    between atoms: C_1  and  O_2
REMARK    2  A    between atoms: O_2  and  C_3
REMARK    3  A    between atoms: C_6  and  N_7
REMARK    4  A    between atoms: C_11  and  C_12
REMARK    5  A    between atoms: C_14  and  N_15
REMARK    6  A    between atoms: N_15  and  C_16
REMARK    7  A    between atoms: C_21  and  C_22
REMARK    8  A    between atoms: C_27  and  N_28
REMARK    9  A    between atoms: N_31  and  C_32
REMARK                            x       y       z     vdW  Elec       q    Type
REMARK                         _______ _______ _______ _____ _____    ______ ____
ROOT
ATOM      1  N   UNL     1       1.898   6.089  20.777  0.00  0.00    +0.000 N 
ATOM      2  C   UNL     1       2.648   4.924  20.679  0.00  0.00    +0.000 A 
ATOM      3  N   UNL     1       2.216   3.875  21.385  0.00  0.00    +0.000 NA
ATOM      4  C   UNL     1       2.921   2.737  21.286  0.00  0.00    +0.000 A 
ATOM      5  C   UNL     1       4.059   2.605  20.514  0.00  0.00    +0.000 A 
ATOM      6  C   UNL     1       4.447   3.728  19.806  0.00  0.00    +0.000 A 
ATOM      7  N   UNL     1       3.732   4.862  19.889  0.00  0.00    +0.000 NA
ATOM      8  H   UNL     1       1.076   5.904  21.335  0.00  0.00    +0.000 HD
ENDROOT
BRANCH   1  12
ATOM      9  C   UNL     1       1.849   9.480  18.250  0.00  0.00    +0.000 A 
ATOM     10  C   UNL     1       2.510   8.294  17.885  0.00  0.00    +0.000 A 
ATOM     11  C   UNL     1       2.503   7.178  18.718  0.00  0.00    +0.000 A 
ATOM     12  C   UNL     1       1.833   7.212  19.935  0.00  0.00    +0.000 A 
ATOM     13  C   UNL     1       1.093   8.367  20.231  0.00  0.00    +0.000 A 
ATOM     14  C   UNL     1       1.084   9.538  19.438  0.00  0.00    +0.000 A 
BRANCH  14  15
ATOM     15  N   UNL     1       0.300  10.616  19.848  0.00  0.00    +0.000 N 
ATOM     16  C   UNL     1       0.762  11.533  20.910  0.00  0.00    +0.000 C 
ATOM     17  C   UNL     1      -0.455  12.044  21.713  0.00  0.00    +0.000 C 
ATOM     18  N   UNL     1      -1.544  12.652  20.922  0.00  0.00    +0.000 NA
ATOM     19  C   UNL     1      -2.707  12.896  21.784  0.00  0.00    +0.000 C 
ATOM     20  C   UNL     1      -1.917  11.708  19.845  0.00  0.00    +0.000 C 
ATOM     21  C   UNL     1      -0.720  11.235  18.986  0.00  0.00    +0.000 C 
ENDBRANCH  14  15
BRANCH   9  23
ATOM     22  C   UNL     1       2.761  11.655  17.908  0.00  0.00    +0.000 C 
ATOM     23  O   UNL     1       1.914  10.605  17.463  0.00  0.00    +0.000 OA
ENDBRANCH   9  23
ENDBRANCH   1  12
BRANCH   5  24
ATOM     24  C   UNL     1       4.792   1.387  20.513  0.00  0.00    +0.000 C 
ATOM     25  N   UNL     1       5.374   0.387  20.491  0.00  0.00    +0.000 NA
ENDBRANCH   5  24
BRANCH   6  26
ATOM     26  N   UNL     1       5.570   3.731  18.948  0.00  0.00    +0.000 N 
ATOM     27  H   UNL     1       6.453   3.482  19.383  0.00  0.00    +0.000 HD
BRANCH  26  28
ATOM     28  C   UNL     1       5.793   4.553  17.812  0.00  0.00    +0.000 A 
ATOM     29  C   UNL     1       5.137   4.291  16.596  0.00  0.00    +0.000 A 
ATOM     30  C   UNL     1       5.242   5.158  15.506  0.00  0.00    +0.000 A 
ATOM     31  C   UNL     1       6.007   6.314  15.608  0.00  0.00    +0.000 A 
ATOM     32  C   UNL     1       6.716   6.568  16.783  0.00  0.00    +0.000 A 
ATOM     33  C   UNL     1       6.637   5.684  17.875  0.00  0.00    +0.000 A 
BRANCH  33  34
ATOM     34  C   UNL     1       7.533   5.998  19.028  0.00  0.00    +0.000 C 
ATOM     35  N   UNL     1       8.380   7.063  18.904  0.00  0.00    +0.000 N 
ATOM     36  O   UNL     1       7.477   5.368  20.077  0.00  0.00    +0.000 OA
ATOM     37  H   UNL     1       8.306   7.711  18.129  0.00  0.00    +0.000 HD
ATOM     38  H   UNL     1       8.880   7.354  19.735  0.00  0.00    +0.000 HD
ENDBRANCH  33  34
ENDBRANCH  26  28
ENDBRANCH   6  26
TORSDOF 7
ENDMDL
MODEL 3
REMARK VINA RESULT:      -8.0      2.183      4.611
REMARK  Name = 
REMARK  9 active torsions:
REMARK  status: ('A' for Active; 'I' for Inactive)
REMARK    1  A    between atoms: C_1  and  O_2
REMARK    2  A    between atoms: O_2  and  C_3
REMARK    3  A    between atoms: C_6  and  N_7
REMARK    4  A    between atoms: C_11  and  C_12
REMARK    5  A    between atoms: C_14  and  N_15
REMARK    6  A    between atoms: N_15  and  C_16
REMARK    7  A    between atoms: C_21  and  C_22
REMARK    8  A    between atoms: C_27  and  N_28
REMARK    9  A    between atoms: N_31  and  C_32
REMARK                            x       y       z     vdW  Elec       q    Type
REMARK                         _______ _______ _______ _____ _____    ______ ____
ROOT
ATOM      1  N   UNL     1       1.898   6.020  20.770  0.00  0.00    +0.000 N 
ATOM      2  C   UNL     1       2.666   4.868  20.671  0.00  0.00    +0.000 A 
ATOM      3  N   UNL     1       2.242   3.806  21.363  0.00  0.00    +0.000 NA
ATOM      4  C   UNL     1       2.966   2.680  21.263  0.00  0.00    +0.000 A 
ATOM      5  C   UNL     1       4.115   2.572  20.503  0.00  0.00    +0.000 A 
ATOM      6  C   UNL     1       4.494   3.707  19.810  0.00  0.00    +0.000 A 
ATOM      7  N   UNL     1       3.761   4.830  19.894  0.00  0.00    +0.000 NA
ATOM      8  H   UNL     1       1.072   5.818  21.317  0.00  0.00    +0.000 HD
ENDROOT
BRANCH   1  12
ATOM      9  C   UNL     1       1.827   9.430  18.269  0.00  0.00    +0.000 A 
ATOM     10  C   UNL     1       2.486   8.248  17.890  0.00  0.00    +0.000 A 
ATOM     11  C   UNL     1       2.485   7.125  18.714  0.00  0.00    +0.000 A 
ATOM     12  C   UNL     1       1.826   7.150  19.937  0.00  0.00    +0.000 A 
ATOM     13  C   UNL     1       1.087   8.302  20.248  0.00  0.00    +0.000 A 
ATOM     14  C   UNL     1       1.072   9.480  19.464  0.00  0.00    +0.000 A 
BRANCH  14  15
ATOM     15  N   UNL     1       0.290  10.553  19.888  0.00  0.00    +0.000 N 
ATOM     16  C   UNL     1      -1.057  10.782  19.327  0.00  0.00    +0.000 C 
ATOM     17  C   UNL     1      -1.344  12.300  19.281  0.00  0.00    +0.000 C 
ATOM     18  N   UNL     1      -1.166  13.031  20.552  0.00  0.00    +0.000 NA
ATOM     19  C   UNL     1      -1.267  14.475  20.311  0.00  0.00    +0.000 C 
ATOM     20  C   UNL     1       0.177  12.712  21.085  0.00  0.00    +0.000 C 
ATOM     21  C   UNL     1       0.460  11.195  21.202  0.00  0.00    +0.000 C 
ENDBRANCH  14  15
BRANCH   9  23
ATOM     22  C   UNL     1       2.548  11.690  18.041  0.00  0.00    +0.000 C 
ATOM     23  O   UNL     1       1.885  10.561  17.490  0.00  0.00    +0.000 OA
ENDBRANCH   9  23
ENDBRANCH   1  12
BRANCH   5  24
ATOM     24  C   UNL     1       4.866   1.366  20.501  0.00  0.00    +0.000 C 
ATOM     25  N   UNL     1       5.455   0.369  20.506  0.00  0.00    +0.000 NA
ENDBRANCH   5  24
BRANCH   6  26
ATOM     26  N   UNL     1       5.627   3.735  18.966  0.00  0.00    +0.000 N 
ATOM     27  H   UNL     1       6.299   2.988  19.112  0.00  0.00    +0.000 HD
BRANCH  26  28
ATOM     28  C   UNL     1       6.266   4.873  18.407  0.00  0.00    +0.000 A 
ATOM     29  C   UNL     1       7.131   5.665  19.183  0.00  0.00    +0.000 A 
ATOM     30  C   UNL     1       7.868   6.710  18.622  0.00  0.00    +0.000 A 
ATOM     31  C   UNL     1       7.759   6.988  17.264  0.00  0.00    +0.000 A 
ATOM     32  C   UNL     1       6.864   6.256  16.483  0.00  0.00    +0.000 A 
ATOM     33  C   UNL     1       6.097   5.220  17.047  0.00  0.00    +0.000 A 
BRANCH  33  34
ATOM     34  C   UNL     1       5.089   4.592  16.141  0.00  0.00    +0.000 C 
ATOM     35  N   UNL     1       5.443   4.397  14.835  0.00  0.00    +0.000 N 
ATOM     36  O   UNL     1       4.004   4.205  16.556  0.00  0.00    +0.000 OA
ATOM     37  H   UNL     1       6.396   4.529  14.519  0.00  0.00    +0.000 HD
ATOM     38  H   UNL     1       4.812   3.847  14.264  0.00  0.00    +0.000 HD
ENDBRANCH  33  34
ENDBRANCH  26  28
ENDBRANCH   6  26
TORSDOF 7
ENDMDL
MODEL 4
REMARK VINA RESULT:      -7.9      2.144      4.302
REMARK  Name = 
REMARK  9 active torsions:
REMARK  status: ('A' for Active; 'I' for Inactive)
REMARK    1  A    between atoms: C_1  and  O_2
REMARK    2  A    between atoms: O_2  and  C_3
REMARK    3  A    between atoms: C_6  and  N_7
REMARK    4  A    between atoms: C_11  and  C_12
REMARK    5  A    between atoms: C_14  and  N_15
REMARK    6  A    between atoms: N_15  and  C_16
REMARK    7  A    between atoms: C_21  and  C_22
REMARK    8  A    between atoms: C_27  and  N_28
REMARK    9  A    between atoms: N_31  and  C_32
REMARK                            x       y       z     vdW  Elec       q    Type
REMARK                         _______ _______ _______ _____ _____    ______ ____
ROOT
ATOM      1  N   UNL     1       1.186   7.149  20.527  0.00  0.00    +0.000 N 
ATOM      2  C   UNL     1       1.999   6.032  20.383  0.00  0.00    +0.000 A 
ATOM      3  N   UNL     1       1.499   4.870  20.812  0.00  0.00    +0.000 NA
ATOM      4  C   UNL     1       2.268   3.780  20.662  0.00  0.00    +0.000 A 
ATOM      5  C   UNL     1       3.534   3.803  20.110  0.00  0.00    +0.000 A 
ATOM      6  C   UNL     1       3.987   5.039  19.683  0.00  0.00    +0.000 A 
ATOM      7  N   UNL     1       3.213   6.128  19.815  0.00  0.00    +0.000 NA
ATOM      8  H   UNL     1       0.286   6.855  20.881  0.00  0.00    +0.000 HD
ENDROOT
BRANCH   1  12
ATOM      9  C   UNL     1       1.433  10.909  18.608  0.00  0.00    +0.000 A 
ATOM     10  C   UNL     1       2.046   9.763  18.073  0.00  0.00    +0.000 A 
ATOM     11  C   UNL     1       1.941   8.526  18.705  0.00  0.00    +0.000 A 
ATOM     12  C   UNL     1       1.220   8.398  19.885  0.00  0.00    +0.000 A 
ATOM     13  C   UNL     1       0.529   9.530  20.345  0.00  0.00    +0.000 A 
ATOM     14  C   UNL     1       0.619  10.815  19.761  0.00  0.00    +0.000 A 
BRANCH  14  15
ATOM     15  N   UNL     1      -0.125  11.855  20.318  0.00  0.00    +0.000 N 
ATOM     16  C   UNL     1       0.499  12.831  21.235  0.00  0.00    +0.000 C 
ATOM     17  C   UNL     1      -0.541  13.291  22.281  0.00  0.00    +0.000 C 
ATOM     18  N   UNL     1      -1.816  13.807  21.743  0.00  0.00    +0.000 NA
ATOM     19  C   UNL     1      -2.772  14.005  22.839  0.00  0.00    +0.000 C 
ATOM     20  C   UNL     1      -2.355  12.809  20.792  0.00  0.00    +0.000 C 
ATOM     21  C   UNL     1      -1.349  12.383  19.695  0.00  0.00    +0.000 C 
ENDBRANCH  14  15
BRANCH   9  23
ATOM     22  C   UNL     1       2.799  12.839  18.310  0.00  0.00    +0.000 C 
ATOM     23  O   UNL     1       1.594  12.144  18.025  0.00  0.00    +0.000 OA
ENDBRANCH   9  23
ENDBRANCH   1  12
BRANCH   5  24
ATOM     24  C   UNL     1       4.316   2.619  20.048  0.00  0.00    +0.000 C 
ATOM     25  N   UNL     1       4.971   1.665  20.016  0.00  0.00    +0.000 NA
ENDBRANCH   5  24
BRANCH   6  26
ATOM     26  N   UNL     1       5.247   5.210  19.067  0.00  0.00    +0.000 N 
ATOM     27  H   UNL     1       5.856   5.898  19.500  0.00  0.00    +0.000 HD
BRANCH  26  28
ATOM     28  C   UNL     1       5.569   5.062  17.692  0.00  0.00    +0.000 A 
ATOM     29  C   UNL     1       4.875   4.141  16.887  0.00  0.00    +0.000 A 
ATOM     30  C   UNL     1       5.085   4.070  15.508  0.00  0.00    +0.000 A 
ATOM     31  C   UNL     1       5.998   4.924  14.898  0.00  0.00    +0.000 A 
ATOM     32  C   UNL     1       6.743   5.806  15.681  0.00  0.00    +0.000 A 
ATOM     33  C   UNL     1       6.556   5.864  17.076  0.00  0.00    +0.000 A 
BRANCH  33  34
ATOM     34  C   UNL     1       7.494   6.757  17.818  0.00  0.00    +0.000 C 
ATOM     35  N   UNL     1       7.718   8.007  17.312  0.00  0.00    +0.000 N 
ATOM     36  O   UNL     1       8.004   6.416  18.879  0.00  0.00    +0.000 OA
ATOM     37  H   UNL     1       7.162   8.377  16.550  0.00  0.00    +0.000 HD
ATOM     38  H   UNL     1       8.241   8.652  17.891  0.00  0.00    +0.000 HD
ENDBRANCH  33  34
ENDBRANCH  26  28
ENDBRANCH   6  26
TORSDOF 7
ENDMDL
MODEL 5
REMARK VINA RESULT:      -7.8      2.314      9.183
REMARK  Name = 
REMARK  9 active torsions:
REMARK  status: ('A' for Active; 'I' for Inactive)
REMARK    1  A    between atoms: C_1  and  O_2
REMARK    2  A    between atoms: O_2  and  C_3
REMARK    3  A    between atoms: C_6  and  N_7
REMARK    4  A    between atoms: C_11  and  C_12
REMARK    5  A    between atoms: C_14  and  N_15
REMARK    6  A    between atoms: N_15  and  C_16
REMARK    7  A    between atoms: C_21  and  C_22
REMARK    8  A    between atoms: C_27  and  N_28
REMARK    9  A    between atoms: N_31  and  C_32
REMARK                            x       y       z     vdW  Elec       q    Type
REMARK                         _______ _______ _______ _____ _____    ______ ____
ROOT
ATOM      1  N   UNL     1       1.574   6.749  21.291  0.00  0.00    +0.000 N 
ATOM      2  C   UNL     1       1.337   8.116  21.239  0.00  0.00    +0.000 A 
ATOM      3  N   UNL     1       1.476   8.791  22.384  0.00  0.00    +0.000 NA
ATOM      4  C   UNL     1       1.267  10.116  22.344  0.00  0.00    +0.000 A 
ATOM      5  C   UNL     1       0.907  10.802  21.200  0.00  0.00    +0.000 A 
ATOM      6  C   UNL     1       0.785  10.043  20.050  0.00  0.00    +0.000 A 
ATOM      7  N   UNL     1       1.012   8.720  20.084  0.00  0.00    +0.000 NA
ATOM      8  H   UNL     1       1.898   6.508  22.218  0.00  0.00    +0.000 HD
ENDROOT
BRANCH   1  12
ATOM      9  C   UNL     1       2.489   3.877  18.325  0.00  0.00    +0.000 A 
ATOM     10  C   UNL     1       1.327   3.785  19.111  0.00  0.00    +0.000 A 
ATOM     11  C   UNL     1       1.027   4.748  20.072  0.00  0.00    +0.000 A 
ATOM     12  C   UNL     1       1.876   5.830  20.272  0.00  0.00    +0.000 A 
ATOM     13  C   UNL     1       2.973   5.959  19.406  0.00  0.00    +0.000 A 
ATOM     14  C   UNL     1       3.341   5.001  18.432  0.00  0.00    +0.000 A 
BRANCH  14  15
ATOM     15  N   UNL     1       4.455   5.255  17.633  0.00  0.00    +0.000 N 
ATOM     16  C   UNL     1       4.525   6.465  16.789  0.00  0.00    +0.000 C 
ATOM     17  C   UNL     1       5.323   6.150  15.504  0.00  0.00    +0.000 C 
ATOM     18  N   UNL     1       6.663   5.561  15.701  0.00  0.00    +0.000 NA
ATOM     19  C   UNL     1       7.208   5.126  14.410  0.00  0.00    +0.000 C 
ATOM     20  C   UNL     1       6.527   4.392  16.599  0.00  0.00    +0.000 C 
ATOM     21  C   UNL     1       5.788   4.703  17.923  0.00  0.00    +0.000 C 
ENDBRANCH  14  15
BRANCH   9  23
ATOM     22  C   UNL     1       3.460   1.734  17.947  0.00  0.00    +0.000 C 
ATOM     23  O   UNL     1       2.823   2.892  17.426  0.00  0.00    +0.000 OA
ENDBRANCH   9  23
ENDBRANCH   1  12
BRANCH   5  24
ATOM     24  C   UNL     1       0.636  12.196  21.251  0.00  0.00    +0.000 C 
ATOM     25  N   UNL     1       0.435  13.334  21.311  0.00  0.00    +0.000 NA
ENDBRANCH   5  24
BRANCH   6  26
ATOM     26  N   UNL     1       0.459  10.613  18.799  0.00  0.00    +0.000 N 
ATOM     27  H   UNL     1       1.006  11.426  18.533  0.00  0.00    +0.000 HD
BRANCH  26  28
ATOM     28  C   UNL     1      -0.811  10.642  18.163  0.00  0.00    +0.000 A 
ATOM     29  C   UNL     1      -1.354   9.478  17.591  0.00  0.00    +0.000 A 
ATOM     30  C   UNL     1      -2.652   9.453  17.076  0.00  0.00    +0.000 A 
ATOM     31  C   UNL     1      -3.441  10.597  17.120  0.00  0.00    +0.000 A 
ATOM     32  C   UNL     1      -2.906  11.782  17.628  0.00  0.00    +0.000 A 
ATOM     33  C   UNL     1      -1.589  11.821  18.124  0.00  0.00    +0.000 A 
BRANCH  33  34
ATOM     34  C   UNL     1      -1.088  13.170  18.526  0.00  0.00    +0.000 C 
ATOM     35  N   UNL     1      -1.794  13.852  19.476  0.00  0.00    +0.000 N 
ATOM     36  O   UNL     1      -0.049  13.632  18.071  0.00  0.00    +0.000 OA
ATOM     37  H   UNL     1      -2.539  13.411  20.002  0.00  0.00    +0.000 HD
ATOM     38  H   UNL     1      -1.374  14.697  19.844  0.00  0.00    +0.000 HD
ENDBRANCH  33  34
ENDBRANCH  26  28
ENDBRANCH   6  26
TORSDOF 7
ENDMDL
MODEL 6
REMARK VINA RESULT:      -7.8      2.366      9.837
REMARK  Name = 
REMARK  9 active torsions:
REMARK  status: ('A' for Active; 'I' for Inactive)
REMARK    1  A    between atoms: C_1  and  O_2
REMARK    2  A    between atoms: O_2  and  C_3
REMARK    3  A    between atoms: C_6  and  N_7
REMARK    4  A    between atoms: C_11  and  C_12
REMARK    5  A    between atoms: C_14  and  N_15
REMARK    6  A    between atoms: N_15  and  C_16
REMARK    7  A    between atoms: C_21  and  C_22
REMARK    8  A    between atoms: C_27  and  N_28
REMARK    9  A    between atoms: N_31  and  C_32
REMARK                            x       y       z     vdW  Elec       q    Type
REMARK                         _______ _______ _______ _____ _____    ______ ____
ROOT
ATOM      1  N   UNL     1       0.550   9.190  21.782  0.00  0.00    +0.000 N 
ATOM      2  C   UNL     1      -0.274  10.306  21.854  0.00  0.00    +0.000 A 
ATOM      3  N   UNL     1      -0.435  10.853  23.062  0.00  0.00    +0.000 NA
ATOM      4  C   UNL     1      -1.216  11.942  23.142  0.00  0.00    +0.000 A 
ATOM      5  C   UNL     1      -1.860  12.506  22.058  0.00  0.00    +0.000 A 
ATOM      6  C   UNL     1      -1.646  11.892  20.837  0.00  0.00    +0.000 A 
ATOM      7  N   UNL     1      -0.851  10.813  20.752  0.00  0.00    +0.000 NA
ATOM      8  H   UNL     1       0.961   9.028  22.692  0.00  0.00    +0.000 HD
ENDROOT
BRANCH   1  12
ATOM      9  C   UNL     1       2.444   7.478  18.411  0.00  0.00    +0.000 A 
ATOM     10  C   UNL     1       2.102   8.841  18.455  0.00  0.00    +0.000 A 
ATOM     11  C   UNL     1       1.496   9.397  19.580  0.00  0.00    +0.000 A 
ATOM     12  C   UNL     1       1.217   8.610  20.690  0.00  0.00    +0.000 A 
ATOM     13  C   UNL     1       1.662   7.279  20.666  0.00  0.00    +0.000 A 
ATOM     14  C   UNL     1       2.258   6.654  19.545  0.00  0.00    +0.000 A 
BRANCH  14  15
ATOM     15  N   UNL     1       2.658   5.323  19.658  0.00  0.00    +0.000 N 
ATOM     16  C   UNL     1       4.084   4.967  19.805  0.00  0.00    +0.000 C 
ATOM     17  C   UNL     1       4.348   3.610  19.116  0.00  0.00    +0.000 C 
ATOM     18  N   UNL     1       3.476   2.492  19.529  0.00  0.00    +0.000 NA
ATOM     19  C   UNL     1       3.699   1.338  18.651  0.00  0.00    +0.000 C 
ATOM     20  C   UNL     1       2.068   2.936  19.412  0.00  0.00    +0.000 C 
ATOM     21  C   UNL     1       1.767   4.261  20.152  0.00  0.00    +0.000 C 
ENDBRANCH  14  15
BRANCH   9  23
ATOM     22  C   UNL     1       4.370   7.091  17.061  0.00  0.00    +0.000 C 
ATOM     23  O   UNL     1       2.977   6.912  17.277  0.00  0.00    +0.000 OA
ENDBRANCH   9  23
ENDBRANCH   1  12
BRANCH   5  24
ATOM     24  C   UNL     1      -2.726  13.619  22.233  0.00  0.00    +0.000 C 
ATOM     25  N   UNL     1      -3.453  14.509  22.372  0.00  0.00    +0.000 NA
ENDBRANCH   5  24
BRANCH   6  26
ATOM     26  N   UNL     1      -2.210  12.378  19.637  0.00  0.00    +0.000 N 
ATOM     27  H   UNL     1      -2.781  13.212  19.729  0.00  0.00    +0.000 HD
BRANCH  26  28
ATOM     28  C   UNL     1      -2.612  11.628  18.499  0.00  0.00    +0.000 A 
ATOM     29  C   UNL     1      -1.668  10.907  17.746  0.00  0.00    +0.000 A 
ATOM     30  C   UNL     1      -2.056  10.062  16.703  0.00  0.00    +0.000 A 
ATOM     31  C   UNL     1      -3.403   9.917  16.389  0.00  0.00    +0.000 A 
ATOM     32  C   UNL     1      -4.355  10.666  17.082  0.00  0.00    +0.000 A 
ATOM     33  C   UNL     1      -3.969  11.541  18.116  0.00  0.00    +0.000 A 
BRANCH  33  34
ATOM     34  C   UNL     1      -5.060  12.376  18.699  0.00  0.00    +0.000 C 
ATOM     35  N   UNL     1      -5.862  13.068  17.835  0.00  0.00    +0.000 N 
ATOM     36  O   UNL     1      -5.278  12.400  19.904  0.00  0.00    +0.000 OA
ATOM     37  H   UNL     1      -5.824  12.911  16.835  0.00  0.00    +0.000 HD
ATOM     38  H   UNL     1      -6.681  13.517  18.226  0.00  0.00    +0.000 HD
ENDBRANCH  33  34
ENDBRANCH  26  28
ENDBRANCH   6  26
TORSDOF 7
ENDMDL
MODEL 7
REMARK VINA RESULT:      -7.7      2.350      9.752
REMARK  Name = 
REMARK  9 active torsions:
REMARK  status: ('A' for Active; 'I' for Inactive)
REMARK    1  A    between atoms: C_1  and  O_2
REMARK    2  A    between atoms: O_2  and  C_3
REMARK    3  A    between atoms: C_6  and  N_7
REMARK    4  A    between atoms: C_11  and  C_12
REMARK    5  A    between atoms: C_14  and  N_15
REMARK    6  A    between atoms: N_15  and  C_16
REMARK    7  A    between atoms: C_21  and  C_22
REMARK    8  A    between atoms: C_27  and  N_28
REMARK    9  A    between atoms: N_31  and  C_32
REMARK                            x       y       z     vdW  Elec       q    Type
REMARK                         _______ _______ _______ _____ _____    ______ ____
ROOT
ATOM      1  N   UNL     1       0.396   9.863  21.872  0.00  0.00    +0.000 N 
ATOM      2  C   UNL     1      -0.475  10.944  21.917  0.00  0.00    +0.000 A 
ATOM      3  N   UNL     1      -0.577  11.580  23.087  0.00  0.00    +0.000 NA
ATOM      4  C   UNL     1      -1.402  12.638  23.140  0.00  0.00    +0.000 A 
ATOM      5  C   UNL     1      -2.148  13.084  22.065  0.00  0.00    +0.000 A 
ATOM      6  C   UNL     1      -1.990  12.382  20.884  0.00  0.00    +0.000 A 
ATOM      7  N   UNL     1      -1.152  11.334  20.824  0.00  0.00    +0.000 NA
ATOM      8  H   UNL     1       0.877   9.793  22.758  0.00  0.00    +0.000 HD
ENDROOT
BRANCH   1  12
ATOM      9  C   UNL     1       2.133   7.976  18.509  0.00  0.00    +0.000 A 
ATOM     10  C   UNL     1       1.826   9.348  18.512  0.00  0.00    +0.000 A 
ATOM     11  C   UNL     1       1.272   9.962  19.633  0.00  0.00    +0.000 A 
ATOM     12  C   UNL     1       1.011   9.224  20.782  0.00  0.00    +0.000 A 
ATOM     13  C   UNL     1       1.422   7.883  20.795  0.00  0.00    +0.000 A 
ATOM     14  C   UNL     1       1.965   7.201  19.680  0.00  0.00    +0.000 A 
BRANCH  14  15
ATOM     15  N   UNL     1       2.335   5.865  19.831  0.00  0.00    +0.000 N 
ATOM     16  C   UNL     1       3.758   5.470  19.869  0.00  0.00    +0.000 C 
ATOM     17  C   UNL     1       3.919   4.069  19.236  0.00  0.00    +0.000 C 
ATOM     18  N   UNL     1       3.057   3.005  19.789  0.00  0.00    +0.000 NA
ATOM     19  C   UNL     1       3.166   1.799  18.961  0.00  0.00    +0.000 C 
ATOM     20  C   UNL     1       1.658   3.489  19.774  0.00  0.00    +0.000 C 
ATOM     21  C   UNL     1       1.464   4.861  20.462  0.00  0.00    +0.000 C 
ENDBRANCH  14  15
BRANCH   9  23
ATOM     22  C   UNL     1       4.007   7.465  17.129  0.00  0.00    +0.000 C 
ATOM     23  O   UNL     1       2.614   7.354  17.382  0.00  0.00    +0.000 OA
ENDBRANCH   9  23
ENDBRANCH   1  12
BRANCH   5  24
ATOM     24  C   UNL     1      -3.052  14.169  22.217  0.00  0.00    +0.000 C 
ATOM     25  N   UNL     1      -3.801  15.046  22.316  0.00  0.00    +0.000 NA
ENDBRANCH   5  24
BRANCH   6  26
ATOM     26  N   UNL     1      -2.662  12.744  19.695  0.00  0.00    +0.000 N 
ATOM     27  H   UNL     1      -2.576  13.718  19.424  0.00  0.00    +0.000 HD
BRANCH  26  28
ATOM     28  C   UNL     1      -3.858  12.188  19.169  0.00  0.00    +0.000 A 
ATOM     29  C   UNL     1      -5.088  12.380  19.823  0.00  0.00    +0.000 A 
ATOM     30  C   UNL     1      -6.292  11.954  19.259  0.00  0.00    +0.000 A 
ATOM     31  C   UNL     1      -6.295  11.324  18.020  0.00  0.00    +0.000 A 
ATOM     32  C   UNL     1      -5.084  11.067  17.376  0.00  0.00    +0.000 A 
ATOM     33  C   UNL     1      -3.864  11.469  17.952  0.00  0.00    +0.000 A 
BRANCH  33  34
ATOM     34  C   UNL     1      -2.632  11.032  17.230  0.00  0.00    +0.000 C 
ATOM     35  N   UNL     1      -2.478  11.435  15.933  0.00  0.00    +0.000 N 
ATOM     36  O   UNL     1      -1.754  10.387  17.789  0.00  0.00    +0.000 OA
ATOM     37  H   UNL     1      -3.092  12.124  15.516  0.00  0.00    +0.000 HD
ATOM     38  H   UNL     1      -1.582  11.255  15.498  0.00  0.00    +0.000 HD
ENDBRANCH  33  34
ENDBRANCH  26  28
ENDBRANCH   6  26
TORSDOF 7
ENDMDL
MODEL 8
REMARK VINA RESULT:      -7.7      2.194      4.511
REMARK  Name = 
REMARK  9 active torsions:
REMARK  status: ('A' for Active; 'I' for Inactive)
REMARK    1  A    between atoms: C_1  and  O_2
REMARK    2  A    between atoms: O_2  and  C_3
REMARK    3  A    between atoms: C_6  and  N_7
REMARK    4  A    between atoms: C_11  and  C_12
REMARK    5  A    between atoms: C_14  and  N_15
REMARK    6  A    between atoms: N_15  and  C_16
REMARK    7  A    between atoms: C_21  and  C_22
REMARK    8  A    between atoms: C_27  and  N_28
REMARK    9  A    between atoms: N_31  and  C_32
REMARK                            x       y       z     vdW  Elec       q    Type
REMARK                         _______ _______ _______ _____ _____    ______ ____
ROOT
ATOM      1  N   UNL     1       1.855   6.094  20.768  0.00  0.00    +0.000 N 
ATOM      2  C   UNL     1       2.622   4.940  20.679  0.00  0.00    +0.000 A 
ATOM      3  N   UNL     1       2.185   3.879  21.363  0.00  0.00    +0.000 NA
ATOM      4  C   UNL     1       2.908   2.751  21.271  0.00  0.00    +0.000 A 
ATOM      5  C   UNL     1       4.067   2.641  20.528  0.00  0.00    +0.000 A 
ATOM      6  C   UNL     1       4.459   3.776  19.842  0.00  0.00    +0.000 A 
ATOM      7  N   UNL     1       3.727   4.900  19.918  0.00  0.00    +0.000 NA
ATOM      8  H   UNL     1       1.021   5.893  21.303  0.00  0.00    +0.000 HD
ENDROOT
BRANCH   1  12
ATOM      9  C   UNL     1       1.828   9.508  18.272  0.00  0.00    +0.000 A 
ATOM     10  C   UNL     1       2.498   8.328  17.905  0.00  0.00    +0.000 A 
ATOM     11  C   UNL     1       2.483   7.204  18.728  0.00  0.00    +0.000 A 
ATOM     12  C   UNL     1       1.798   7.225  19.936  0.00  0.00    +0.000 A 
ATOM     13  C   UNL     1       1.049   8.375  20.233  0.00  0.00    +0.000 A 
ATOM     14  C   UNL     1       1.048   9.554  19.451  0.00  0.00    +0.000 A 
BRANCH  14  15
ATOM     15  N   UNL     1       0.255  10.624  19.860  0.00  0.00    +0.000 N 
ATOM     16  C   UNL     1       0.688  11.519  20.953  0.00  0.00    +0.000 C 
ATOM     17  C   UNL     1      -0.550  12.017  21.732  0.00  0.00    +0.000 C 
ATOM     18  N   UNL     1      -1.615  12.644  20.923  0.00  0.00    +0.000 NA
ATOM     19  C   UNL     1      -2.800  12.874  21.756  0.00  0.00    +0.000 C 
ATOM     20  C   UNL     1      -1.959  11.723  19.817  0.00  0.00    +0.000 C 
ATOM     21  C   UNL     1      -0.739  11.264  18.982  0.00  0.00    +0.000 C 
ENDBRANCH  14  15
BRANCH   9  23
ATOM     22  C   UNL     1       2.748  11.684  17.956  0.00  0.00    +0.000 C 
ATOM     23  O   UNL     1       1.900  10.641  17.497  0.00  0.00    +0.000 OA
ENDBRANCH   9  23
ENDBRANCH   1  12
BRANCH   5  24
ATOM     24  C   UNL     1       4.815   1.433  20.535  0.00  0.00    +0.000 C 
ATOM     25  N   UNL     1       5.446   0.462  20.554  0.00  0.00    +0.000 NA
ENDBRANCH   5  24
BRANCH   6  26
ATOM     26  N   UNL     1       5.603   3.801  19.014  0.00  0.00    +0.000 N 
ATOM     27  H   UNL     1       6.273   3.054  19.171  0.00  0.00    +0.000 HD
BRANCH  26  28
ATOM     28  C   UNL     1       6.252   4.938  18.464  0.00  0.00    +0.000 A 
ATOM     29  C   UNL     1       7.162   5.688  19.231  0.00  0.00    +0.000 A 
ATOM     30  C   UNL     1       7.906   6.729  18.674  0.00  0.00    +0.000 A 
ATOM     31  C   UNL     1       7.759   7.047  17.328  0.00  0.00    +0.000 A 
ATOM     32  C   UNL     1       6.821   6.359  16.558  0.00  0.00    +0.000 A 
ATOM     33  C   UNL     1       6.047   5.326  17.120  0.00  0.00    +0.000 A 
BRANCH  33  34
ATOM     34  C   UNL     1       4.994   4.748  16.233  0.00  0.00    +0.000 C 
ATOM     35  N   UNL     1       5.365   4.359  14.977  0.00  0.00    +0.000 N 
ATOM     36  O   UNL     1       3.848   4.568  16.627  0.00  0.00    +0.000 OA
ATOM     37  H   UNL     1       6.339   4.318  14.700  0.00  0.00    +0.000 HD
ATOM     38  H   UNL     1       4.684   3.842  14.434  0.00  0.00    +0.000 HD
ENDBRANCH  33  34
ENDBRANCH  26  28
ENDBRANCH   6  26
TORSDOF 7
ENDMDL
MODEL 9
REMARK VINA RESULT:      -7.7      1.323      1.381
REMARK  Name = 
REMARK  9 active torsions:
REMARK  status: ('A' for Active; 'I' for Inactive)
REMARK    1  A    between atoms: C_1  and  O_2
REMARK    2  A    between atoms: O_2  and  C_3
REMARK    3  A    between atoms: C_6  and  N_7
REMARK    4  A    between atoms: C_11  and  C_12
REMARK    5  A    between atoms: C_14  and  N_15
REMARK    6  A    between atoms: N_15  and  C_16
REMARK    7  A    between atoms: C_21  and  C_22
REMARK    8  A    between atoms: C_27  and  N_28
REMARK    9  A    between atoms: N_31  and  C_32
REMARK                            x       y       z     vdW  Elec       q    Type
REMARK                         _______ _______ _______ _____ _____    ______ ____
ROOT
ATOM      1  N   UNL     1       2.241   8.597  17.693  0.00  0.00    +0.000 N 
ATOM      2  C   UNL     1       3.238   7.646  17.521  0.00  0.00    +0.000 A 
ATOM      3  N   UNL     1       4.038   7.805  16.463  0.00  0.00    +0.000 NA
ATOM      4  C   UNL     1       5.018   6.902  16.295  0.00  0.00    +0.000 A 
ATOM      5  C   UNL     1       5.226   5.829  17.140  0.00  0.00    +0.000 A 
ATOM      6  C   UNL     1       4.364   5.729  18.217  0.00  0.00    +0.000 A 
ATOM      7  N   UNL     1       3.395   6.641  18.397  0.00  0.00    +0.000 NA
ATOM      8  H   UNL     1       2.350   9.317  16.992  0.00  0.00    +0.000 HD
ENDROOT
BRANCH   1  12
ATOM      9  C   UNL     1      -0.041   9.518  21.133  0.00  0.00    +0.000 A 
ATOM     10  C   UNL     1       1.071   8.660  21.190  0.00  0.00    +0.000 A 
ATOM     11  C   UNL     1       1.827   8.380  20.053  0.00  0.00    +0.000 A 
ATOM     12  C   UNL     1       1.494   8.950  18.830  0.00  0.00    +0.000 A 
ATOM     13  C   UNL     1       0.447   9.884  18.816  0.00  0.00    +0.000 A 
ATOM     14  C   UNL     1      -0.370  10.187  19.931  0.00  0.00    +0.000 A 
BRANCH  14  15
ATOM     15  N   UNL     1      -1.377  11.140  19.781  0.00  0.00    +0.000 N 
ATOM     16  C   UNL     1      -1.415  12.347  20.631  0.00  0.00    +0.000 C 
ATOM     17  C   UNL     1      -2.885  12.759  20.874  0.00  0.00    +0.000 C 
ATOM     18  N   UNL     1      -3.717  12.932  19.666  0.00  0.00    +0.000 NA
ATOM     19  C   UNL     1      -5.121  13.113  20.053  0.00  0.00    +0.000 C 
ATOM     20  C   UNL     1      -3.587  11.714  18.835  0.00  0.00    +0.000 C 
ATOM     21  C   UNL     1      -2.122  11.322  18.525  0.00  0.00    +0.000 C 
ENDBRANCH  14  15
BRANCH   9  23
ATOM     22  C   UNL     1      -0.244   9.489  23.507  0.00  0.00    +0.000 C 
ATOM     23  O   UNL     1      -0.829   9.740  22.237  0.00  0.00    +0.000 OA
ENDBRANCH   9  23
ENDBRANCH   1  12
BRANCH   5  24
ATOM     24  C   UNL     1       6.242   4.877  16.858  0.00  0.00    +0.000 C 
ATOM     25  N   UNL     1       7.069   4.109  16.602  0.00  0.00    +0.000 NA
ENDBRANCH   5  24
BRANCH   6  26
ATOM     26  N   UNL     1       4.478   4.704  19.183  0.00  0.00    +0.000 N 
ATOM     27  H   UNL     1       5.321   4.140  19.125  0.00  0.00    +0.000 HD
BRANCH  26  28
ATOM     28  C   UNL     1       3.431   3.965  19.794  0.00  0.00    +0.000 A 
ATOM     29  C   UNL     1       2.798   4.441  20.956  0.00  0.00    +0.000 A 
ATOM     30  C   UNL     1       1.683   3.798  21.499  0.00  0.00    +0.000 A 
ATOM     31  C   UNL     1       1.172   2.659  20.889  0.00  0.00    +0.000 A 
ATOM     32  C   UNL     1       1.815   2.131  19.769  0.00  0.00    +0.000 A 
ATOM     33  C   UNL     1       2.956   2.758  19.232  0.00  0.00    +0.000 A 
BRANCH  33  34
ATOM     34  C   UNL     1       3.627   2.034  18.111  0.00  0.00    +0.000 C 
ATOM     35  N   UNL     1       4.025   0.746  18.335  0.00  0.00    +0.000 N 
ATOM     36  O   UNL     1       3.765   2.546  17.007  0.00  0.00    +0.000 OA
ATOM     37  H   UNL     1       3.748   0.242  19.169  0.00  0.00    +0.000 HD
ATOM     38  H   UNL     1       4.349   0.219  17.533  0.00  0.00    +0.000 HD
ENDBRANCH  33  34
ENDBRANCH  26  28
ENDBRANCH   6  26
TORSDOF 7
ENDMDL
