MODEL 1
REMARK VINA RESULT:      -8.8      0.000      0.000
REMARK  Name = 
REMARK  8 active torsions:
REMARK  status: ('A' for Active; 'I' for Inactive)
REMARK    1  A    between atoms: C_1  and  C_2
REMARK    2  A    between atoms: C_2  and  C_3
REMARK    3  A    between atoms: N_4  and  C_5
REMARK    4  A    between atoms: C_5  and  C_6
REMARK    5  A    between atoms: C_5  and  C_12
REMARK    6  A    between atoms: N_23  and  C_24
REMARK    7  A    between atoms: C_24  and  C_25
REMARK    8  A    between atoms: C_25  and  C_27
REMARK                            x       y       z     vdW  Elec       q    Type
REMARK                         _______ _______ _______ _____ _____    ______ ____
ROOT
ATOM      1  C   UNL     1       4.452   4.687  17.171  0.00  0.00    +0.000 A 
ATOM      2  N   UNL     1       3.898   5.729  17.839  0.00  0.00    +0.000 N 
ATOM      3  C   UNL     1       4.862   6.717  18.032  0.00  0.00    +0.000 A 
ATOM      4  C   UNL     1       5.993   6.295  17.407  0.00  0.00    +0.000 A 
ATOM      5  N   UNL     1       5.724   5.041  16.883  0.00  0.00    +0.000 N 
ENDROOT
BRANCH   1   7
ATOM      6  C   UNL     1       3.922   2.271  17.773  0.00  0.00    +0.000 C 
ATOM      7  C   UNL     1       3.763   3.403  16.782  0.00  0.00    +0.000 C 
ENDBRANCH   1   7
BRANCH   2   8
ATOM      8  C   UNL     1       2.513   5.822  18.251  0.00  0.00    +0.000 C 
BRANCH   8   9
ATOM      9  C   UNL     1       2.142   7.254  18.510  0.00  0.00    +0.000 A 
ATOM     10  C   UNL     1       2.111   8.341  17.654  0.00  0.00    +0.000 A 
ATOM     11  C   UNL     1       1.796   9.466  18.446  0.00  0.00    +0.000 A 
ATOM     12  C   UNL     1       1.685  10.842  18.216  0.00  0.00    +0.000 A 
ATOM     13  C   UNL     1       0.814  11.541  19.049  0.00  0.00    +0.000 A 
ATOM     14  C   UNL     1       0.456  11.014  20.289  0.00  0.00    +0.000 A 
ATOM     15  C   UNL     1       0.936   9.766  20.711  0.00  0.00    +0.000 A 
ATOM     16  C   UNL     1       1.498   8.980  19.710  0.00  0.00    +0.000 A 
ATOM     17  O   UNL     1       1.817   7.649  19.781  0.00  0.00    +0.000 OA
ENDBRANCH   8   9
BRANCH   8  18
ATOM     18  C   UNL     1       2.167   4.797  19.322  0.00  0.00    +0.000 A 
ATOM     19  C   UNL     1       2.820   4.705  20.559  0.00  0.00    +0.000 A 
ATOM     20  C   UNL     1       2.393   3.772  21.519  0.00  0.00    +0.000 A 
ATOM     21  C   UNL     1       1.311   2.916  21.235  0.00  0.00    +0.000 A 
ATOM     22  C   UNL     1       0.668   2.987  20.005  0.00  0.00    +0.000 A 
ATOM     23  C   UNL     1       1.102   3.912  19.050  0.00  0.00    +0.000 A 
ENDBRANCH   8  18
ENDBRANCH   2   8
BRANCH   5  24
ATOM     24  C   UNL     1       6.718   4.183  16.193  0.00  0.00    +0.000 C 
BRANCH  24  25
ATOM     25  C   UNL     1       7.046   4.727  14.801  0.00  0.00    +0.000 C 
ATOM     26  O   UNL     1       7.825   5.667  14.641  0.00  0.00    +0.000 OA
BRANCH  25  27
ATOM     27  C   UNL     1       6.412   4.089  13.619  0.00  0.00    +0.000 A 
ATOM     28  C   UNL     1       7.247   3.534  12.645  0.00  0.00    +0.000 A 
ATOM     29  C   UNL     1       6.711   2.899  11.528  0.00  0.00    +0.000 A 
ATOM     30  C   UNL     1       5.328   2.836  11.373  0.00  0.00    +0.000 A 
ATOM     31  C   UNL     1       4.483   3.369  12.347  0.00  0.00    +0.000 A 
ATOM     32  C   UNL     1       5.015   3.987  13.470  0.00  0.00    +0.000 A 
ENDBRANCH  25  27
ENDBRANCH  24  25
ENDBRANCH   5  24
TORSDOF 7
ENDMDL
MODEL 2
REMARK VINA RESULT:      -8.7      0.283      1.233
REMARK  Name = 
REMARK  8 active torsions:
REMARK  status: ('A' for Active; 'I' for Inactive)
REMARK    1  A    between atoms: C_1  and  C_2
REMARK    2  A    between atoms: C_2  and  C_3
REMARK    3  A    between atoms: N_4  and  C_5
REMARK    4  A    between atoms: C_5  and  C_6
REMARK    5  A    between atoms: C_5  and  C_12
REMARK    6  A    between atoms: N_23  and  C_24
REMARK    7  A    between atoms: C_24  and  C_25
REMARK    8  A    between atoms: C_25  and  C_27
REMARK                            x       y       z     vdW  Elec       q    Type
REMARK                         _______ _______ _______ _____ _____    ______ ____
ROOT
ATOM      1  C   UNL     1       4.291   4.660  17.322  0.00  0.00    +0.000 A 
ATOM      2  N   UNL     1       3.739   5.683  18.021  0.00  0.00    +0.000 N 
ATOM      3  C   UNL     1       4.718   6.638  18.288  0.00  0.00    +0.000 A 
ATOM      4  C   UNL     1       5.859   6.219  17.679  0.00  0.00    +0.000 A 
ATOM      5  N   UNL     1       5.578   4.997  17.089  0.00  0.00    +0.000 N 
ENDROOT
BRANCH   1   7
ATOM      6  C   UNL     1       3.803   2.194  17.725  0.00  0.00    +0.000 C 
ATOM      7  C   UNL     1       3.586   3.411  16.854  0.00  0.00    +0.000 C 
ENDBRANCH   1   7
BRANCH   2   8
ATOM      8  C   UNL     1       2.344   5.789  18.395  0.00  0.00    +0.000 C 
BRANCH   8   9
ATOM      9  C   UNL     1       1.989   7.221  18.676  0.00  0.00    +0.000 A 
ATOM     10  C   UNL     1       1.901   8.308  17.824  0.00  0.00    +0.000 A 
ATOM     11  C   UNL     1       1.637   9.433  18.635  0.00  0.00    +0.000 A 
ATOM     12  C   UNL     1       1.510  10.809  18.413  0.00  0.00    +0.000 A 
ATOM     13  C   UNL     1       0.693  11.507  19.300  0.00  0.00    +0.000 A 
ATOM     14  C   UNL     1       0.416  10.979  20.560  0.00  0.00    +0.000 A 
ATOM     15  C   UNL     1       0.923   9.731  20.951  0.00  0.00    +0.000 A 
ATOM     16  C   UNL     1       1.421   8.946  19.916  0.00  0.00    +0.000 A 
ATOM     17  O   UNL     1       1.745   7.616  19.966  0.00  0.00    +0.000 OA
ENDBRANCH   8   9
BRANCH   8  18
ATOM     18  C   UNL     1       1.951   4.745  19.430  0.00  0.00    +0.000 A 
ATOM     19  C   UNL     1       0.959   3.775  19.227  0.00  0.00    +0.000 A 
ATOM     20  C   UNL     1       0.705   2.805  20.210  0.00  0.00    +0.000 A 
ATOM     21  C   UNL     1       1.442   2.810  21.411  0.00  0.00    +0.000 A 
ATOM     22  C   UNL     1       2.415   3.777  21.629  0.00  0.00    +0.000 A 
ATOM     23  C   UNL     1       2.659   4.747  20.651  0.00  0.00    +0.000 A 
ENDBRANCH   8  18
ENDBRANCH   2   8
BRANCH   5  24
ATOM     24  C   UNL     1       6.574   4.148  16.390  0.00  0.00    +0.000 C 
BRANCH  24  25
ATOM     25  C   UNL     1       7.016   4.786  15.071  0.00  0.00    +0.000 C 
ATOM     26  O   UNL     1       7.769   5.760  15.044  0.00  0.00    +0.000 OA
BRANCH  25  27
ATOM     27  C   UNL     1       6.527   4.199  13.798  0.00  0.00    +0.000 A 
ATOM     28  C   UNL     1       5.171   3.869  13.705  0.00  0.00    +0.000 A 
ATOM     29  C   UNL     1       4.648   3.340  12.528  0.00  0.00    +0.000 A 
ATOM     30  C   UNL     1       5.491   3.120  11.441  0.00  0.00    +0.000 A 
ATOM     31  C   UNL     1       6.842   3.463  11.514  0.00  0.00    +0.000 A 
ATOM     32  C   UNL     1       7.362   4.006  12.680  0.00  0.00    +0.000 A 
ENDBRANCH  25  27
ENDBRANCH  24  25
ENDBRANCH   5  24
TORSDOF 7
ENDMDL
MODEL 3
REMARK VINA RESULT:      -8.6      0.627      1.412
REMARK  Name = 
REMARK  8 active torsions:
REMARK  status: ('A' for Active; 'I' for Inactive)
REMARK    1  A    between atoms: C_1  and  C_2
REMARK    2  A    between atoms: C_2  and  C_3
REMARK    3  A    between atoms: N_4  and  C_5
REMARK    4  A    between atoms: C_5  and  C_6
REMARK    5  A    between atoms: C_5  and  C_12
REMARK    6  A    between atoms: N_23  and  C_24
REMARK    7  A    between atoms: C_24  and  C_25
REMARK    8  A    between atoms: C_25  and  C_27
REMARK                            x       y       z     vdW  Elec       q    Type
REMARK                         _______ _______ _______ _____ _____    ______ ____
ROOT
ATOM      1  C   UNL     1       4.263   4.686  17.488  0.00  0.00    +0.000 A 
ATOM      2  N   UNL     1       3.715   5.688  18.219  0.00  0.00    +0.000 N 
ATOM      3  C   UNL     1       4.696   6.634  18.513  0.00  0.00    +0.000 A 
ATOM      4  C   UNL     1       5.834   6.232  17.888  0.00  0.00    +0.000 A 
ATOM      5  N   UNL     1       5.550   5.029  17.262  0.00  0.00    +0.000 N 
ENDROOT
BRANCH   1   7
ATOM      6  C   UNL     1       3.757   2.215  17.827  0.00  0.00    +0.000 C 
ATOM      7  C   UNL     1       3.555   3.453  16.984  0.00  0.00    +0.000 C 
ENDBRANCH   1   7
BRANCH   2   8
ATOM      8  C   UNL     1       2.321   5.785  18.600  0.00  0.00    +0.000 C 
BRANCH   8   9
ATOM      9  C   UNL     1       1.974   7.205  18.949  0.00  0.00    +0.000 A 
ATOM     10  C   UNL     1       1.635   7.772  20.164  0.00  0.00    +0.000 A 
ATOM     11  C   UNL     1       1.301   9.118  19.899  0.00  0.00    +0.000 A 
ATOM     12  C   UNL     1       0.817  10.189  20.659  0.00  0.00    +0.000 A 
ATOM     13  C   UNL     1       1.161  11.465  20.220  0.00  0.00    +0.000 A 
ATOM     14  C   UNL     1       1.541  11.671  18.895  0.00  0.00    +0.000 A 
ATOM     15  C   UNL     1       1.616  10.604  17.988  0.00  0.00    +0.000 A 
ATOM     16  C   UNL     1       1.608   9.338  18.564  0.00  0.00    +0.000 A 
ATOM     17  O   UNL     1       1.910   8.148  17.957  0.00  0.00    +0.000 OA
ENDBRANCH   8   9
BRANCH   8  18
ATOM     18  C   UNL     1       1.923   4.696  19.587  0.00  0.00    +0.000 A 
ATOM     19  C   UNL     1       0.924   3.744  19.342  0.00  0.00    +0.000 A 
ATOM     20  C   UNL     1       0.666   2.730  20.279  0.00  0.00    +0.000 A 
ATOM     21  C   UNL     1       1.406   2.674  21.476  0.00  0.00    +0.000 A 
ATOM     22  C   UNL     1       2.387   3.623  21.736  0.00  0.00    +0.000 A 
ATOM     23  C   UNL     1       2.635   4.635  20.804  0.00  0.00    +0.000 A 
ENDBRANCH   8  18
ENDBRANCH   2   8
BRANCH   5  24
ATOM     24  C   UNL     1       6.542   4.200  16.534  0.00  0.00    +0.000 C 
BRANCH  24  25
ATOM     25  C   UNL     1       6.983   4.879  15.235  0.00  0.00    +0.000 C 
ATOM     26  O   UNL     1       7.738   5.851  15.238  0.00  0.00    +0.000 OA
BRANCH  25  27
ATOM     27  C   UNL     1       6.491   4.333  13.945  0.00  0.00    +0.000 A 
ATOM     28  C   UNL     1       7.389   4.263  12.875  0.00  0.00    +0.000 A 
ATOM     29  C   UNL     1       6.992   3.737  11.649  0.00  0.00    +0.000 A 
ATOM     30  C   UNL     1       5.681   3.295  11.484  0.00  0.00    +0.000 A 
ATOM     31  C   UNL     1       4.781   3.341  12.548  0.00  0.00    +0.000 A 
ATOM     32  C   UNL     1       5.178   3.850  13.777  0.00  0.00    +0.000 A 
ENDBRANCH  25  27
ENDBRANCH  24  25
ENDBRANCH   5  24
TORSDOF 7
ENDMDL
MODEL 4
REMARK VINA RESULT:      -8.5      2.954      6.612
REMARK  Name = 
REMARK  8 active torsions:
REMARK  status: ('A' for Active; 'I' for Inactive)
REMARK    1  A    between atoms: C_1  and  C_2
REMARK    2  A    between atoms: C_2  and  C_3
REMARK    3  A    between atoms: N_4  and  C_5
REMARK    4  A    between atoms: C_5  and  C_6
REMARK    5  A    between atoms: C_5  and  C_12
REMARK    6  A    between atoms: N_23  and  C_24
REMARK    7  A    between atoms: C_24  and  C_25
REMARK    8  A    between atoms: C_25  and  C_27
REMARK                            x       y       z     vdW  Elec       q    Type
REMARK                         _______ _______ _______ _____ _____    ______ ____
ROOT
ATOM      1  C   UNL     1       1.624   8.575  19.883  0.00  0.00    +0.000 A 
ATOM      2  N   UNL     1       1.420   9.655  19.089  0.00  0.00    +0.000 N 
ATOM      3  C   UNL     1       1.989   9.421  17.839  0.00  0.00    +0.000 A 
ATOM      4  C   UNL     1       2.479   8.154  17.856  0.00  0.00    +0.000 A 
ATOM      5  N   UNL     1       2.247   7.646  19.124  0.00  0.00    +0.000 N 
ENDROOT
BRANCH   1   7
ATOM      6  C   UNL     1      -0.304   8.447  21.540  0.00  0.00    +0.000 C 
ATOM      7  C   UNL     1       1.192   8.424  21.321  0.00  0.00    +0.000 C 
ENDBRANCH   1   7
BRANCH   2   8
ATOM      8  C   UNL     1       0.690  10.848  19.465  0.00  0.00    +0.000 C 
BRANCH   8   9
ATOM      9  C   UNL     1      -0.627  10.901  18.744  0.00  0.00    +0.000 A 
ATOM     10  C   UNL     1      -1.763  11.647  19.004  0.00  0.00    +0.000 A 
ATOM     11  C   UNL     1      -2.741  11.224  18.078  0.00  0.00    +0.000 A 
ATOM     12  C   UNL     1      -4.091  11.519  17.856  0.00  0.00    +0.000 A 
ATOM     13  C   UNL     1      -4.550  11.376  16.549  0.00  0.00    +0.000 A 
ATOM     14  C   UNL     1      -3.860  10.563  15.649  0.00  0.00    +0.000 A 
ATOM     15  C   UNL     1      -2.683   9.901  16.026  0.00  0.00    +0.000 A 
ATOM     16  C   UNL     1      -2.099  10.359  17.203  0.00  0.00    +0.000 A 
ATOM     17  O   UNL     1      -0.845  10.073  17.673  0.00  0.00    +0.000 OA
ENDBRANCH   8   9
BRANCH   8  18
ATOM     18  C   UNL     1       1.569  12.090  19.426  0.00  0.00    +0.000 A 
ATOM     19  C   UNL     1       2.105  12.635  18.251  0.00  0.00    +0.000 A 
ATOM     20  C   UNL     1       2.851  13.823  18.295  0.00  0.00    +0.000 A 
ATOM     21  C   UNL     1       3.072  14.469  19.528  0.00  0.00    +0.000 A 
ATOM     22  C   UNL     1       2.561  13.928  20.701  0.00  0.00    +0.000 A 
ATOM     23  C   UNL     1       1.825  12.740  20.652  0.00  0.00    +0.000 A 
ENDBRANCH   8  18
ENDBRANCH   2   8
BRANCH   5  24
ATOM     24  C   UNL     1       2.702   6.317  19.599  0.00  0.00    +0.000 C 
BRANCH  24  25
ATOM     25  C   UNL     1       2.941   5.363  18.426  0.00  0.00    +0.000 C 
ATOM     26  O   UNL     1       2.009   4.812  17.840  0.00  0.00    +0.000 OA
BRANCH  25  27
ATOM     27  C   UNL     1       4.337   5.113  17.985  0.00  0.00    +0.000 A 
ATOM     28  C   UNL     1       5.372   5.430  18.870  0.00  0.00    +0.000 A 
ATOM     29  C   UNL     1       6.700   5.193  18.524  0.00  0.00    +0.000 A 
ATOM     30  C   UNL     1       6.997   4.654  17.275  0.00  0.00    +0.000 A 
ATOM     31  C   UNL     1       5.973   4.315  16.390  0.00  0.00    +0.000 A 
ATOM     32  C   UNL     1       4.648   4.534  16.739  0.00  0.00    +0.000 A 
ENDBRANCH  25  27
ENDBRANCH  24  25
ENDBRANCH   5  24
TORSDOF 7
ENDMDL
MODEL 5
REMARK VINA RESULT:      -8.5      0.556      1.374
REMARK  Name = 
REMARK  8 active torsions:
REMARK  status: ('A' for Active; 'I' for Inactive)
REMARK    1  A    between atoms: C_1  and  C_2
REMARK    2  A    between atoms: C_2  and  C_3
REMARK    3  A    between atoms: N_4  and  C_5
REMARK    4  A    between atoms: C_5  and  C_6
REMARK    5  A    between atoms: C_5  and  C_12
REMARK    6  A    between atoms: N_23  and  C_24
REMARK    7  A    between atoms: C_24  and  C_25
REMARK    8  A    between atoms: C_25  and  C_27
REMARK                            x       y       z     vdW  Elec       q    Type
REMARK                         _______ _______ _______ _____ _____    ______ ____
ROOT
ATOM      1  C   UNL     1       4.410   4.623  17.396  0.00  0.00    +0.000 A 
ATOM      2  N   UNL     1       3.861   5.628  18.122  0.00  0.00    +0.000 N 
ATOM      3  C   UNL     1       4.832   6.595  18.378  0.00  0.00    +0.000 A 
ATOM      4  C   UNL     1       5.963   6.201  17.736  0.00  0.00    +0.000 A 
ATOM      5  N   UNL     1       5.687   4.983  17.137  0.00  0.00    +0.000 N 
ENDROOT
BRANCH   1   7
ATOM      6  C   UNL     1       3.867   2.177  17.845  0.00  0.00    +0.000 C 
ATOM      7  C   UNL     1       3.713   3.370  16.929  0.00  0.00    +0.000 C 
ENDBRANCH   1   7
BRANCH   2   8
ATOM      8  C   UNL     1       2.474   5.709  18.531  0.00  0.00    +0.000 C 
BRANCH   8   9
ATOM      9  C   UNL     1       2.104   7.131  18.841  0.00  0.00    +0.000 A 
ATOM     10  C   UNL     1       1.702   7.715  20.029  0.00  0.00    +0.000 A 
ATOM     11  C   UNL     1       1.376   9.055  19.728  0.00  0.00    +0.000 A 
ATOM     12  C   UNL     1       0.850  10.134  20.447  0.00  0.00    +0.000 A 
ATOM     13  C   UNL     1       1.210  11.406  20.006  0.00  0.00    +0.000 A 
ATOM     14  C   UNL     1       1.655  11.594  18.699  0.00  0.00    +0.000 A 
ATOM     15  C   UNL     1       1.780  10.514  17.813  0.00  0.00    +0.000 A 
ATOM     16  C   UNL     1       1.748   9.257  18.407  0.00  0.00    +0.000 A 
ATOM     17  O   UNL     1       2.085   8.059  17.833  0.00  0.00    +0.000 OA
ENDBRANCH   8   9
BRANCH   8  18
ATOM     18  C   UNL     1       2.121   4.645  19.561  0.00  0.00    +0.000 A 
ATOM     19  C   UNL     1       2.779   4.496  20.790  0.00  0.00    +0.000 A 
ATOM     20  C   UNL     1       2.346   3.530  21.713  0.00  0.00    +0.000 A 
ATOM     21  C   UNL     1       1.252   2.699  21.401  0.00  0.00    +0.000 A 
ATOM     22  C   UNL     1       0.604   2.827  20.179  0.00  0.00    +0.000 A 
ATOM     23  C   UNL     1       1.044   3.785  19.260  0.00  0.00    +0.000 A 
ENDBRANCH   8  18
ENDBRANCH   2   8
BRANCH   5  24
ATOM     24  C   UNL     1       6.677   4.159  16.403  0.00  0.00    +0.000 C 
BRANCH  24  25
ATOM     25  C   UNL     1       7.031   4.789  15.054  0.00  0.00    +0.000 C 
ATOM     26  O   UNL     1       7.748   5.787  14.975  0.00  0.00    +0.000 OA
BRANCH  25  27
ATOM     27  C   UNL     1       6.498   4.166  13.816  0.00  0.00    +0.000 A 
ATOM     28  C   UNL     1       5.118   3.959  13.726  0.00  0.00    +0.000 A 
ATOM     29  C   UNL     1       4.557   3.403  12.580  0.00  0.00    +0.000 A 
ATOM     30  C   UNL     1       5.384   3.033  11.522  0.00  0.00    +0.000 A 
ATOM     31  C   UNL     1       6.761   3.252  11.591  0.00  0.00    +0.000 A 
ATOM     32  C   UNL     1       7.320   3.822  12.725  0.00  0.00    +0.000 A 
ENDBRANCH  25  27
ENDBRANCH  24  25
ENDBRANCH   5  24
TORSDOF 7
ENDMDL
MODEL 6
REMARK VINA RESULT:      -8.4      0.826      1.262
REMARK  Name = 
REMARK  8 active torsions:
REMARK  status: ('A' for Active; 'I' for Inactive)
REMARK    1  A    between atoms: C_1  and  C_2
REMARK    2  A    between atoms: C_2  and  C_3
REMARK    3  A    between atoms: N_4  and  C_5
REMARK    4  A    between atoms: C_5  and  C_6
REMARK    5  A    between atoms: C_5  and  C_12
REMARK    6  A    between atoms: N_23  and  C_24
REMARK    7  A    between atoms: C_24  and  C_25
REMARK    8  A    between atoms: C_25  and  C_27
REMARK                            x       y       z     vdW  Elec       q    Type
REMARK                         _______ _______ _______ _____ _____    ______ ____
ROOT
ATOM      1  C   UNL     1       4.500   4.684  17.634  0.00  0.00    +0.000 A 
ATOM      2  N   UNL     1       3.888   5.479  18.547  0.00  0.00    +0.000 N 
ATOM      3  C   UNL     1       4.847   6.248  19.203  0.00  0.00    +0.000 A 
ATOM      4  C   UNL     1       6.045   5.966  18.628  0.00  0.00    +0.000 A 
ATOM      5  N   UNL     1       5.814   4.999  17.663  0.00  0.00    +0.000 N 
ENDROOT
BRANCH   1   7
ATOM      6  C   UNL     1       3.564   2.333  17.360  0.00  0.00    +0.000 C 
ATOM      7  C   UNL     1       3.832   3.680  16.728  0.00  0.00    +0.000 C 
ENDBRANCH   1   7
BRANCH   2   8
ATOM      8  C   UNL     1       2.460   5.550  18.776  0.00  0.00    +0.000 C 
BRANCH   8   9
ATOM      9  C   UNL     1       2.042   6.973  19.017  0.00  0.00    +0.000 A 
ATOM     10  C   UNL     1       1.893   8.026  18.132  0.00  0.00    +0.000 A 
ATOM     11  C   UNL     1       1.587   9.163  18.910  0.00  0.00    +0.000 A 
ATOM     12  C   UNL     1       1.393  10.524  18.645  0.00  0.00    +0.000 A 
ATOM     13  C   UNL     1       0.556  11.212  19.521  0.00  0.00    +0.000 A 
ATOM     14  C   UNL     1       0.321  10.713  20.802  0.00  0.00    +0.000 A 
ATOM     15  C   UNL     1       0.891   9.504  21.225  0.00  0.00    +0.000 A 
ATOM     16  C   UNL     1       1.410   8.709  20.208  0.00  0.00    +0.000 A 
ATOM     17  O   UNL     1       1.797   7.398  20.296  0.00  0.00    +0.000 OA
ENDBRANCH   8   9
BRANCH   8  18
ATOM     18  C   UNL     1       1.989   4.496  19.767  0.00  0.00    +0.000 A 
ATOM     19  C   UNL     1       0.890   3.652  19.552  0.00  0.00    +0.000 A 
ATOM     20  C   UNL     1       0.563   2.660  20.490  0.00  0.00    +0.000 A 
ATOM     21  C   UNL     1       1.336   2.515  21.659  0.00  0.00    +0.000 A 
ATOM     22  C   UNL     1       2.417   3.357  21.891  0.00  0.00    +0.000 A 
ATOM     23  C   UNL     1       2.733   4.349  20.957  0.00  0.00    +0.000 A 
ENDBRANCH   8  18
ENDBRANCH   2   8
BRANCH   5  24
ATOM     24  C   UNL     1       6.870   4.344  16.854  0.00  0.00    +0.000 C 
BRANCH  24  25
ATOM     25  C   UNL     1       7.255   5.202  15.646  0.00  0.00    +0.000 C 
ATOM     26  O   UNL     1       7.796   6.299  15.780  0.00  0.00    +0.000 OA
BRANCH  25  27
ATOM     27  C   UNL     1       6.972   4.682  14.284  0.00  0.00    +0.000 A 
ATOM     28  C   UNL     1       7.762   5.144  13.227  0.00  0.00    +0.000 A 
ATOM     29  C   UNL     1       7.561   4.673  11.933  0.00  0.00    +0.000 A 
ATOM     30  C   UNL     1       6.549   3.748  11.689  0.00  0.00    +0.000 A 
ATOM     31  C   UNL     1       5.766   3.264  12.737  0.00  0.00    +0.000 A 
ATOM     32  C   UNL     1       5.975   3.719  14.031  0.00  0.00    +0.000 A 
ENDBRANCH  25  27
ENDBRANCH  24  25
ENDBRANCH   5  24
TORSDOF 7
ENDMDL
MODEL 7
REMARK VINA RESULT:      -8.3      2.983      6.598
REMARK  Name = 
REMARK  8 active torsions:
REMARK  status: ('A' for Active; 'I' for Inactive)
REMARK    1  A    between atoms: C_1  and  C_2
REMARK    2  A    between atoms: C_2  and  C_3
REMARK    3  A    between atoms: N_4  and  C_5
REMARK    4  A    between atoms: C_5  and  C_6
REMARK    5  A    between atoms: C_5  and  C_12
REMARK    6  A    between atoms: N_23  and  C_24
REMARK    7  A    between atoms: C_24  and  C_25
REMARK    8  A    between atoms: C_25  and  C_27
REMARK                            x       y       z     vdW  Elec       q    Type
REMARK                         _______ _______ _______ _____ _____    ______ ____
ROOT
ATOM      1  C   UNL     1       1.482   8.550  19.872  0.00  0.00    +0.000 A 
ATOM      2  N   UNL     1       1.362   9.680  19.131  0.00  0.00    +0.000 N 
ATOM      3  C   UNL     1       2.077   9.530  17.945  0.00  0.00    +0.000 A 
ATOM      4  C   UNL     1       2.575   8.266  17.937  0.00  0.00    +0.000 A 
ATOM      5  N   UNL     1       2.201   7.675  19.134  0.00  0.00    +0.000 N 
ENDROOT
BRANCH   1   7
ATOM      6  C   UNL     1       1.434   9.181  22.337  0.00  0.00    +0.000 C 
ATOM      7  C   UNL     1       0.885   8.303  21.235  0.00  0.00    +0.000 C 
ENDBRANCH   1   7
BRANCH   2   8
ATOM      8  C   UNL     1       0.579  10.843  19.494  0.00  0.00    +0.000 C 
BRANCH   8   9
ATOM      9  C   UNL     1      -0.697  10.878  18.704  0.00  0.00    +0.000 A 
ATOM     10  C   UNL     1      -1.842  11.635  18.882  0.00  0.00    +0.000 A 
ATOM     11  C   UNL     1      -2.772  11.188  17.919  0.00  0.00    +0.000 A 
ATOM     12  C   UNL     1      -4.107  11.480  17.618  0.00  0.00    +0.000 A 
ATOM     13  C   UNL     1      -4.498  11.300  16.293  0.00  0.00    +0.000 A 
ATOM     14  C   UNL     1      -3.766  10.459  15.456  0.00  0.00    +0.000 A 
ATOM     15  C   UNL     1      -2.613   9.805  15.913  0.00  0.00    +0.000 A 
ATOM     16  C   UNL     1      -2.090  10.295  17.105  0.00  0.00    +0.000 A 
ATOM     17  O   UNL     1      -0.863  10.020  17.648  0.00  0.00    +0.000 OA
ENDBRANCH   8   9
BRANCH   8  18
ATOM     18  C   UNL     1       1.424  12.108  19.532  0.00  0.00    +0.000 A 
ATOM     19  C   UNL     1       1.841  12.737  20.713  0.00  0.00    +0.000 A 
ATOM     20  C   UNL     1       2.677  13.865  20.660  0.00  0.00    +0.000 A 
ATOM     21  C   UNL     1       3.091  14.375  19.413  0.00  0.00    +0.000 A 
ATOM     22  C   UNL     1       2.670  13.769  18.236  0.00  0.00    +0.000 A 
ATOM     23  C   UNL     1       1.831  12.652  18.295  0.00  0.00    +0.000 A 
ENDBRANCH   8  18
ENDBRANCH   2   8
BRANCH   5  24
ATOM     24  C   UNL     1       2.611   6.319  19.571  0.00  0.00    +0.000 C 
BRANCH  24  25
ATOM     25  C   UNL     1       2.972   5.437  18.374  0.00  0.00    +0.000 C 
ATOM     26  O   UNL     1       2.107   4.886  17.693  0.00  0.00    +0.000 OA
BRANCH  25  27
ATOM     27  C   UNL     1       4.405   5.258  18.028  0.00  0.00    +0.000 A 
ATOM     28  C   UNL     1       4.744   5.125  16.678  0.00  0.00    +0.000 A 
ATOM     29  C   UNL     1       6.073   4.981  16.290  0.00  0.00    +0.000 A 
ATOM     30  C   UNL     1       7.071   4.948  17.262  0.00  0.00    +0.000 A 
ATOM     31  C   UNL     1       6.749   5.099  18.611  0.00  0.00    +0.000 A 
ATOM     32  C   UNL     1       5.426   5.261  18.999  0.00  0.00    +0.000 A 
ENDBRANCH  25  27
ENDBRANCH  24  25
ENDBRANCH   5  24
TORSDOF 7
ENDMDL
MODEL 8
REMARK VINA RESULT:      -8.2      2.488      7.852
REMARK  Name = 
REMARK  8 active torsions:
REMARK  status: ('A' for Active; 'I' for Inactive)
REMARK    1  A    between atoms: C_1  and  C_2
REMARK    2  A    between atoms: C_2  and  C_3
REMARK    3  A    between atoms: N_4  and  C_5
REMARK    4  A    between atoms: C_5  and  C_6
REMARK    5  A    between atoms: C_5  and  C_12
REMARK    6  A    between atoms: N_23  and  C_24
REMARK    7  A    between atoms: C_24  and  C_25
REMARK    8  A    between atoms: C_25  and  C_27
REMARK                            x       y       z     vdW  Elec       q    Type
REMARK                         _______ _______ _______ _____ _____    ______ ____
ROOT
ATOM      1  C   UNL     1       1.718   8.043  19.958  0.00  0.00    +0.000 A 
ATOM      2  N   UNL     1       2.454   7.321  19.077  0.00  0.00    +0.000 N 
ATOM      3  C   UNL     1       2.360   7.902  17.814  0.00  0.00    +0.000 A 
ATOM      4  C   UNL     1       1.617   9.031  17.951  0.00  0.00    +0.000 A 
ATOM      5  N   UNL     1       1.228   9.103  19.279  0.00  0.00    +0.000 N 
ENDROOT
BRANCH   1   7
ATOM      6  C   UNL     1       1.449   8.963  22.316  0.00  0.00    +0.000 C 
ATOM      7  C   UNL     1       1.529   7.744  21.424  0.00  0.00    +0.000 C 
ENDBRANCH   1   7
BRANCH   2   8
ATOM      8  C   UNL     1       3.248   6.154  19.403  0.00  0.00    +0.000 C 
BRANCH   8   9
ATOM      9  C   UNL     1       4.236   5.874  18.306  0.00  0.00    +0.000 A 
ATOM     10  C   UNL     1       5.562   6.248  18.176  0.00  0.00    +0.000 A 
ATOM     11  C   UNL     1       5.979   5.809  16.901  0.00  0.00    +0.000 A 
ATOM     12  C   UNL     1       7.150   5.930  16.144  0.00  0.00    +0.000 A 
ATOM     13  C   UNL     1       7.404   4.911  15.229  0.00  0.00    +0.000 A 
ATOM     14  C   UNL     1       6.363   4.104  14.773  0.00  0.00    +0.000 A 
ATOM     15  C   UNL     1       5.052   4.277  15.241  0.00  0.00    +0.000 A 
ATOM     16  C   UNL     1       4.934   5.054  16.389  0.00  0.00    +0.000 A 
ATOM     17  O   UNL     1       3.832   5.186  17.192  0.00  0.00    +0.000 OA
ENDBRANCH   8   9
BRANCH   8  18
ATOM     18  C   UNL     1       2.387   4.998  19.892  0.00  0.00    +0.000 A 
ATOM     19  C   UNL     1       1.379   4.393  19.128  0.00  0.00    +0.000 A 
ATOM     20  C   UNL     1       0.676   3.286  19.631  0.00  0.00    +0.000 A 
ATOM     21  C   UNL     1       0.976   2.786  20.914  0.00  0.00    +0.000 A 
ATOM     22  C   UNL     1       1.961   3.389  21.686  0.00  0.00    +0.000 A 
ATOM     23  C   UNL     1       2.652   4.496  21.184  0.00  0.00    +0.000 A 
ENDBRANCH   8  18
ENDBRANCH   2   8
BRANCH   5  24
ATOM     24  C   UNL     1       0.328  10.139  19.841  0.00  0.00    +0.000 C 
BRANCH  24  25
ATOM     25  C   UNL     1      -0.148  11.107  18.754  0.00  0.00    +0.000 C 
ATOM     26  O   UNL     1       0.563  12.026  18.350  0.00  0.00    +0.000 OA
BRANCH  25  27
ATOM     27  C   UNL     1      -1.501  10.914  18.173  0.00  0.00    +0.000 A 
ATOM     28  C   UNL     1      -2.548  11.696  18.671  0.00  0.00    +0.000 A 
ATOM     29  C   UNL     1      -3.833  11.579  18.148  0.00  0.00    +0.000 A 
ATOM     30  C   UNL     1      -4.078  10.657  17.133  0.00  0.00    +0.000 A 
ATOM     31  C   UNL     1      -3.039   9.885  16.613  0.00  0.00    +0.000 A 
ATOM     32  C   UNL     1      -1.754  10.012  17.121  0.00  0.00    +0.000 A 
ENDBRANCH  25  27
ENDBRANCH  24  25
ENDBRANCH   5  24
TORSDOF 7
ENDMDL
MODEL 9
REMARK VINA RESULT:      -8.1      3.601      7.097
REMARK  Name = 
REMARK  8 active torsions:
REMARK  status: ('A' for Active; 'I' for Inactive)
REMARK    1  A    between atoms: C_1  and  C_2
REMARK    2  A    between atoms: C_2  and  C_3
REMARK    3  A    between atoms: N_4  and  C_5
REMARK    4  A    between atoms: C_5  and  C_6
REMARK    5  A    between atoms: C_5  and  C_12
REMARK    6  A    between atoms: N_23  and  C_24
REMARK    7  A    between atoms: C_24  and  C_25
REMARK    8  A    between atoms: C_25  and  C_27
REMARK                            x       y       z     vdW  Elec       q    Type
REMARK                         _______ _______ _______ _____ _____    ______ ____
ROOT
ATOM      1  C   UNL     1       1.405   8.868  20.336  0.00  0.00    +0.000 A 
ATOM      2  N   UNL     1       1.181   9.836  19.414  0.00  0.00    +0.000 N 
ATOM      3  C   UNL     1       1.725   9.442  18.192  0.00  0.00    +0.000 A 
ATOM      4  C   UNL     1       2.218   8.188  18.363  0.00  0.00    +0.000 A 
ATOM      5  N   UNL     1       2.014   7.849  19.691  0.00  0.00    +0.000 N 
ENDROOT
BRANCH   1   7
ATOM      6  C   UNL     1      -0.460   8.625  22.053  0.00  0.00    +0.000 C 
ATOM      7  C   UNL     1       1.003   8.904  21.790  0.00  0.00    +0.000 C 
ENDBRANCH   1   7
BRANCH   2   8
ATOM      8  C   UNL     1       0.456  11.068  19.647  0.00  0.00    +0.000 C 
BRANCH   8   9
ATOM      9  C   UNL     1      -0.816  11.082  18.847  0.00  0.00    +0.000 A 
ATOM     10  C   UNL     1      -1.977  11.813  19.022  0.00  0.00    +0.000 A 
ATOM     11  C   UNL     1      -2.891  11.354  18.049  0.00  0.00    +0.000 A 
ATOM     12  C   UNL     1      -4.230  11.620  17.741  0.00  0.00    +0.000 A 
ATOM     13  C   UNL     1      -4.607  11.441  16.412  0.00  0.00    +0.000 A 
ATOM     14  C   UNL     1      -3.851  10.622  15.573  0.00  0.00    +0.000 A 
ATOM     15  C   UNL     1      -2.688   9.989  16.035  0.00  0.00    +0.000 A 
ATOM     16  C   UNL     1      -2.184  10.482  17.234  0.00  0.00    +0.000 A 
ATOM     17  O   UNL     1      -0.955  10.229  17.785  0.00  0.00    +0.000 OA
ENDBRANCH   8   9
BRANCH   8  18
ATOM     18  C   UNL     1       1.361  12.288  19.559  0.00  0.00    +0.000 A 
ATOM     19  C   UNL     1       1.960  12.901  20.668  0.00  0.00    +0.000 A 
ATOM     20  C   UNL     1       2.838  13.983  20.493  0.00  0.00    +0.000 A 
ATOM     21  C   UNL     1       3.112  14.464  19.196  0.00  0.00    +0.000 A 
ATOM     22  C   UNL     1       2.510  13.874  18.092  0.00  0.00    +0.000 A 
ATOM     23  C   UNL     1       1.631  12.802  18.273  0.00  0.00    +0.000 A 
ENDBRANCH   8  18
ENDBRANCH   2   8
BRANCH   5  24
ATOM     24  C   UNL     1       2.483   6.592  20.324  0.00  0.00    +0.000 C 
BRANCH  24  25
ATOM     25  C   UNL     1       3.150   5.672  19.299  0.00  0.00    +0.000 C 
ATOM     26  O   UNL     1       4.193   5.989  18.728  0.00  0.00    +0.000 OA
BRANCH  25  27
ATOM     27  C   UNL     1       2.517   4.361  19.002  0.00  0.00    +0.000 A 
ATOM     28  C   UNL     1       1.373   4.006  19.723  0.00  0.00    +0.000 A 
ATOM     29  C   UNL     1       0.721   2.801  19.471  0.00  0.00    +0.000 A 
ATOM     30  C   UNL     1       1.229   1.936  18.505  0.00  0.00    +0.000 A 
ATOM     31  C   UNL     1       2.359   2.287  17.766  0.00  0.00    +0.000 A 
ATOM     32  C   UNL     1       3.001   3.494  18.003  0.00  0.00    +0.000 A 
ENDBRANCH  25  27
ENDBRANCH  24  25
ENDBRANCH   5  24
TORSDOF 7
ENDMDL
