MODEL 1
REMARK VINA RESULT:      -8.9      0.000      0.000
REMARK  Name = 
REMARK  9 active torsions:
REMARK  status: ('A' for Active; 'I' for Inactive)
REMARK    1  A    between atoms: C_2  and  C_3
REMARK    2  A    between atoms: C_2  and  C_25
REMARK    3  A    between atoms: C_4  and  O_5
REMARK    4  A    between atoms: N_8  and  C_9
REMARK    5  A    between atoms: C_9  and  C_10
REMARK    6  A    between atoms: C_10  and  C_11
REMARK    7  A    between atoms: C_11  and  N_12
REMARK    8  A    between atoms: C_17  and  C_18
REMARK    9  A    between atoms: C_22  and  O_23
REMARK                            x       y       z     vdW  Elec       q    Type
REMARK                         _______ _______ _______ _____ _____    ______ ____
ROOT
ATOM      1  C   UNL     1       3.389   4.645  18.932  0.00  0.00    +0.000 C 
ATOM      2  C   UNL     1       3.121   3.334  19.032  0.00  0.00    +0.000 C 
ATOM      3  C   UNL     1       3.831   2.651  17.922  0.00  0.00    +0.000 C 
ATOM      4  O   UNL     1       3.778   1.463  17.663  0.00  0.00    +0.000 OA
ATOM      5  N   UNL     1       4.502   3.629  17.210  0.00  0.00    +0.000 N 
ATOM      6  C   UNL     1       4.329   4.944  17.798  0.00  0.00    +0.000 C 
ENDROOT
BRANCH   6   7
ATOM      7  C   UNL     1       5.632   5.649  18.141  0.00  0.00    +0.000 A 
ATOM      8  C   UNL     1       6.166   6.710  17.395  0.00  0.00    +0.000 A 
ATOM      9  C   UNL     1       7.408   7.272  17.730  0.00  0.00    +0.000 A 
ATOM     10  C   UNL     1       8.130   6.794  18.821  0.00  0.00    +0.000 A 
ATOM     11  C   UNL     1       7.593   5.773  19.593  0.00  0.00    +0.000 A 
ATOM     12  C   UNL     1       6.365   5.208  19.263  0.00  0.00    +0.000 A 
BRANCH  11  13
ATOM     13  O   UNL     1       8.239   5.281  20.682  0.00  0.00    +0.000 OA
ATOM     14  H   UNL     1       8.087   4.322  20.735  0.00  0.00    +0.000 HD
ENDBRANCH  11  13
ENDBRANCH   6   7
BRANCH   1  16
ATOM     15  O   UNL     1       2.622   5.315  21.052  0.00  0.00    +0.000 OA
ATOM     16  C   UNL     1       2.764   5.610  19.874  0.00  0.00    +0.000 C 
BRANCH  16  17
ATOM     17  C   UNL     1       2.327   6.949  19.384  0.00  0.00    +0.000 A 
ATOM     18  C   UNL     1       2.508   7.336  18.054  0.00  0.00    +0.000 A 
ATOM     19  C   UNL     1       2.222   8.641  17.660  0.00  0.00    +0.000 A 
ATOM     20  C   UNL     1       1.683   9.547  18.570  0.00  0.00    +0.000 A 
ATOM     21  C   UNL     1       1.372   9.129  19.858  0.00  0.00    +0.000 A 
ATOM     22  C   UNL     1       1.695   7.830  20.271  0.00  0.00    +0.000 A 
ATOM     23  O   UNL     1       0.722   9.915  20.759  0.00  0.00    +0.000 OA
ATOM     24  C   UNL     1       0.811  11.306  20.477  0.00  0.00    +0.000 C 
ATOM     25  C   UNL     1       0.891  11.716  19.009  0.00  0.00    +0.000 C 
ATOM     26  O   UNL     1       1.486  10.804  18.097  0.00  0.00    +0.000 OA
ENDBRANCH  16  17
ENDBRANCH   1  16
BRANCH   2  27
ATOM     27  O   UNL     1       2.300   2.691  19.917  0.00  0.00    +0.000 OA
ATOM     28  H   UNL     1       2.595   2.926  20.823  0.00  0.00    +0.000 HD
ENDBRANCH   2  27
BRANCH   5  29
ATOM     29  C   UNL     1       5.214   3.382  15.963  0.00  0.00    +0.000 C 
BRANCH  29  30
ATOM     30  C   UNL     1       5.233   4.547  14.964  0.00  0.00    +0.000 C 
BRANCH  30  31
ATOM     31  C   UNL     1       6.284   4.424  13.861  0.00  0.00    +0.000 C 
BRANCH  31  32
ATOM     32  N   UNL     1       5.839   3.570  12.771  0.00  0.00    +0.000 N 
ATOM     33  C   UNL     1       6.576   2.595  12.155  0.00  0.00    +0.000 A 
ATOM     34  C   UNL     1       5.731   2.049  11.217  0.00  0.00    +0.000 A 
ATOM     35  N   UNL     1       4.504   2.660  11.257  0.00  0.00    +0.000 NA
ATOM     36  C   UNL     1       4.601   3.570  12.198  0.00  0.00    +0.000 A 
ENDBRANCH  31  32
ENDBRANCH  30  31
ENDBRANCH  29  30
ENDBRANCH   5  29
TORSDOF 9
ENDMDL
MODEL 2
REMARK VINA RESULT:      -8.5      1.103      1.236
REMARK  Name = 
REMARK  9 active torsions:
REMARK  status: ('A' for Active; 'I' for Inactive)
REMARK    1  A    between atoms: C_2  and  C_3
REMARK    2  A    between atoms: C_2  and  C_25
REMARK    3  A    between atoms: C_4  and  O_5
REMARK    4  A    between atoms: N_8  and  C_9
REMARK    5  A    between atoms: C_9  and  C_10
REMARK    6  A    between atoms: C_10  and  C_11
REMARK    7  A    between atoms: C_11  and  N_12
REMARK    8  A    between atoms: C_17  and  C_18
REMARK    9  A    between atoms: C_22  and  O_23
REMARK                            x       y       z     vdW  Elec       q    Type
REMARK                         _______ _______ _______ _____ _____    ______ ____
ROOT
ATOM      1  C   UNL     1       2.962   5.190  18.937  0.00  0.00    +0.000 C 
ATOM      2  C   UNL     1       2.545   3.915  18.993  0.00  0.00    +0.000 C 
ATOM      3  C   UNL     1       3.107   3.213  17.812  0.00  0.00    +0.000 C 
ATOM      4  O   UNL     1       2.898   2.054  17.503  0.00  0.00    +0.000 OA
ATOM      5  N   UNL     1       3.850   4.142  17.107  0.00  0.00    +0.000 N 
ATOM      6  C   UNL     1       3.867   5.436  17.763  0.00  0.00    +0.000 C 
ENDROOT
BRANCH   6   7
ATOM      7  C   UNL     1       5.262   5.965  18.059  0.00  0.00    +0.000 A 
ATOM      8  C   UNL     1       5.886   6.981  17.319  0.00  0.00    +0.000 A 
ATOM      9  C   UNL     1       7.201   7.376  17.606  0.00  0.00    +0.000 A 
ATOM     10  C   UNL     1       7.911   6.775  18.642  0.00  0.00    +0.000 A 
ATOM     11  C   UNL     1       7.291   5.799  19.410  0.00  0.00    +0.000 A 
ATOM     12  C   UNL     1       5.988   5.398  19.127  0.00  0.00    +0.000 A 
BRANCH  11  13
ATOM     13  O   UNL     1       7.923   5.193  20.449  0.00  0.00    +0.000 OA
ATOM     14  H   UNL     1       7.509   4.329  20.612  0.00  0.00    +0.000 HD
ENDBRANCH  11  13
ENDBRANCH   6   7
BRANCH   1  16
ATOM     15  O   UNL     1       2.531   5.877  21.145  0.00  0.00    +0.000 OA
ATOM     16  C   UNL     1       2.509   6.170  19.958  0.00  0.00    +0.000 C 
BRANCH  16  17
ATOM     17  C   UNL     1       2.044   7.522  19.534  0.00  0.00    +0.000 A 
ATOM     18  C   UNL     1       2.220   7.979  18.227  0.00  0.00    +0.000 A 
ATOM     19  C   UNL     1       1.908   9.297  17.898  0.00  0.00    +0.000 A 
ATOM     20  C   UNL     1       1.346  10.143  18.850  0.00  0.00    +0.000 A 
ATOM     21  C   UNL     1       1.040   9.654  20.113  0.00  0.00    +0.000 A 
ATOM     22  C   UNL     1       1.390   8.343  20.462  0.00  0.00    +0.000 A 
ATOM     23  O   UNL     1       0.371  10.379  21.051  0.00  0.00    +0.000 OA
ATOM     24  C   UNL     1       0.430  11.785  20.839  0.00  0.00    +0.000 C 
ATOM     25  C   UNL     1       0.506  12.270  19.394  0.00  0.00    +0.000 C 
ATOM     26  O   UNL     1       1.124  11.418  18.440  0.00  0.00    +0.000 OA
ENDBRANCH  16  17
ENDBRANCH   1  16
BRANCH   2  27
ATOM     27  O   UNL     1       1.703   3.327  19.895  0.00  0.00    +0.000 OA
ATOM     28  H   UNL     1       1.283   4.040  20.422  0.00  0.00    +0.000 HD
ENDBRANCH   2  27
BRANCH   5  29
ATOM     29  C   UNL     1       4.459   3.880  15.809  0.00  0.00    +0.000 C 
BRANCH  29  30
ATOM     30  C   UNL     1       5.942   3.485  15.835  0.00  0.00    +0.000 C 
BRANCH  30  31
ATOM     31  C   UNL     1       6.886   4.507  15.203  0.00  0.00    +0.000 C 
BRANCH  31  32
ATOM     32  N   UNL     1       6.961   4.365  13.758  0.00  0.00    +0.000 N 
ATOM     33  C   UNL     1       6.281   3.452  12.998  0.00  0.00    +0.000 A 
ATOM     34  C   UNL     1       6.652   3.721  11.701  0.00  0.00    +0.000 A 
ATOM     35  N   UNL     1       7.527   4.775  11.657  0.00  0.00    +0.000 NA
ATOM     36  C   UNL     1       7.695   5.139  12.907  0.00  0.00    +0.000 A 
ENDBRANCH  31  32
ENDBRANCH  30  31
ENDBRANCH  29  30
ENDBRANCH   5  29
TORSDOF 9
ENDMDL
MODEL 3
REMARK VINA RESULT:      -8.3      0.822      1.163
REMARK  Name = 
REMARK  9 active torsions:
REMARK  status: ('A' for Active; 'I' for Inactive)
REMARK    1  A    between atoms: C_2  and  C_3
REMARK    2  A    between atoms: C_2  and  C_25
REMARK    3  A    between atoms: C_4  and  O_5
REMARK    4  A    between atoms: N_8  and  C_9
REMARK    5  A    between atoms: C_9  and  C_10
REMARK    6  A    between atoms: C_10  and  C_11
REMARK    7  A    between atoms: C_11  and  N_12
REMARK    8  A    between atoms: C_17  and  C_18
REMARK    9  A    between atoms: C_22  and  O_23
REMARK                            x       y       z     vdW  Elec       q    Type
REMARK                         _______ _______ _______ _____ _____    ______ ____
ROOT
ATOM      1  C   UNL     1       3.413   4.602  18.914  0.00  0.00    +0.000 C 
ATOM      2  C   UNL     1       3.073   3.305  18.969  0.00  0.00    +0.000 C 
ATOM      3  C   UNL     1       3.769   2.617  17.852  0.00  0.00    +0.000 C 
ATOM      4  O   UNL     1       3.658   1.442  17.556  0.00  0.00    +0.000 OA
ATOM      5  N   UNL     1       4.506   3.578  17.184  0.00  0.00    +0.000 N 
ATOM      6  C   UNL     1       4.391   4.883  17.809  0.00  0.00    +0.000 C 
ENDROOT
BRANCH   6   7
ATOM      7  C   UNL     1       5.723   5.506  18.199  0.00  0.00    +0.000 A 
ATOM      8  C   UNL     1       6.513   5.054  19.266  0.00  0.00    +0.000 A 
ATOM      9  C   UNL     1       7.701   5.717  19.613  0.00  0.00    +0.000 A 
ATOM     10  C   UNL     1       8.125   6.832  18.893  0.00  0.00    +0.000 A 
ATOM     11  C   UNL     1       7.375   7.263  17.808  0.00  0.00    +0.000 A 
ATOM     12  C   UNL     1       6.193   6.613  17.463  0.00  0.00    +0.000 A 
BRANCH  11  13
ATOM     13  O   UNL     1       7.749   8.329  17.054  0.00  0.00    +0.000 OA
ATOM     14  H   UNL     1       7.733   9.130  17.605  0.00  0.00    +0.000 HD
ENDBRANCH  11  13
ENDBRANCH   6   7
BRANCH   1  16
ATOM     15  O   UNL     1       2.720   5.281  21.057  0.00  0.00    +0.000 OA
ATOM     16  C   UNL     1       2.821   5.570  19.873  0.00  0.00    +0.000 C 
BRANCH  16  17
ATOM     17  C   UNL     1       2.365   6.907  19.393  0.00  0.00    +0.000 A 
ATOM     18  C   UNL     1       2.538   7.305  18.066  0.00  0.00    +0.000 A 
ATOM     19  C   UNL     1       2.236   8.609  17.681  0.00  0.00    +0.000 A 
ATOM     20  C   UNL     1       1.686   9.501  18.597  0.00  0.00    +0.000 A 
ATOM     21  C   UNL     1       1.384   9.071  19.883  0.00  0.00    +0.000 A 
ATOM     22  C   UNL     1       1.724   7.774  20.287  0.00  0.00    +0.000 A 
ATOM     23  O   UNL     1       0.726   9.843  20.791  0.00  0.00    +0.000 OA
ATOM     24  C   UNL     1       0.797  11.237  20.517  0.00  0.00    +0.000 C 
ATOM     25  C   UNL     1       0.869  11.658  19.051  0.00  0.00    +0.000 C 
ATOM     26  O   UNL     1       1.473  10.759  18.133  0.00  0.00    +0.000 OA
ENDBRANCH  16  17
ENDBRANCH   1  16
BRANCH   2  27
ATOM     27  O   UNL     1       2.201   2.681  19.817  0.00  0.00    +0.000 OA
ATOM     28  H   UNL     1       2.284   3.107  20.698  0.00  0.00    +0.000 HD
ENDBRANCH   2  27
BRANCH   5  29
ATOM     29  C   UNL     1       5.230   3.331  15.945  0.00  0.00    +0.000 C 
BRANCH  29  30
ATOM     30  C   UNL     1       5.270   4.499  14.950  0.00  0.00    +0.000 C 
BRANCH  30  31
ATOM     31  C   UNL     1       6.314   4.360  13.843  0.00  0.00    +0.000 C 
BRANCH  31  32
ATOM     32  N   UNL     1       5.844   3.527  12.746  0.00  0.00    +0.000 N 
ATOM     33  C   UNL     1       6.550   2.533  12.126  0.00  0.00    +0.000 A 
ATOM     34  C   UNL     1       5.690   2.020  11.183  0.00  0.00    +0.000 A 
ATOM     35  N   UNL     1       4.485   2.671  11.223  0.00  0.00    +0.000 NA
ATOM     36  C   UNL     1       4.608   3.572  12.170  0.00  0.00    +0.000 A 
ENDBRANCH  31  32
ENDBRANCH  30  31
ENDBRANCH  29  30
ENDBRANCH   5  29
TORSDOF 9
ENDMDL
MODEL 4
REMARK VINA RESULT:      -8.0      1.363      1.732
REMARK  Name = 
REMARK  9 active torsions:
REMARK  status: ('A' for Active; 'I' for Inactive)
REMARK    1  A    between atoms: C_2  and  C_3
REMARK    2  A    between atoms: C_2  and  C_25
REMARK    3  A    between atoms: C_4  and  O_5
REMARK    4  A    between atoms: N_8  and  C_9
REMARK    5  A    between atoms: C_9  and  C_10
REMARK    6  A    between atoms: C_10  and  C_11
REMARK    7  A    between atoms: C_11  and  N_12
REMARK    8  A    between atoms: C_17  and  C_18
REMARK    9  A    between atoms: C_22  and  O_23
REMARK                            x       y       z     vdW  Elec       q    Type
REMARK                         _______ _______ _______ _____ _____    ______ ____
ROOT
ATOM      1  C   UNL     1       2.761   5.297  18.869  0.00  0.00    +0.000 C 
ATOM      2  C   UNL     1       2.174   4.091  18.833  0.00  0.00    +0.000 C 
ATOM      3  C   UNL     1       2.697   3.380  17.639  0.00  0.00    +0.000 C 
ATOM      4  O   UNL     1       2.350   2.278  17.254  0.00  0.00    +0.000 OA
ATOM      5  N   UNL     1       3.595   4.232  17.024  0.00  0.00    +0.000 N 
ATOM      6  C   UNL     1       3.753   5.476  17.755  0.00  0.00    +0.000 C 
ENDROOT
BRANCH   6   7
ATOM      7  C   UNL     1       5.189   5.792  18.144  0.00  0.00    +0.000 A 
ATOM      8  C   UNL     1       5.880   5.139  19.175  0.00  0.00    +0.000 A 
ATOM      9  C   UNL     1       7.183   5.526  19.525  0.00  0.00    +0.000 A 
ATOM     10  C   UNL     1       7.822   6.559  18.844  0.00  0.00    +0.000 A 
ATOM     11  C   UNL     1       7.165   7.185  17.793  0.00  0.00    +0.000 A 
ATOM     12  C   UNL     1       5.870   6.810  17.445  0.00  0.00    +0.000 A 
BRANCH  11  13
ATOM     13  O   UNL     1       7.745   8.182  17.077  0.00  0.00    +0.000 OA
ATOM     14  H   UNL     1       7.545   8.053  16.134  0.00  0.00    +0.000 HD
ENDBRANCH  11  13
ENDBRANCH   6   7
BRANCH   1  16
ATOM     15  O   UNL     1       2.453   5.963  21.104  0.00  0.00    +0.000 OA
ATOM     16  C   UNL     1       2.392   6.277  19.924  0.00  0.00    +0.000 C 
BRANCH  16  17
ATOM     17  C   UNL     1       1.963   7.653  19.542  0.00  0.00    +0.000 A 
ATOM     18  C   UNL     1       2.199   8.164  18.264  0.00  0.00    +0.000 A 
ATOM     19  C   UNL     1       1.918   9.499  17.981  0.00  0.00    +0.000 A 
ATOM     20  C   UNL     1       1.328  10.311  18.946  0.00  0.00    +0.000 A 
ATOM     21  C   UNL     1       0.964   9.772  20.173  0.00  0.00    +0.000 A 
ATOM     22  C   UNL     1       1.282   8.442  20.477  0.00  0.00    +0.000 A 
ATOM     23  O   UNL     1       0.265  10.466  21.113  0.00  0.00    +0.000 OA
ATOM     24  C   UNL     1       0.352  11.878  20.966  0.00  0.00    +0.000 C 
ATOM     25  C   UNL     1       0.495  12.425  19.548  0.00  0.00    +0.000 C 
ATOM     26  O   UNL     1       1.140  11.606  18.584  0.00  0.00    +0.000 OA
ENDBRANCH  16  17
ENDBRANCH   1  16
BRANCH   2  27
ATOM     27  O   UNL     1       1.213   3.579  19.660  0.00  0.00    +0.000 OA
ATOM     28  H   UNL     1       1.400   2.623  19.780  0.00  0.00    +0.000 HD
ENDBRANCH   2  27
BRANCH   5  29
ATOM     29  C   UNL     1       4.231   3.956  15.742  0.00  0.00    +0.000 C 
BRANCH  29  30
ATOM     30  C   UNL     1       5.662   3.406  15.812  0.00  0.00    +0.000 C 
BRANCH  30  31
ATOM     31  C   UNL     1       6.739   4.363  15.303  0.00  0.00    +0.000 C 
BRANCH  31  32
ATOM     32  N   UNL     1       6.865   4.328  13.854  0.00  0.00    +0.000 N 
ATOM     33  C   UNL     1       7.668   5.133  13.092  0.00  0.00    +0.000 A 
ATOM     34  C   UNL     1       7.470   4.712  11.798  0.00  0.00    +0.000 A 
ATOM     35  N   UNL     1       6.578   3.671  11.759  0.00  0.00    +0.000 NA
ATOM     36  C   UNL     1       6.231   3.465  13.008  0.00  0.00    +0.000 A 
ENDBRANCH  31  32
ENDBRANCH  30  31
ENDBRANCH  29  30
ENDBRANCH   5  29
TORSDOF 9
ENDMDL
MODEL 5
REMARK VINA RESULT:      -7.9      2.810      6.393
REMARK  Name = 
REMARK  9 active torsions:
REMARK  status: ('A' for Active; 'I' for Inactive)
REMARK    1  A    between atoms: C_2  and  C_3
REMARK    2  A    between atoms: C_2  and  C_25
REMARK    3  A    between atoms: C_4  and  O_5
REMARK    4  A    between atoms: N_8  and  C_9
REMARK    5  A    between atoms: C_9  and  C_10
REMARK    6  A    between atoms: C_10  and  C_11
REMARK    7  A    between atoms: C_11  and  N_12
REMARK    8  A    between atoms: C_17  and  C_18
REMARK    9  A    between atoms: C_22  and  O_23
REMARK                            x       y       z     vdW  Elec       q    Type
REMARK                         _______ _______ _______ _____ _____    ______ ____
ROOT
ATOM      1  C   UNL     1       6.551   5.050  17.620  0.00  0.00    +0.000 C 
ATOM      2  C   UNL     1       6.940   4.660  16.396  0.00  0.00    +0.000 C 
ATOM      3  C   UNL     1       5.817   3.895  15.797  0.00  0.00    +0.000 C 
ATOM      4  O   UNL     1       5.827   3.341  14.714  0.00  0.00    +0.000 OA
ATOM      5  N   UNL     1       4.795   3.883  16.730  0.00  0.00    +0.000 N 
ATOM      6  C   UNL     1       5.138   4.636  17.922  0.00  0.00    +0.000 C 
ENDROOT
BRANCH   6   7
ATOM      7  C   UNL     1       4.148   5.738  18.267  0.00  0.00    +0.000 A 
ATOM      8  C   UNL     1       3.878   6.834  17.435  0.00  0.00    +0.000 A 
ATOM      9  C   UNL     1       3.001   7.850  17.845  0.00  0.00    +0.000 A 
ATOM     10  C   UNL     1       2.369   7.782  19.085  0.00  0.00    +0.000 A 
ATOM     11  C   UNL     1       2.595   6.682  19.900  0.00  0.00    +0.000 A 
ATOM     12  C   UNL     1       3.469   5.674  19.502  0.00  0.00    +0.000 A 
BRANCH  11  13
ATOM     13  O   UNL     1       1.991   6.548  21.109  0.00  0.00    +0.000 OA
ATOM     14  H   UNL     1       1.722   7.426  21.429  0.00  0.00    +0.000 HD
ENDBRANCH  11  13
ENDBRANCH   6   7
BRANCH   1  16
ATOM     15  O   UNL     1       8.131   5.192  19.356  0.00  0.00    +0.000 OA
ATOM     16  C   UNL     1       7.490   5.789  18.502  0.00  0.00    +0.000 C 
BRANCH  16  17
ATOM     17  C   UNL     1       7.667   7.261  18.333  0.00  0.00    +0.000 A 
ATOM     18  C   UNL     1       6.914   7.985  17.408  0.00  0.00    +0.000 A 
ATOM     19  C   UNL     1       7.201   9.328  17.170  0.00  0.00    +0.000 A 
ATOM     20  C   UNL     1       8.188   9.976  17.907  0.00  0.00    +0.000 A 
ATOM     21  C   UNL     1       8.846   9.297  18.924  0.00  0.00    +0.000 A 
ATOM     22  C   UNL     1       8.591   7.936  19.140  0.00  0.00    +0.000 A 
ATOM     23  O   UNL     1       9.725   9.898  19.774  0.00  0.00    +0.000 OA
ATOM     24  C   UNL     1      10.276  11.107  19.267  0.00  0.00    +0.000 C 
ATOM     25  C   UNL     1       9.393  11.945  18.347  0.00  0.00    +0.000 C 
ATOM     26  O   UNL     1       8.420  11.268  17.564  0.00  0.00    +0.000 OA
ENDBRANCH  16  17
ENDBRANCH   1  16
BRANCH   2  27
ATOM     27  O   UNL     1       8.151   4.833  15.785  0.00  0.00    +0.000 OA
ATOM     28  H   UNL     1       8.239   5.784  15.561  0.00  0.00    +0.000 HD
ENDBRANCH   2  27
BRANCH   5  29
ATOM     29  C   UNL     1       3.564   3.121  16.575  0.00  0.00    +0.000 C 
BRANCH  29  30
ATOM     30  C   UNL     1       3.205   2.188  17.740  0.00  0.00    +0.000 C 
BRANCH  30  31
ATOM     31  C   UNL     1       1.860   2.484  18.404  0.00  0.00    +0.000 C 
BRANCH  31  32
ATOM     32  N   UNL     1       1.977   2.614  19.848  0.00  0.00    +0.000 N 
ATOM     33  C   UNL     1       0.964   2.916  20.717  0.00  0.00    +0.000 A 
ATOM     34  C   UNL     1       1.546   2.900  21.963  0.00  0.00    +0.000 A 
ATOM     35  N   UNL     1       2.878   2.587  21.870  0.00  0.00    +0.000 NA
ATOM     36  C   UNL     1       3.107   2.423  20.588  0.00  0.00    +0.000 A 
ENDBRANCH  31  32
ENDBRANCH  30  31
ENDBRANCH  29  30
ENDBRANCH   5  29
TORSDOF 9
ENDMDL
MODEL 6
REMARK VINA RESULT:      -7.8      7.708     10.562
REMARK  Name = 
REMARK  9 active torsions:
REMARK  status: ('A' for Active; 'I' for Inactive)
REMARK    1  A    between atoms: C_2  and  C_3
REMARK    2  A    between atoms: C_2  and  C_25
REMARK    3  A    between atoms: C_4  and  O_5
REMARK    4  A    between atoms: N_8  and  C_9
REMARK    5  A    between atoms: C_9  and  C_10
REMARK    6  A    between atoms: C_10  and  C_11
REMARK    7  A    between atoms: C_11  and  N_12
REMARK    8  A    between atoms: C_17  and  C_18
REMARK    9  A    between atoms: C_22  and  O_23
REMARK                            x       y       z     vdW  Elec       q    Type
REMARK                         _______ _______ _______ _____ _____    ______ ____
ROOT
ATOM      1  C   UNL     1      -0.969  11.727  22.016  0.00  0.00    +0.000 C 
ATOM      2  C   UNL     1      -0.542  10.518  22.412  0.00  0.00    +0.000 C 
ATOM      3  C   UNL     1      -0.174   9.756  21.192  0.00  0.00    +0.000 C 
ATOM      4  O   UNL     1       0.205   8.601  21.157  0.00  0.00    +0.000 OA
ATOM      5  N   UNL     1      -0.408  10.589  20.112  0.00  0.00    +0.000 N 
ATOM      6  C   UNL     1      -0.875  11.899  20.527  0.00  0.00    +0.000 C 
ENDROOT
BRANCH   6   7
ATOM      7  C   UNL     1      -0.030  13.053  20.010  0.00  0.00    +0.000 A 
ATOM      8  C   UNL     1       1.360  13.138  20.177  0.00  0.00    +0.000 A 
ATOM      9  C   UNL     1       2.070  14.264  19.733  0.00  0.00    +0.000 A 
ATOM     10  C   UNL     1       1.409  15.316  19.104  0.00  0.00    +0.000 A 
ATOM     11  C   UNL     1       0.039  15.225  18.895  0.00  0.00    +0.000 A 
ATOM     12  C   UNL     1      -0.672  14.114  19.338  0.00  0.00    +0.000 A 
BRANCH  11  13
ATOM     13  O   UNL     1      -0.657  16.208  18.266  0.00  0.00    +0.000 OA
ATOM     14  H   UNL     1      -0.360  17.071  18.600  0.00  0.00    +0.000 HD
ENDBRANCH  11  13
ENDBRANCH   6   7
BRANCH   1  16
ATOM     15  O   UNL     1      -0.694  13.459  23.584  0.00  0.00    +0.000 OA
ATOM     16  C   UNL     1      -1.472  12.706  23.015  0.00  0.00    +0.000 C 
BRANCH  16  17
ATOM     17  C   UNL     1      -2.932  12.781  23.310  0.00  0.00    +0.000 A 
ATOM     18  C   UNL     1      -3.436  12.497  24.581  0.00  0.00    +0.000 A 
ATOM     19  C   UNL     1      -4.812  12.436  24.790  0.00  0.00    +0.000 A 
ATOM     20  C   UNL     1      -5.693  12.733  23.753  0.00  0.00    +0.000 A 
ATOM     21  C   UNL     1      -5.198  13.150  22.525  0.00  0.00    +0.000 A 
ATOM     22  C   UNL     1      -3.815  13.174  22.297  0.00  0.00    +0.000 A 
ATOM     23  O   UNL     1      -5.993  13.584  21.509  0.00  0.00    +0.000 OA
ATOM     24  C   UNL     1      -7.341  13.140  21.606  0.00  0.00    +0.000 C 
ATOM     25  C   UNL     1      -7.912  12.946  23.008  0.00  0.00    +0.000 C 
ATOM     26  O   UNL     1      -7.011  12.597  24.049  0.00  0.00    +0.000 OA
ENDBRANCH  16  17
ENDBRANCH   1  16
BRANCH   2  27
ATOM     27  O   UNL     1      -0.498   9.994  23.674  0.00  0.00    +0.000 OA
ATOM     28  H   UNL     1      -1.094  10.529  24.241  0.00  0.00    +0.000 HD
ENDBRANCH   2  27
BRANCH   5  29
ATOM     29  C   UNL     1      -0.295  10.167  18.722  0.00  0.00    +0.000 C 
BRANCH  29  30
ATOM     30  C   UNL     1      -1.620  10.023  17.959  0.00  0.00    +0.000 C 
BRANCH  30  31
ATOM     31  C   UNL     1      -2.120  11.308  17.300  0.00  0.00    +0.000 C 
BRANCH  31  32
ATOM     32  N   UNL     1      -3.526  11.555  17.574  0.00  0.00    +0.000 N 
ATOM     33  C   UNL     1      -4.552  11.482  16.671  0.00  0.00    +0.000 A 
ATOM     34  C   UNL     1      -5.686  11.768  17.396  0.00  0.00    +0.000 A 
ATOM     35  N   UNL     1      -5.374  12.001  18.710  0.00  0.00    +0.000 NA
ATOM     36  C   UNL     1      -4.070  11.869  18.786  0.00  0.00    +0.000 A 
ENDBRANCH  31  32
ENDBRANCH  30  31
ENDBRANCH  29  30
ENDBRANCH   5  29
TORSDOF 9
ENDMDL
MODEL 7
REMARK VINA RESULT:      -7.8      2.876      6.489
REMARK  Name = 
REMARK  9 active torsions:
REMARK  status: ('A' for Active; 'I' for Inactive)
REMARK    1  A    between atoms: C_2  and  C_3
REMARK    2  A    between atoms: C_2  and  C_25
REMARK    3  A    between atoms: C_4  and  O_5
REMARK    4  A    between atoms: N_8  and  C_9
REMARK    5  A    between atoms: C_9  and  C_10
REMARK    6  A    between atoms: C_10  and  C_11
REMARK    7  A    between atoms: C_11  and  N_12
REMARK    8  A    between atoms: C_17  and  C_18
REMARK    9  A    between atoms: C_22  and  O_23
REMARK                            x       y       z     vdW  Elec       q    Type
REMARK                         _______ _______ _______ _____ _____    ______ ____
ROOT
ATOM      1  C   UNL     1       6.460   5.240  17.463  0.00  0.00    +0.000 C 
ATOM      2  C   UNL     1       6.716   5.019  16.164  0.00  0.00    +0.000 C 
ATOM      3  C   UNL     1       5.559   4.275  15.606  0.00  0.00    +0.000 C 
ATOM      4  O   UNL     1       5.460   3.855  14.468  0.00  0.00    +0.000 OA
ATOM      5  N   UNL     1       4.656   4.099  16.640  0.00  0.00    +0.000 N 
ATOM      6  C   UNL     1       5.110   4.721  17.870  0.00  0.00    +0.000 C 
ENDROOT
BRANCH   6   7
ATOM      7  C   UNL     1       4.128   5.722  18.460  0.00  0.00    +0.000 A 
ATOM      8  C   UNL     1       3.576   5.608  19.744  0.00  0.00    +0.000 A 
ATOM      9  C   UNL     1       2.624   6.533  20.202  0.00  0.00    +0.000 A 
ATOM     10  C   UNL     1       2.219   7.591  19.393  0.00  0.00    +0.000 A 
ATOM     11  C   UNL     1       2.790   7.740  18.136  0.00  0.00    +0.000 A 
ATOM     12  C   UNL     1       3.730   6.822  17.674  0.00  0.00    +0.000 A 
BRANCH  11  13
ATOM     13  O   UNL     1       2.454   8.765  17.311  0.00  0.00    +0.000 OA
ATOM     14  H   UNL     1       1.872   9.380  17.789  0.00  0.00    +0.000 HD
ENDBRANCH  11  13
ENDBRANCH   6   7
BRANCH   1  16
ATOM     15  O   UNL     1       8.157   5.262  19.093  0.00  0.00    +0.000 OA
ATOM     16  C   UNL     1       7.471   5.915  18.319  0.00  0.00    +0.000 C 
BRANCH  16  17
ATOM     17  C   UNL     1       7.661   7.391  18.219  0.00  0.00    +0.000 A 
ATOM     18  C   UNL     1       6.898   8.169  17.346  0.00  0.00    +0.000 A 
ATOM     19  C   UNL     1       7.196   9.518  17.169  0.00  0.00    +0.000 A 
ATOM     20  C   UNL     1       8.206  10.118  17.917  0.00  0.00    +0.000 A 
ATOM     21  C   UNL     1       8.876   9.383  18.886  0.00  0.00    +0.000 A 
ATOM     22  C   UNL     1       8.609   8.016  19.039  0.00  0.00    +0.000 A 
ATOM     23  O   UNL     1       9.778   9.931  19.745  0.00  0.00    +0.000 OA
ATOM     24  C   UNL     1      10.334  11.158  19.288  0.00  0.00    +0.000 C 
ATOM     25  C   UNL     1       9.442  12.050  18.429  0.00  0.00    +0.000 C 
ATOM     26  O   UNL     1       8.446  11.423  17.634  0.00  0.00    +0.000 OA
ENDBRANCH  16  17
ENDBRANCH   1  16
BRANCH   2  27
ATOM     27  O   UNL     1       7.838   5.325  15.446  0.00  0.00    +0.000 OA
ATOM     28  H   UNL     1       7.691   6.196  15.019  0.00  0.00    +0.000 HD
ENDBRANCH   2  27
BRANCH   5  29
ATOM     29  C   UNL     1       3.444   3.299  16.532  0.00  0.00    +0.000 C 
BRANCH  29  30
ATOM     30  C   UNL     1       3.260   2.217  17.606  0.00  0.00    +0.000 C 
BRANCH  30  31
ATOM     31  C   UNL     1       1.898   2.231  18.299  0.00  0.00    +0.000 C 
BRANCH  31  32
ATOM     32  N   UNL     1       2.010   2.498  19.725  0.00  0.00    +0.000 N 
ATOM     33  C   UNL     1       1.023   2.989  20.535  0.00  0.00    +0.000 A 
ATOM     34  C   UNL     1       1.586   3.043  21.789  0.00  0.00    +0.000 A 
ATOM     35  N   UNL     1       2.879   2.590  21.759  0.00  0.00    +0.000 NA
ATOM     36  C   UNL     1       3.106   2.272  20.506  0.00  0.00    +0.000 A 
ENDBRANCH  31  32
ENDBRANCH  30  31
ENDBRANCH  29  30
ENDBRANCH   5  29
TORSDOF 9
ENDMDL
MODEL 8
REMARK VINA RESULT:      -7.7      4.891      9.796
REMARK  Name = 
REMARK  9 active torsions:
REMARK  status: ('A' for Active; 'I' for Inactive)
REMARK    1  A    between atoms: C_2  and  C_3
REMARK    2  A    between atoms: C_2  and  C_25
REMARK    3  A    between atoms: C_4  and  O_5
REMARK    4  A    between atoms: N_8  and  C_9
REMARK    5  A    between atoms: C_9  and  C_10
REMARK    6  A    between atoms: C_10  and  C_11
REMARK    7  A    between atoms: C_11  and  N_12
REMARK    8  A    between atoms: C_17  and  C_18
REMARK    9  A    between atoms: C_22  and  O_23
REMARK                            x       y       z     vdW  Elec       q    Type
REMARK                         _______ _______ _______ _____ _____    ______ ____
ROOT
ATOM      1  C   UNL     1      -0.085  10.446  20.833  0.00  0.00    +0.000 C 
ATOM      2  C   UNL     1      -0.158  11.126  21.987  0.00  0.00    +0.000 C 
ATOM      3  C   UNL     1      -0.299  12.564  21.646  0.00  0.00    +0.000 C 
ATOM      4  O   UNL     1      -0.341  13.487  22.438  0.00  0.00    +0.000 OA
ATOM      5  N   UNL     1      -0.306  12.652  20.265  0.00  0.00    +0.000 N 
ATOM      6  C   UNL     1      -0.222  11.346  19.637  0.00  0.00    +0.000 C 
ENDROOT
BRANCH   6   7
ATOM      7  C   UNL     1      -1.356  11.048  18.668  0.00  0.00    +0.000 A 
ATOM      8  C   UNL     1      -1.255  10.140  17.603  0.00  0.00    +0.000 A 
ATOM      9  C   UNL     1      -2.320   9.962  16.706  0.00  0.00    +0.000 A 
ATOM     10  C   UNL     1      -3.506  10.675  16.864  0.00  0.00    +0.000 A 
ATOM     11  C   UNL     1      -3.634  11.545  17.939  0.00  0.00    +0.000 A 
ATOM     12  C   UNL     1      -2.580  11.731  18.828  0.00  0.00    +0.000 A 
BRANCH  11  13
ATOM     13  O   UNL     1      -4.774  12.250  18.159  0.00  0.00    +0.000 OA
ATOM     14  H   UNL     1      -4.897  12.365  19.117  0.00  0.00    +0.000 HD
ENDBRANCH  11  13
ENDBRANCH   6   7
BRANCH   1  16
ATOM     15  O   UNL     1      -0.584   8.258  21.536  0.00  0.00    +0.000 OA
ATOM     16  C   UNL     1       0.125   8.975  20.844  0.00  0.00    +0.000 C 
BRANCH  16  17
ATOM     17  C   UNL     1       1.191   8.370  19.995  0.00  0.00    +0.000 A 
ATOM     18  C   UNL     1       1.653   9.005  18.840  0.00  0.00    +0.000 A 
ATOM     19  C   UNL     1       2.544   8.351  17.991  0.00  0.00    +0.000 A 
ATOM     20  C   UNL     1       3.038   7.093  18.327  0.00  0.00    +0.000 A 
ATOM     21  C   UNL     1       2.689   6.516  19.540  0.00  0.00    +0.000 A 
ATOM     22  C   UNL     1       1.762   7.150  20.379  0.00  0.00    +0.000 A 
ATOM     23  O   UNL     1       3.233   5.355  19.997  0.00  0.00    +0.000 OA
ATOM     24  C   UNL     1       3.799   4.545  18.973  0.00  0.00    +0.000 C 
ATOM     25  C   UNL     1       4.405   5.263  17.770  0.00  0.00    +0.000 C 
ATOM     26  O   UNL     1       3.861   6.525  17.409  0.00  0.00    +0.000 OA
ENDBRANCH  16  17
ENDBRANCH   1  16
BRANCH   2  27
ATOM     27  O   UNL     1      -0.054  10.658  23.268  0.00  0.00    +0.000 OA
ATOM     28  H   UNL     1       0.609  11.210  23.735  0.00  0.00    +0.000 HD
ENDBRANCH   2  27
BRANCH   5  29
ATOM     29  C   UNL     1      -0.296  13.910  19.531  0.00  0.00    +0.000 C 
BRANCH  29  30
ATOM     30  C   UNL     1       1.060  14.332  18.948  0.00  0.00    +0.000 C 
BRANCH  30  31
ATOM     31  C   UNL     1       2.188  14.444  19.972  0.00  0.00    +0.000 C 
BRANCH  31  32
ATOM     32  N   UNL     1       3.478  14.684  19.345  0.00  0.00    +0.000 N 
ATOM     33  C   UNL     1       3.770  14.541  18.016  0.00  0.00    +0.000 A 
ATOM     34  C   UNL     1       5.092  14.905  17.900  0.00  0.00    +0.000 A 
ATOM     35  N   UNL     1       5.601  15.271  19.119  0.00  0.00    +0.000 NA
ATOM     36  C   UNL     1       4.609  15.126  19.967  0.00  0.00    +0.000 A 
ENDBRANCH  31  32
ENDBRANCH  30  31
ENDBRANCH  29  30
ENDBRANCH   5  29
TORSDOF 9
ENDMDL
MODEL 9
REMARK VINA RESULT:      -7.6      4.961     10.105
REMARK  Name = 
REMARK  9 active torsions:
REMARK  status: ('A' for Active; 'I' for Inactive)
REMARK    1  A    between atoms: C_2  and  C_3
REMARK    2  A    between atoms: C_2  and  C_25
REMARK    3  A    between atoms: C_4  and  O_5
REMARK    4  A    between atoms: N_8  and  C_9
REMARK    5  A    between atoms: C_9  and  C_10
REMARK    6  A    between atoms: C_10  and  C_11
REMARK    7  A    between atoms: C_11  and  N_12
REMARK    8  A    between atoms: C_17  and  C_18
REMARK    9  A    between atoms: C_22  and  O_23
REMARK                            x       y       z     vdW  Elec       q    Type
REMARK                         _______ _______ _______ _____ _____    ______ ____
ROOT
ATOM      1  C   UNL     1      -0.221  10.393  21.006  0.00  0.00    +0.000 C 
ATOM      2  C   UNL     1      -0.339  11.023  22.185  0.00  0.00    +0.000 C 
ATOM      3  C   UNL     1      -0.504  12.471  21.899  0.00  0.00    +0.000 C 
ATOM      4  O   UNL     1      -0.588  13.359  22.727  0.00  0.00    +0.000 OA
ATOM      5  N   UNL     1      -0.478  12.615  20.523  0.00  0.00    +0.000 N 
ATOM      6  C   UNL     1      -0.349  11.338  19.845  0.00  0.00    +0.000 C 
ENDROOT
BRANCH   6   7
ATOM      7  C   UNL     1      -1.450  11.056  18.835  0.00  0.00    +0.000 A 
ATOM      8  C   UNL     1      -1.326  10.140  17.780  0.00  0.00    +0.000 A 
ATOM      9  C   UNL     1      -2.359   9.976  16.844  0.00  0.00    +0.000 A 
ATOM     10  C   UNL     1      -3.536  10.712  16.953  0.00  0.00    +0.000 A 
ATOM     11  C   UNL     1      -3.689  11.590  18.017  0.00  0.00    +0.000 A 
ATOM     12  C   UNL     1      -2.666  11.762  18.945  0.00  0.00    +0.000 A 
BRANCH  11  13
ATOM     13  O   UNL     1      -4.823  12.318  18.190  0.00  0.00    +0.000 OA
ATOM     14  H   UNL     1      -5.420  11.838  18.788  0.00  0.00    +0.000 HD
ENDBRANCH  11  13
ENDBRANCH   6   7
BRANCH   1  16
ATOM     15  O   UNL     1      -0.668   8.169  21.629  0.00  0.00    +0.000 OA
ATOM     16  C   UNL     1       0.023   8.928  20.964  0.00  0.00    +0.000 C 
BRANCH  16  17
ATOM     17  C   UNL     1       1.101   8.379  20.091  0.00  0.00    +0.000 A 
ATOM     18  C   UNL     1       1.540   9.062  18.955  0.00  0.00    +0.000 A 
ATOM     19  C   UNL     1       2.443   8.460  18.082  0.00  0.00    +0.000 A 
ATOM     20  C   UNL     1       2.974   7.206  18.376  0.00  0.00    +0.000 A 
ATOM     21  C   UNL     1       2.647   6.582  19.572  0.00  0.00    +0.000 A 
ATOM     22  C   UNL     1       1.707   7.165  20.434  0.00  0.00    +0.000 A 
ATOM     23  O   UNL     1       3.225   5.423  19.990  0.00  0.00    +0.000 OA
ATOM     24  C   UNL     1       3.808   4.662  18.939  0.00  0.00    +0.000 C 
ATOM     25  C   UNL     1       4.387   5.433  17.757  0.00  0.00    +0.000 C 
ATOM     26  O   UNL     1       3.807   6.690  17.437  0.00  0.00    +0.000 OA
ENDBRANCH  16  17
ENDBRANCH   1  16
BRANCH   2  27
ATOM     27  O   UNL     1      -0.257  10.505  23.448  0.00  0.00    +0.000 OA
ATOM     28  H   UNL     1       0.338   9.726  23.413  0.00  0.00    +0.000 HD
ENDBRANCH   2  27
BRANCH   5  29
ATOM     29  C   UNL     1      -0.479  13.902  19.841  0.00  0.00    +0.000 C 
BRANCH  29  30
ATOM     30  C   UNL     1       0.632  14.877  20.255  0.00  0.00    +0.000 C 
BRANCH  30  31
ATOM     31  C   UNL     1       1.989  14.612  19.604  0.00  0.00    +0.000 C 
BRANCH  31  32
ATOM     32  N   UNL     1       2.345  15.638  18.637  0.00  0.00    +0.000 N 
ATOM     33  C   UNL     1       3.267  15.518  17.633  0.00  0.00    +0.000 A 
ATOM     34  C   UNL     1       3.235  16.724  16.973  0.00  0.00    +0.000 A 
ATOM     35  N   UNL     1       2.314  17.564  17.545  0.00  0.00    +0.000 NA
ATOM     36  C   UNL     1       1.798  16.884  18.543  0.00  0.00    +0.000 A 
ENDBRANCH  31  32
ENDBRANCH  30  31
ENDBRANCH  29  30
ENDBRANCH   5  29
TORSDOF 9
ENDMDL
