MODEL 1
REMARK VINA RESULT:      -8.2      0.000      0.000
REMARK  Name = 
REMARK  6 active torsions:
REMARK  status: ('A' for Active; 'I' for Inactive)
REMARK    1  A    between atoms: C_1  and  O_2
REMARK    2  A    between atoms: O_2  and  C_3
REMARK    3  A    between atoms: C_6  and  C_7
REMARK    4  A    between atoms: C_9  and  N_10
REMARK    5  A    between atoms: N_10  and  C_11
REMARK    6  A    between atoms: C_13  and  C_14
REMARK                            x       y       z     vdW  Elec       q    Type
REMARK                         _______ _______ _______ _____ _____    ______ ____
ROOT
ATOM      1  N   UNL     1       5.592   3.942  19.034  0.00  0.00    +0.000 N 
ATOM      2  H   UNL     1       5.655   3.001  18.625  0.00  0.00    +0.000 HD
ENDROOT
BRANCH   1   3
ATOM      3  C   UNL     1       6.311   4.837  18.233  0.00  0.00    +0.000 A 
ATOM      4  C   UNL     1       7.003   5.886  18.712  0.00  0.00    +0.000 A 
ATOM      5  C   UNL     1       7.581   6.824  17.706  0.00  0.00    +0.000 A 
ATOM      6  C   UNL     1       8.202   8.091  18.242  0.00  0.00    +0.000 C 
ATOM      7  N   UNL     1       7.552   6.657  16.417  0.00  0.00    +0.000 NA
ATOM      8  C   UNL     1       6.911   5.540  15.964  0.00  0.00    +0.000 A 
ATOM      9  N   UNL     1       6.726   5.128  14.727  0.00  0.00    +0.000 NA
ATOM     10  C   UNL     1       5.983   3.998  14.875  0.00  0.00    +0.000 A 
ATOM     11  N   UNL     1       5.685   3.649  16.128  0.00  0.00    +0.000 NA
ATOM     12  N   UNL     1       6.284   4.645  16.839  0.00  0.00    +0.000 N 
ENDBRANCH   1   3
BRANCH   1  19
ATOM     13  C   UNL     1       3.292   3.156  19.679  0.00  0.00    +0.000 A 
ATOM     14  C   UNL     1       1.998   3.495  20.087  0.00  0.00    +0.000 A 
ATOM     15  C   UNL     1       1.610   4.830  20.188  0.00  0.00    +0.000 A 
ATOM     16  C   UNL     1       2.518   5.851  19.908  0.00  0.00    +0.000 A 
ATOM     17  C   UNL     1       2.100   7.288  20.014  0.00  0.00    +0.000 C 
ATOM     18  C   UNL     1       3.826   5.517  19.525  0.00  0.00    +0.000 A 
ATOM     19  C   UNL     1       4.221   4.177  19.372  0.00  0.00    +0.000 A 
BRANCH  13  21
ATOM     20  C   UNL     1       3.635   1.226  18.338  0.00  0.00    +0.000 C 
ATOM     21  O   UNL     1       3.721   1.851  19.614  0.00  0.00    +0.000 OA
ENDBRANCH  13  21
ENDBRANCH   1  19
TORSDOF 3
ENDMDL
MODEL 2
REMARK VINA RESULT:      -7.9      1.375      2.277
REMARK  Name = 
REMARK  6 active torsions:
REMARK  status: ('A' for Active; 'I' for Inactive)
REMARK    1  A    between atoms: C_1  and  O_2
REMARK    2  A    between atoms: O_2  and  C_3
REMARK    3  A    between atoms: C_6  and  C_7
REMARK    4  A    between atoms: C_9  and  N_10
REMARK    5  A    between atoms: N_10  and  C_11
REMARK    6  A    between atoms: C_13  and  C_14
REMARK                            x       y       z     vdW  Elec       q    Type
REMARK                         _______ _______ _______ _____ _____    ______ ____
ROOT
ATOM      1  N   UNL     1       5.319   3.537  18.501  0.00  0.00    +0.000 N 
ATOM      2  H   UNL     1       5.158   2.754  17.853  0.00  0.00    +0.000 HD
ENDROOT
BRANCH   1   3
ATOM      3  C   UNL     1       6.150   4.477  17.881  0.00  0.00    +0.000 A 
ATOM      4  C   UNL     1       6.813   5.444  18.541  0.00  0.00    +0.000 A 
ATOM      5  C   UNL     1       7.529   6.454  17.709  0.00  0.00    +0.000 A 
ATOM      6  C   UNL     1       8.121   7.635  18.439  0.00  0.00    +0.000 C 
ATOM      7  N   UNL     1       7.644   6.418  16.414  0.00  0.00    +0.000 NA
ATOM      8  C   UNL     1       7.027   5.378  15.779  0.00  0.00    +0.000 A 
ATOM      9  N   UNL     1       6.974   5.100  14.494  0.00  0.00    +0.000 NA
ATOM     10  C   UNL     1       6.187   3.992  14.439  0.00  0.00    +0.000 A 
ATOM     11  N   UNL     1       5.736   3.532  15.608  0.00  0.00    +0.000 NA
ATOM     12  N   UNL     1       6.278   4.427  16.481  0.00  0.00    +0.000 N 
ENDBRANCH   1   3
BRANCH   1  19
ATOM     13  C   UNL     1       3.227   4.932  18.531  0.00  0.00    +0.000 A 
ATOM     14  C   UNL     1       1.964   5.158  19.090  0.00  0.00    +0.000 A 
ATOM     15  C   UNL     1       1.512   4.390  20.162  0.00  0.00    +0.000 A 
ATOM     16  C   UNL     1       2.304   3.364  20.678  0.00  0.00    +0.000 A 
ATOM     17  C   UNL     1       1.818   2.539  21.833  0.00  0.00    +0.000 C 
ATOM     18  C   UNL     1       3.560   3.116  20.104  0.00  0.00    +0.000 A 
ATOM     19  C   UNL     1       4.052   3.909  19.054  0.00  0.00    +0.000 A 
BRANCH  13  21
ATOM     20  C   UNL     1       3.659   7.058  17.564  0.00  0.00    +0.000 C 
ATOM     21  O   UNL     1       3.684   5.639  17.445  0.00  0.00    +0.000 OA
ENDBRANCH  13  21
ENDBRANCH   1  19
TORSDOF 3
ENDMDL
MODEL 3
REMARK VINA RESULT:      -7.9      0.899      2.492
REMARK  Name = 
REMARK  6 active torsions:
REMARK  status: ('A' for Active; 'I' for Inactive)
REMARK    1  A    between atoms: C_1  and  O_2
REMARK    2  A    between atoms: O_2  and  C_3
REMARK    3  A    between atoms: C_6  and  C_7
REMARK    4  A    between atoms: C_9  and  N_10
REMARK    5  A    between atoms: N_10  and  C_11
REMARK    6  A    between atoms: C_13  and  C_14
REMARK                            x       y       z     vdW  Elec       q    Type
REMARK                         _______ _______ _______ _____ _____    ______ ____
ROOT
ATOM      1  N   UNL     1       5.319   3.956  18.901  0.00  0.00    +0.000 N 
ATOM      2  H   UNL     1       5.542   2.952  18.902  0.00  0.00    +0.000 HD
ENDROOT
BRANCH   1   3
ATOM      3  C   UNL     1       5.692   4.504  17.668  0.00  0.00    +0.000 A 
ATOM      4  C   UNL     1       5.283   4.027  16.479  0.00  0.00    +0.000 A 
ATOM      5  C   UNL     1       5.901   4.635  15.264  0.00  0.00    +0.000 A 
ATOM      6  C   UNL     1       5.577   3.982  13.943  0.00  0.00    +0.000 C 
ATOM      7  N   UNL     1       6.720   5.645  15.261  0.00  0.00    +0.000 NA
ATOM      8  C   UNL     1       7.054   6.159  16.481  0.00  0.00    +0.000 A 
ATOM      9  N   UNL     1       7.855   7.161  16.772  0.00  0.00    +0.000 NA
ATOM     10  C   UNL     1       7.852   7.188  18.132  0.00  0.00    +0.000 A 
ATOM     11  N   UNL     1       7.092   6.273  18.737  0.00  0.00    +0.000 NA
ATOM     12  N   UNL     1       6.572   5.603  17.671  0.00  0.00    +0.000 N 
ENDBRANCH   1   3
BRANCH   1  19
ATOM     13  C   UNL     1       3.159   3.027  19.795  0.00  0.00    +0.000 A 
ATOM     14  C   UNL     1       1.911   3.284  20.372  0.00  0.00    +0.000 A 
ATOM     15  C   UNL     1       1.473   4.593  20.570  0.00  0.00    +0.000 A 
ATOM     16  C   UNL     1       2.288   5.669  20.218  0.00  0.00    +0.000 A 
ATOM     17  C   UNL     1       1.816   7.078  20.428  0.00  0.00    +0.000 C 
ATOM     18  C   UNL     1       3.552   5.418  19.664  0.00  0.00    +0.000 A 
ATOM     19  C   UNL     1       3.991   4.107  19.414  0.00  0.00    +0.000 A 
BRANCH  13  21
ATOM     20  C   UNL     1       3.568   1.220  18.310  0.00  0.00    +0.000 C 
ATOM     21  O   UNL     1       3.641   1.751  19.629  0.00  0.00    +0.000 OA
ENDBRANCH  13  21
ENDBRANCH   1  19
TORSDOF 3
ENDMDL
MODEL 4
REMARK VINA RESULT:      -7.9      1.787      3.168
REMARK  Name = 
REMARK  6 active torsions:
REMARK  status: ('A' for Active; 'I' for Inactive)
REMARK    1  A    between atoms: C_1  and  O_2
REMARK    2  A    between atoms: O_2  and  C_3
REMARK    3  A    between atoms: C_6  and  C_7
REMARK    4  A    between atoms: C_9  and  N_10
REMARK    5  A    between atoms: N_10  and  C_11
REMARK    6  A    between atoms: C_13  and  C_14
REMARK                            x       y       z     vdW  Elec       q    Type
REMARK                         _______ _______ _______ _____ _____    ______ ____
ROOT
ATOM      1  N   UNL     1       3.723   4.167  18.356  0.00  0.00    +0.000 N 
ATOM      2  H   UNL     1       3.056   3.582  17.837  0.00  0.00    +0.000 HD
ENDROOT
BRANCH   1   3
ATOM      3  C   UNL     1       4.856   4.379  17.562  0.00  0.00    +0.000 A 
ATOM      4  C   UNL     1       4.897   4.161  16.236  0.00  0.00    +0.000 A 
ATOM      5  C   UNL     1       6.228   4.290  15.575  0.00  0.00    +0.000 A 
ATOM      6  C   UNL     1       6.307   3.874  14.127  0.00  0.00    +0.000 C 
ATOM      7  N   UNL     1       7.321   4.689  16.155  0.00  0.00    +0.000 NA
ATOM      8  C   UNL     1       7.230   4.980  17.486  0.00  0.00    +0.000 A 
ATOM      9  N   UNL     1       8.166   5.393  18.315  0.00  0.00    +0.000 NA
ATOM     10  C   UNL     1       7.522   5.465  19.512  0.00  0.00    +0.000 A 
ATOM     11  N   UNL     1       6.229   5.135  19.506  0.00  0.00    +0.000 NA
ATOM     12  N   UNL     1       6.034   4.819  18.195  0.00  0.00    +0.000 N 
ENDBRANCH   1   3
BRANCH   1  19
ATOM     13  C   UNL     1       2.418   5.247  20.215  0.00  0.00    +0.000 A 
ATOM     14  C   UNL     1       1.802   6.401  20.712  0.00  0.00    +0.000 A 
ATOM     15  C   UNL     1       1.741   7.563  19.945  0.00  0.00    +0.000 A 
ATOM     16  C   UNL     1       2.319   7.600  18.675  0.00  0.00    +0.000 A 
ATOM     17  C   UNL     1       2.251   8.850  17.848  0.00  0.00    +0.000 C 
ATOM     18  C   UNL     1       2.961   6.455  18.183  0.00  0.00    +0.000 A 
ATOM     19  C   UNL     1       2.992   5.260  18.922  0.00  0.00    +0.000 A 
BRANCH  13  21
ATOM     20  C   UNL     1       1.348   3.332  21.126  0.00  0.00    +0.000 C 
ATOM     21  O   UNL     1       2.537   4.100  20.963  0.00  0.00    +0.000 OA
ENDBRANCH  13  21
ENDBRANCH   1  19
TORSDOF 3
ENDMDL
MODEL 5
REMARK VINA RESULT:      -7.8      1.451      1.565
REMARK  Name = 
REMARK  6 active torsions:
REMARK  status: ('A' for Active; 'I' for Inactive)
REMARK    1  A    between atoms: C_1  and  O_2
REMARK    2  A    between atoms: O_2  and  C_3
REMARK    3  A    between atoms: C_6  and  C_7
REMARK    4  A    between atoms: C_9  and  N_10
REMARK    5  A    between atoms: N_10  and  C_11
REMARK    6  A    between atoms: C_13  and  C_14
REMARK                            x       y       z     vdW  Elec       q    Type
REMARK                         _______ _______ _______ _____ _____    ______ ____
ROOT
ATOM      1  N   UNL     1       3.546   4.492  17.074  0.00  0.00    +0.000 N 
ATOM      2  H   UNL     1       3.170   5.222  16.455  0.00  0.00    +0.000 HD
ENDROOT
BRANCH   1   3
ATOM      3  C   UNL     1       4.933   4.655  17.179  0.00  0.00    +0.000 A 
ATOM      4  C   UNL     1       5.576   4.888  18.337  0.00  0.00    +0.000 A 
ATOM      5  C   UNL     1       7.035   5.190  18.245  0.00  0.00    +0.000 A 
ATOM      6  C   UNL     1       7.716   5.626  19.519  0.00  0.00    +0.000 C 
ATOM      7  N   UNL     1       7.745   5.148  17.157  0.00  0.00    +0.000 NA
ATOM      8  C   UNL     1       7.078   4.829  16.009  0.00  0.00    +0.000 A 
ATOM      9  N   UNL     1       7.537   4.721  14.780  0.00  0.00    +0.000 NA
ATOM     10  C   UNL     1       6.426   4.438  14.048  0.00  0.00    +0.000 A 
ATOM     11  N   UNL     1       5.281   4.347  14.726  0.00  0.00    +0.000 NA
ATOM     12  N   UNL     1       5.697   4.599  15.999  0.00  0.00    +0.000 N 
ENDBRANCH   1   3
BRANCH   1  19
ATOM     13  C   UNL     1       2.183   3.236  18.773  0.00  0.00    +0.000 A 
ATOM     14  C   UNL     1       1.451   3.276  19.965  0.00  0.00    +0.000 A 
ATOM     15  C   UNL     1       1.230   4.483  20.625  0.00  0.00    +0.000 A 
ATOM     16  C   UNL     1       1.759   5.671  20.119  0.00  0.00    +0.000 A 
ATOM     17  C   UNL     1       1.518   6.971  20.828  0.00  0.00    +0.000 C 
ATOM     18  C   UNL     1       2.516   5.633  18.939  0.00  0.00    +0.000 A 
ATOM     19  C   UNL     1       2.711   4.433  18.234  0.00  0.00    +0.000 A 
BRANCH  13  21
ATOM     20  C   UNL     1       3.619   1.358  18.559  0.00  0.00    +0.000 C 
ATOM     21  O   UNL     1       2.459   2.058  18.122  0.00  0.00    +0.000 OA
ENDBRANCH  13  21
ENDBRANCH   1  19
TORSDOF 3
ENDMDL
MODEL 6
REMARK VINA RESULT:      -7.8      2.040      3.830
REMARK  Name = 
REMARK  6 active torsions:
REMARK  status: ('A' for Active; 'I' for Inactive)
REMARK    1  A    between atoms: C_1  and  O_2
REMARK    2  A    between atoms: O_2  and  C_3
REMARK    3  A    between atoms: C_6  and  C_7
REMARK    4  A    between atoms: C_9  and  N_10
REMARK    5  A    between atoms: N_10  and  C_11
REMARK    6  A    between atoms: C_13  and  C_14
REMARK                            x       y       z     vdW  Elec       q    Type
REMARK                         _______ _______ _______ _____ _____    ______ ____
ROOT
ATOM      1  N   UNL     1       3.758   6.301  17.739  0.00  0.00    +0.000 N 
ATOM      2  H   UNL     1       3.988   7.188  18.205  0.00  0.00    +0.000 HD
ENDROOT
BRANCH   1   3
ATOM      3  C   UNL     1       4.926   5.756  17.193  0.00  0.00    +0.000 A 
ATOM      4  C   UNL     1       5.065   5.420  15.899  0.00  0.00    +0.000 A 
ATOM      5  C   UNL     1       6.321   4.709  15.521  0.00  0.00    +0.000 A 
ATOM      6  C   UNL     1       6.398   4.176  14.111  0.00  0.00    +0.000 C 
ATOM      7  N   UNL     1       7.324   4.479  16.316  0.00  0.00    +0.000 NA
ATOM      8  C   UNL     1       7.186   4.905  17.606  0.00  0.00    +0.000 A 
ATOM      9  N   UNL     1       8.027   4.801  18.613  0.00  0.00    +0.000 NA
ATOM     10  C   UNL     1       7.344   5.344  19.657  0.00  0.00    +0.000 A 
ATOM     11  N   UNL     1       6.120   5.800  19.386  0.00  0.00    +0.000 NA
ATOM     12  N   UNL     1       6.011   5.519  18.057  0.00  0.00    +0.000 N 
ENDBRANCH   1   3
BRANCH   1  19
ATOM     13  C   UNL     1       2.224   6.103  19.722  0.00  0.00    +0.000 A 
ATOM     14  C   UNL     1       1.363   5.297  20.476  0.00  0.00    +0.000 A 
ATOM     15  C   UNL     1       1.195   3.949  20.164  0.00  0.00    +0.000 A 
ATOM     16  C   UNL     1       1.865   3.388  19.077  0.00  0.00    +0.000 A 
ATOM     17  C   UNL     1       1.686   1.936  18.743  0.00  0.00    +0.000 C 
ATOM     18  C   UNL     1       2.708   4.198  18.301  0.00  0.00    +0.000 A 
ATOM     19  C   UNL     1       2.926   5.547  18.627  0.00  0.00    +0.000 A 
BRANCH  13  21
ATOM     20  C   UNL     1       1.461   8.018  20.901  0.00  0.00    +0.000 C 
ATOM     21  O   UNL     1       2.376   7.446  19.973  0.00  0.00    +0.000 OA
ENDBRANCH  13  21
ENDBRANCH   1  19
TORSDOF 3
ENDMDL
MODEL 7
REMARK VINA RESULT:      -7.8      2.244      5.837
REMARK  Name = 
REMARK  6 active torsions:
REMARK  status: ('A' for Active; 'I' for Inactive)
REMARK    1  A    between atoms: C_1  and  O_2
REMARK    2  A    between atoms: O_2  and  C_3
REMARK    3  A    between atoms: C_6  and  C_7
REMARK    4  A    between atoms: C_9  and  N_10
REMARK    5  A    between atoms: N_10  and  C_11
REMARK    6  A    between atoms: C_13  and  C_14
REMARK                            x       y       z     vdW  Elec       q    Type
REMARK                         _______ _______ _______ _____ _____    ______ ____
ROOT
ATOM      1  N   UNL     1       4.769   3.470  18.100  0.00  0.00    +0.000 N 
ATOM      2  H   UNL     1       5.402   3.070  18.804  0.00  0.00    +0.000 HD
ENDROOT
BRANCH   1   3
ATOM      3  C   UNL     1       3.815   4.267  18.746  0.00  0.00    +0.000 A 
ATOM      4  C   UNL     1       3.469   5.502  18.342  0.00  0.00    +0.000 A 
ATOM      5  C   UNL     1       2.552   6.267  19.235  0.00  0.00    +0.000 A 
ATOM      6  C   UNL     1       2.306   7.712  18.874  0.00  0.00    +0.000 C 
ATOM      7  N   UNL     1       1.989   5.804  20.312  0.00  0.00    +0.000 NA
ATOM      8  C   UNL     1       2.297   4.518  20.652  0.00  0.00    +0.000 A 
ATOM      9  N   UNL     1       1.884   3.805  21.679  0.00  0.00    +0.000 NA
ATOM     10  C   UNL     1       2.553   2.629  21.540  0.00  0.00    +0.000 A 
ATOM     11  N   UNL     1       3.364   2.533  20.485  0.00  0.00    +0.000 NA
ATOM     12  N   UNL     1       3.203   3.755  19.905  0.00  0.00    +0.000 N 
ENDBRANCH   1   3
BRANCH   1  19
ATOM     13  C   UNL     1       6.832   4.607  17.218  0.00  0.00    +0.000 A 
ATOM     14  C   UNL     1       7.583   4.994  16.103  0.00  0.00    +0.000 A 
ATOM     15  C   UNL     1       7.103   4.782  14.812  0.00  0.00    +0.000 A 
ATOM     16  C   UNL     1       5.873   4.155  14.612  0.00  0.00    +0.000 A 
ATOM     17  C   UNL     1       5.355   3.929  13.222  0.00  0.00    +0.000 C 
ATOM     18  C   UNL     1       5.128   3.739  15.725  0.00  0.00    +0.000 A 
ATOM     19  C   UNL     1       5.574   3.986  17.035  0.00  0.00    +0.000 A 
BRANCH  13  21
ATOM     20  C   UNL     1       7.712   6.070  18.869  0.00  0.00    +0.000 C 
ATOM     21  O   UNL     1       7.296   4.758  18.503  0.00  0.00    +0.000 OA
ENDBRANCH  13  21
ENDBRANCH   1  19
TORSDOF 3
ENDMDL
MODEL 8
REMARK VINA RESULT:      -7.7      1.999      3.025
REMARK  Name = 
REMARK  6 active torsions:
REMARK  status: ('A' for Active; 'I' for Inactive)
REMARK    1  A    between atoms: C_1  and  O_2
REMARK    2  A    between atoms: O_2  and  C_3
REMARK    3  A    between atoms: C_6  and  C_7
REMARK    4  A    between atoms: C_9  and  N_10
REMARK    5  A    between atoms: N_10  and  C_11
REMARK    6  A    between atoms: C_13  and  C_14
REMARK                            x       y       z     vdW  Elec       q    Type
REMARK                         _______ _______ _______ _____ _____    ______ ____
ROOT
ATOM      1  N   UNL     1       3.632   5.738  17.554  0.00  0.00    +0.000 N 
ATOM      2  H   UNL     1       3.491   6.756  17.558  0.00  0.00    +0.000 HD
ENDROOT
BRANCH   1   3
ATOM      3  C   UNL     1       5.006   5.468  17.581  0.00  0.00    +0.000 A 
ATOM      4  C   UNL     1       5.766   5.551  18.687  0.00  0.00    +0.000 A 
ATOM      5  C   UNL     1       7.237   5.380  18.504  0.00  0.00    +0.000 A 
ATOM      6  C   UNL     1       8.104   5.649  19.709  0.00  0.00    +0.000 C 
ATOM      7  N   UNL     1       7.825   5.064  17.388  0.00  0.00    +0.000 NA
ATOM      8  C   UNL     1       7.017   4.907  16.299  0.00  0.00    +0.000 A 
ATOM      9  N   UNL     1       7.337   4.599  15.060  0.00  0.00    +0.000 NA
ATOM     10  C   UNL     1       6.146   4.636  14.404  0.00  0.00    +0.000 A 
ATOM     11  N   UNL     1       5.076   4.940  15.142  0.00  0.00    +0.000 NA
ATOM     12  N   UNL     1       5.635   5.117  16.372  0.00  0.00    +0.000 N 
ENDBRANCH   1   3
BRANCH   1  19
ATOM     13  C   UNL     1       2.245   5.869  19.648  0.00  0.00    +0.000 A 
ATOM     14  C   UNL     1       1.305   5.256  20.484  0.00  0.00    +0.000 A 
ATOM     15  C   UNL     1       0.856   3.962  20.223  0.00  0.00    +0.000 A 
ATOM     16  C   UNL     1       1.320   3.267  19.106  0.00  0.00    +0.000 A 
ATOM     17  C   UNL     1       0.839   1.874  18.826  0.00  0.00    +0.000 C 
ATOM     18  C   UNL     1       2.241   3.887  18.249  0.00  0.00    +0.000 A 
ATOM     19  C   UNL     1       2.741   5.172  18.520  0.00  0.00    +0.000 A 
BRANCH  13  21
ATOM     20  C   UNL     1       1.703   8.069  20.357  0.00  0.00    +0.000 C 
ATOM     21  O   UNL     1       2.673   7.159  19.849  0.00  0.00    +0.000 OA
ENDBRANCH  13  21
ENDBRANCH   1  19
TORSDOF 3
ENDMDL
MODEL 9
REMARK VINA RESULT:      -7.6      2.512      5.991
REMARK  Name = 
REMARK  6 active torsions:
REMARK  status: ('A' for Active; 'I' for Inactive)
REMARK    1  A    between atoms: C_1  and  O_2
REMARK    2  A    between atoms: O_2  and  C_3
REMARK    3  A    between atoms: C_6  and  C_7
REMARK    4  A    between atoms: C_9  and  N_10
REMARK    5  A    between atoms: N_10  and  C_11
REMARK    6  A    between atoms: C_13  and  C_14
REMARK                            x       y       z     vdW  Elec       q    Type
REMARK                         _______ _______ _______ _____ _____    ______ ____
ROOT
ATOM      1  N   UNL     1       5.287   3.622  17.042  0.00  0.00    +0.000 N 
ATOM      2  H   UNL     1       6.010   3.619  17.772  0.00  0.00    +0.000 HD
ENDROOT
BRANCH   1   3
ATOM      3  C   UNL     1       4.136   4.243  17.542  0.00  0.00    +0.000 A 
ATOM      4  C   UNL     1       3.902   5.565  17.465  0.00  0.00    +0.000 A 
ATOM      5  C   UNL     1       2.701   6.077  18.187  0.00  0.00    +0.000 A 
ATOM      6  C   UNL     1       2.538   7.576  18.250  0.00  0.00    +0.000 C 
ATOM      7  N   UNL     1       1.817   5.341  18.794  0.00  0.00    +0.000 NA
ATOM      8  C   UNL     1       2.041   3.994  18.786  0.00  0.00    +0.000 A 
ATOM      9  N   UNL     1       1.325   3.027  19.321  0.00  0.00    +0.000 NA
ATOM     10  C   UNL     1       2.048   1.907  19.048  0.00  0.00    +0.000 A 
ATOM     11  N   UNL     1       3.179   2.089  18.363  0.00  0.00    +0.000 NA
ATOM     12  N   UNL     1       3.180   3.440  18.190  0.00  0.00    +0.000 N 
ENDBRANCH   1   3
BRANCH   1  19
ATOM     13  C   UNL     1       7.047   4.884  15.764  0.00  0.00    +0.000 A 
ATOM     14  C   UNL     1       7.626   5.178  14.524  0.00  0.00    +0.000 A 
ATOM     15  C   UNL     1       7.081   4.671  13.346  0.00  0.00    +0.000 A 
ATOM     16  C   UNL     1       5.963   3.838  13.387  0.00  0.00    +0.000 A 
ATOM     17  C   UNL     1       5.375   3.294  12.118  0.00  0.00    +0.000 C 
ATOM     18  C   UNL     1       5.395   3.518  14.629  0.00  0.00    +0.000 A 
ATOM     19  C   UNL     1       5.901   4.057  15.824  0.00  0.00    +0.000 A 
BRANCH  13  21
ATOM     20  C   UNL     1       7.356   6.698  17.265  0.00  0.00    +0.000 C 
ATOM     21  O   UNL     1       7.586   5.329  16.947  0.00  0.00    +0.000 OA
ENDBRANCH  13  21
ENDBRANCH   1  19
TORSDOF 3
ENDMDL
