MODEL 1
REMARK VINA RESULT:      -6.6      0.000      0.000
REMARK  Name = 
REMARK  13 active torsions:
REMARK  status: ('A' for Active; 'I' for Inactive)
REMARK    1  A    between atoms: C_1  and  C_2
REMARK    2  A    between atoms: C_2  and  C_3
REMARK    3  A    between atoms: C_6  and  C_7
REMARK    4  A    between atoms: C_7  and  C_8
REMARK    5  A    between atoms: C_10  and  C_11
REMARK    6  A    between atoms: C_13  and  C_14
REMARK    7  A    between atoms: C_14  and  O_15
REMARK    8  A    between atoms: C_16  and  O_17
REMARK    9  A    between atoms: C_18  and  O_19
REMARK   10  A    between atoms: C_20  and  O_21
REMARK   11  A    between atoms: C_22  and  O_23
REMARK   12  A    between atoms: O_23  and  C_24
REMARK   13  A    between atoms: C_25  and  C_26
REMARK                            x       y       z     vdW  Elec       q    Type
REMARK                         _______ _______ _______ _____ _____    ______ ____
ROOT
ATOM      1  C   UNL     1       1.368   9.163  19.032  0.00  0.00    +0.000 A 
ATOM      2  S   UNL     1       2.506   8.511  17.937  0.00  0.00    +0.000 S 
ATOM      3  C   UNL     1       2.783   7.150  18.918  0.00  0.00    +0.000 A 
ATOM      4  C   UNL     1       1.995   7.159  20.059  0.00  0.00    +0.000 A 
ATOM      5  C   UNL     1       1.157   8.342  20.143  0.00  0.00    +0.000 A 
ATOM      6  C   UNL     1       0.206   8.765  21.223  0.00  0.00    +0.000 C 
ENDROOT
BRANCH   3   7
ATOM      7  C   UNL     1       3.813   6.117  18.529  0.00  0.00    +0.000 C 
ATOM      8  O   UNL     1       5.015   6.827  18.181  0.00  0.00    +0.000 OA
ATOM      9  C   UNL     1       6.125   5.937  17.999  0.00  0.00    +0.000 C 
ATOM     10  C   UNL     1       5.860   4.981  16.830  0.00  0.00    +0.000 C 
ATOM     11  C   UNL     1       4.539   4.224  17.064  0.00  0.00    +0.000 C 
ATOM     12  C   UNL     1       3.370   5.177  17.385  0.00  0.00    +0.000 C 
BRANCH  10  13
ATOM     13  O   UNL     1       6.955   4.066  16.712  0.00  0.00    +0.000 OA
ATOM     14  H   UNL     1       6.605   3.156  16.738  0.00  0.00    +0.000 HD
ENDBRANCH  10  13
BRANCH  11  15
ATOM     15  O   UNL     1       4.256   3.391  15.934  0.00  0.00    +0.000 OA
ATOM     16  H   UNL     1       4.475   3.890  15.126  0.00  0.00    +0.000 HD
ENDBRANCH  11  15
BRANCH  12  17
ATOM     17  O   UNL     1       2.208   4.414  17.725  0.00  0.00    +0.000 OA
ATOM     18  H   UNL     1       2.032   4.514  18.683  0.00  0.00    +0.000 HD
ENDBRANCH  12  17
BRANCH   9  19
ATOM     19  C   UNL     1       7.395   6.770  17.785  0.00  0.00    +0.000 C 
BRANCH  19  20
ATOM     20  O   UNL     1       7.747   6.819  16.411  0.00  0.00    +0.000 OA
ATOM     21  H   UNL     1       8.475   6.196  16.284  0.00  0.00    +0.000 HD
ENDBRANCH  19  20
ENDBRANCH   9  19
ENDBRANCH   3   7
BRANCH   4  22
ATOM     22  O   UNL     1       2.174   6.097  20.891  0.00  0.00    +0.000 OA
ATOM     23  C   UNL     1       1.289   5.003  20.787  0.00  0.00    +0.000 C 
ENDBRANCH   4  22
BRANCH   1  24
ATOM     24  C   UNL     1       0.794  10.530  18.740  0.00  0.00    +0.000 C 
BRANCH  24  28
ATOM     25  C   UNL     1      -3.437  10.722  17.795  0.00  0.00    +0.000 A 
ATOM     26  C   UNL     1      -2.888  11.560  18.771  0.00  0.00    +0.000 A 
ATOM     27  C   UNL     1      -1.528  11.473  19.095  0.00  0.00    +0.000 A 
ATOM     28  C   UNL     1      -0.690  10.564  18.440  0.00  0.00    +0.000 A 
ATOM     29  C   UNL     1      -1.246   9.731  17.456  0.00  0.00    +0.000 A 
ATOM     30  C   UNL     1      -2.606   9.812  17.136  0.00  0.00    +0.000 A 
BRANCH  25  32
ATOM     31  C   UNL     1      -5.364  12.267  17.339  0.00  0.00    +0.000 C 
ATOM     32  C   UNL     1      -4.895  10.822  17.441  0.00  0.00    +0.000 C 
ENDBRANCH  25  32
ENDBRANCH  24  28
ENDBRANCH   1  24
TORSDOF 10
ENDMDL
MODEL 2
REMARK VINA RESULT:      -6.6      0.942      1.322
REMARK  Name = 
REMARK  13 active torsions:
REMARK  status: ('A' for Active; 'I' for Inactive)
REMARK    1  A    between atoms: C_1  and  C_2
REMARK    2  A    between atoms: C_2  and  C_3
REMARK    3  A    between atoms: C_6  and  C_7
REMARK    4  A    between atoms: C_7  and  C_8
REMARK    5  A    between atoms: C_10  and  C_11
REMARK    6  A    between atoms: C_13  and  C_14
REMARK    7  A    between atoms: C_14  and  O_15
REMARK    8  A    between atoms: C_16  and  O_17
REMARK    9  A    between atoms: C_18  and  O_19
REMARK   10  A    between atoms: C_20  and  O_21
REMARK   11  A    between atoms: C_22  and  O_23
REMARK   12  A    between atoms: O_23  and  C_24
REMARK   13  A    between atoms: C_25  and  C_26
REMARK                            x       y       z     vdW  Elec       q    Type
REMARK                         _______ _______ _______ _____ _____    ______ ____
ROOT
ATOM      1  C   UNL     1       1.414   8.851  19.605  0.00  0.00    +0.000 A 
ATOM      2  S   UNL     1       2.626   8.301  18.534  0.00  0.00    +0.000 S 
ATOM      3  C   UNL     1       2.741   6.796  19.317  0.00  0.00    +0.000 A 
ATOM      4  C   UNL     1       1.842   6.684  20.368  0.00  0.00    +0.000 A 
ATOM      5  C   UNL     1       1.054   7.890  20.553  0.00  0.00    +0.000 A 
ATOM      6  C   UNL     1       0.020   8.205  21.591  0.00  0.00    +0.000 C 
ENDROOT
BRANCH   3   7
ATOM      7  C   UNL     1       3.756   5.771  18.873  0.00  0.00    +0.000 C 
ATOM      8  O   UNL     1       5.052   6.389  18.970  0.00  0.00    +0.000 OA
ATOM      9  C   UNL     1       6.110   5.440  18.775  0.00  0.00    +0.000 C 
ATOM     10  C   UNL     1       6.044   4.846  17.363  0.00  0.00    +0.000 C 
ATOM     11  C   UNL     1       4.655   4.226  17.123  0.00  0.00    +0.000 C 
ATOM     12  C   UNL     1       3.513   5.208  17.454  0.00  0.00    +0.000 C 
BRANCH  10  13
ATOM     13  O   UNL     1       7.072   3.859  17.219  0.00  0.00    +0.000 OA
ATOM     14  H   UNL     1       6.654   2.979  17.173  0.00  0.00    +0.000 HD
ENDBRANCH  10  13
BRANCH  11  15
ATOM     15  O   UNL     1       4.572   3.742  15.777  0.00  0.00    +0.000 OA
ATOM     16  H   UNL     1       4.700   4.497  15.174  0.00  0.00    +0.000 HD
ENDBRANCH  11  15
BRANCH  12  17
ATOM     17  O   UNL     1       2.254   4.536  17.343  0.00  0.00    +0.000 OA
ATOM     18  H   UNL     1       2.214   3.825  18.015  0.00  0.00    +0.000 HD
ENDBRANCH  12  17
BRANCH   9  19
ATOM     19  C   UNL     1       7.451   6.134  19.046  0.00  0.00    +0.000 C 
BRANCH  19  20
ATOM     20  O   UNL     1       8.297   5.319  19.842  0.00  0.00    +0.000 OA
ATOM     21  H   UNL     1       7.817   5.128  20.659  0.00  0.00    +0.000 HD
ENDBRANCH  19  20
ENDBRANCH   9  19
ENDBRANCH   3   7
BRANCH   4  22
ATOM     22  O   UNL     1       1.888   5.501  21.040  0.00  0.00    +0.000 OA
ATOM     23  C   UNL     1       1.089   4.433  20.580  0.00  0.00    +0.000 C 
ENDBRANCH   4  22
BRANCH   1  24
ATOM     24  C   UNL     1       0.936  10.279  19.473  0.00  0.00    +0.000 C 
BRANCH  24  28
ATOM     25  C   UNL     1      -2.874  10.704  17.440  0.00  0.00    +0.000 A 
ATOM     26  C   UNL     1      -1.920   9.790  16.979  0.00  0.00    +0.000 A 
ATOM     27  C   UNL     1      -0.679   9.679  17.619  0.00  0.00    +0.000 A 
ATOM     28  C   UNL     1      -0.376  10.461  18.739  0.00  0.00    +0.000 A 
ATOM     29  C   UNL     1      -1.341  11.370  19.201  0.00  0.00    +0.000 A 
ATOM     30  C   UNL     1      -2.579  11.488  18.557  0.00  0.00    +0.000 A 
BRANCH  25  32
ATOM     31  C   UNL     1      -5.097  11.873  17.403  0.00  0.00    +0.000 C 
ATOM     32  C   UNL     1      -4.210  10.817  16.757  0.00  0.00    +0.000 C 
ENDBRANCH  25  32
ENDBRANCH  24  28
ENDBRANCH   1  24
TORSDOF 10
ENDMDL
MODEL 3
REMARK VINA RESULT:      -6.5      0.989      2.504
REMARK  Name = 
REMARK  13 active torsions:
REMARK  status: ('A' for Active; 'I' for Inactive)
REMARK    1  A    between atoms: C_1  and  C_2
REMARK    2  A    between atoms: C_2  and  C_3
REMARK    3  A    between atoms: C_6  and  C_7
REMARK    4  A    between atoms: C_7  and  C_8
REMARK    5  A    between atoms: C_10  and  C_11
REMARK    6  A    between atoms: C_13  and  C_14
REMARK    7  A    between atoms: C_14  and  O_15
REMARK    8  A    between atoms: C_16  and  O_17
REMARK    9  A    between atoms: C_18  and  O_19
REMARK   10  A    between atoms: C_20  and  O_21
REMARK   11  A    between atoms: C_22  and  O_23
REMARK   12  A    between atoms: O_23  and  C_24
REMARK   13  A    between atoms: C_25  and  C_26
REMARK                            x       y       z     vdW  Elec       q    Type
REMARK                         _______ _______ _______ _____ _____    ______ ____
ROOT
ATOM      1  C   UNL     1       1.474   9.157  19.204  0.00  0.00    +0.000 A 
ATOM      2  S   UNL     1       2.185   8.674  17.728  0.00  0.00    +0.000 S 
ATOM      3  C   UNL     1       2.698   7.187  18.375  0.00  0.00    +0.000 A 
ATOM      4  C   UNL     1       2.308   7.030  19.696  0.00  0.00    +0.000 A 
ATOM      5  C   UNL     1       1.587   8.185  20.201  0.00  0.00    +0.000 A 
ATOM      6  C   UNL     1       1.040   8.445  21.573  0.00  0.00    +0.000 C 
ENDROOT
BRANCH   3   7
ATOM      7  C   UNL     1       3.511   6.225  17.544  0.00  0.00    +0.000 C 
ATOM      8  O   UNL     1       3.058   4.898  17.867  0.00  0.00    +0.000 OA
ATOM      9  C   UNL     1       3.613   3.915  16.982  0.00  0.00    +0.000 C 
ATOM     10  C   UNL     1       5.140   3.872  17.119  0.00  0.00    +0.000 C 
ATOM     11  C   UNL     1       5.726   5.274  16.872  0.00  0.00    +0.000 C 
ATOM     12  C   UNL     1       5.040   6.353  17.735  0.00  0.00    +0.000 C 
BRANCH  10  13
ATOM     13  O   UNL     1       5.670   2.927  16.182  0.00  0.00    +0.000 OA
ATOM     14  H   UNL     1       5.427   3.213  15.282  0.00  0.00    +0.000 HD
ENDBRANCH  10  13
BRANCH  11  15
ATOM     15  O   UNL     1       7.143   5.245  17.078  0.00  0.00    +0.000 OA
ATOM     16  H   UNL     1       7.418   4.315  17.172  0.00  0.00    +0.000 HD
ENDBRANCH  11  15
BRANCH  12  17
ATOM     17  O   UNL     1       5.529   7.646  17.365  0.00  0.00    +0.000 OA
ATOM     18  H   UNL     1       4.785   8.178  17.016  0.00  0.00    +0.000 HD
ENDBRANCH  12  17
BRANCH   9  19
ATOM     19  C   UNL     1       2.969   2.556  17.287  0.00  0.00    +0.000 C 
BRANCH  19  20
ATOM     20  O   UNL     1       3.868   1.711  17.988  0.00  0.00    +0.000 OA
ATOM     21  H   UNL     1       4.495   1.366  17.337  0.00  0.00    +0.000 HD
ENDBRANCH  19  20
ENDBRANCH   9  19
ENDBRANCH   3   7
BRANCH   4  22
ATOM     22  O   UNL     1       2.693   5.860  20.275  0.00  0.00    +0.000 OA
ATOM     23  C   UNL     1       1.696   4.982  20.751  0.00  0.00    +0.000 C 
ENDBRANCH   4  22
BRANCH   1  24
ATOM     24  C   UNL     1       0.895  10.550  19.299  0.00  0.00    +0.000 C 
BRANCH  24  28
ATOM     25  C   UNL     1      -3.185  10.903  17.866  0.00  0.00    +0.000 A 
ATOM     26  C   UNL     1      -2.308   9.976  17.292  0.00  0.00    +0.000 A 
ATOM     27  C   UNL     1      -0.982   9.888  17.736  0.00  0.00    +0.000 A 
ATOM     28  C   UNL     1      -0.515  10.706  18.771  0.00  0.00    +0.000 A 
ATOM     29  C   UNL     1      -1.404  11.628  19.347  0.00  0.00    +0.000 A 
ATOM     30  C   UNL     1      -2.727  11.722  18.899  0.00  0.00    +0.000 A 
BRANCH  25  32
ATOM     31  C   UNL     1      -5.352  12.164  18.023  0.00  0.00    +0.000 C 
ATOM     32  C   UNL     1      -4.611  10.991  17.394  0.00  0.00    +0.000 C 
ENDBRANCH  25  32
ENDBRANCH  24  28
ENDBRANCH   1  24
TORSDOF 10
ENDMDL
MODEL 4
REMARK VINA RESULT:      -6.3      4.893      9.229
REMARK  Name = 
REMARK  13 active torsions:
REMARK  status: ('A' for Active; 'I' for Inactive)
REMARK    1  A    between atoms: C_1  and  C_2
REMARK    2  A    between atoms: C_2  and  C_3
REMARK    3  A    between atoms: C_6  and  C_7
REMARK    4  A    between atoms: C_7  and  C_8
REMARK    5  A    between atoms: C_10  and  C_11
REMARK    6  A    between atoms: C_13  and  C_14
REMARK    7  A    between atoms: C_14  and  O_15
REMARK    8  A    between atoms: C_16  and  O_17
REMARK    9  A    between atoms: C_18  and  O_19
REMARK   10  A    between atoms: C_20  and  O_21
REMARK   11  A    between atoms: C_22  and  O_23
REMARK   12  A    between atoms: O_23  and  C_24
REMARK   13  A    between atoms: C_25  and  C_26
REMARK                            x       y       z     vdW  Elec       q    Type
REMARK                         _______ _______ _______ _____ _____    ______ ____
ROOT
ATOM      1  C   UNL     1       0.352  10.573  20.280  0.00  0.00    +0.000 A 
ATOM      2  S   UNL     1      -1.138  10.091  19.598  0.00  0.00    +0.000 S 
ATOM      3  C   UNL     1      -1.504  11.673  19.093  0.00  0.00    +0.000 A 
ATOM      4  C   UNL     1      -0.491  12.568  19.403  0.00  0.00    +0.000 A 
ATOM      5  C   UNL     1       0.611  11.934  20.107  0.00  0.00    +0.000 A 
ATOM      6  C   UNL     1       1.865  12.541  20.662  0.00  0.00    +0.000 C 
ENDROOT
BRANCH   3   7
ATOM      7  C   UNL     1      -2.819  11.982  18.421  0.00  0.00    +0.000 C 
ATOM      8  O   UNL     1      -3.858  11.718  19.381  0.00  0.00    +0.000 OA
ATOM      9  C   UNL     1      -5.137  12.179  18.922  0.00  0.00    +0.000 C 
ATOM     10  C   UNL     1      -5.552  11.428  17.650  0.00  0.00    +0.000 C 
ATOM     11  C   UNL     1      -4.460  11.579  16.576  0.00  0.00    +0.000 C 
ATOM     12  C   UNL     1      -3.062  11.203  17.108  0.00  0.00    +0.000 C 
BRANCH  10  13
ATOM     13  O   UNL     1      -6.801  11.952  17.182  0.00  0.00    +0.000 OA
ATOM     14  H   UNL     1      -7.509  11.325  17.419  0.00  0.00    +0.000 HD
ENDBRANCH  10  13
BRANCH  11  15
ATOM     15  O   UNL     1      -4.816  10.813  15.419  0.00  0.00    +0.000 OA
ATOM     16  H   UNL     1      -4.133  10.132  15.283  0.00  0.00    +0.000 HD
ENDBRANCH  11  15
BRANCH  12  17
ATOM     17  O   UNL     1      -2.076  11.491  16.112  0.00  0.00    +0.000 OA
ATOM     18  H   UNL     1      -1.186  11.385  16.507  0.00  0.00    +0.000 HD
ENDBRANCH  12  17
BRANCH   9  19
ATOM     19  C   UNL     1      -6.159  12.004  20.053  0.00  0.00    +0.000 C 
BRANCH  19  20
ATOM     20  O   UNL     1      -6.986  10.874  19.823  0.00  0.00    +0.000 OA
ATOM     21  H   UNL     1      -7.744  10.955  20.418  0.00  0.00    +0.000 HD
ENDBRANCH  19  20
ENDBRANCH   9  19
ENDBRANCH   3   7
BRANCH   4  22
ATOM     22  O   UNL     1      -0.725  13.855  19.028  0.00  0.00    +0.000 OA
ATOM     23  C   UNL     1      -0.996  14.811  20.030  0.00  0.00    +0.000 C 
ENDBRANCH   4  22
BRANCH   1  24
ATOM     24  C   UNL     1       1.161   9.542  21.034  0.00  0.00    +0.000 C 
BRANCH  24  28
ATOM     25  C   UNL     1       2.461   6.165  18.641  0.00  0.00    +0.000 A 
ATOM     26  C   UNL     1       2.090   5.987  19.978  0.00  0.00    +0.000 A 
ATOM     27  C   UNL     1       1.701   7.085  20.756  0.00  0.00    +0.000 A 
ATOM     28  C   UNL     1       1.658   8.373  20.210  0.00  0.00    +0.000 A 
ATOM     29  C   UNL     1       2.025   8.542  18.866  0.00  0.00    +0.000 A 
ATOM     30  C   UNL     1       2.421   7.447  18.089  0.00  0.00    +0.000 A 
BRANCH  25  32
ATOM     31  C   UNL     1       1.759   3.949  17.687  0.00  0.00    +0.000 C 
ATOM     32  C   UNL     1       2.871   4.984  17.803  0.00  0.00    +0.000 C 
ENDBRANCH  25  32
ENDBRANCH  24  28
ENDBRANCH   1  24
TORSDOF 10
ENDMDL
MODEL 5
REMARK VINA RESULT:      -6.2      2.379      3.526
REMARK  Name = 
REMARK  13 active torsions:
REMARK  status: ('A' for Active; 'I' for Inactive)
REMARK    1  A    between atoms: C_1  and  C_2
REMARK    2  A    between atoms: C_2  and  C_3
REMARK    3  A    between atoms: C_6  and  C_7
REMARK    4  A    between atoms: C_7  and  C_8
REMARK    5  A    between atoms: C_10  and  C_11
REMARK    6  A    between atoms: C_13  and  C_14
REMARK    7  A    between atoms: C_14  and  O_15
REMARK    8  A    between atoms: C_16  and  O_17
REMARK    9  A    between atoms: C_18  and  O_19
REMARK   10  A    between atoms: C_20  and  O_21
REMARK   11  A    between atoms: C_22  and  O_23
REMARK   12  A    between atoms: O_23  and  C_24
REMARK   13  A    between atoms: C_25  and  C_26
REMARK                            x       y       z     vdW  Elec       q    Type
REMARK                         _______ _______ _______ _____ _____    ______ ____
ROOT
ATOM      1  C   UNL     1       1.560   8.556  18.755  0.00  0.00    +0.000 A 
ATOM      2  S   UNL     1       2.811   7.998  17.734  0.00  0.00    +0.000 S 
ATOM      3  C   UNL     1       3.230   6.746  18.806  0.00  0.00    +0.000 A 
ATOM      4  C   UNL     1       2.408   6.718  19.924  0.00  0.00    +0.000 A 
ATOM      5  C   UNL     1       1.420   7.783  19.910  0.00  0.00    +0.000 A 
ATOM      6  C   UNL     1       0.385   8.139  20.936  0.00  0.00    +0.000 C 
ENDROOT
BRANCH   3   7
ATOM      7  C   UNL     1       4.398   5.838  18.511  0.00  0.00    +0.000 C 
ATOM      8  O   UNL     1       5.551   6.678  18.323  0.00  0.00    +0.000 OA
ATOM      9  C   UNL     1       6.762   5.911  18.246  0.00  0.00    +0.000 C 
ATOM     10  C   UNL     1       6.730   4.979  17.029  0.00  0.00    +0.000 C 
ATOM     11  C   UNL     1       5.478   4.085  17.090  0.00  0.00    +0.000 C 
ATOM     12  C   UNL     1       4.187   4.902  17.300  0.00  0.00    +0.000 C 
BRANCH  10  13
ATOM     13  O   UNL     1       7.921   4.185  17.014  0.00  0.00    +0.000 OA
ATOM     14  H   UNL     1       7.669   3.245  17.076  0.00  0.00    +0.000 HD
ENDBRANCH  10  13
BRANCH  11  15
ATOM     15  O   UNL     1       5.411   3.272  15.913  0.00  0.00    +0.000 OA
ATOM     16  H   UNL     1       4.554   2.810  15.910  0.00  0.00    +0.000 HD
ENDBRANCH  11  15
BRANCH  12  17
ATOM     17  O   UNL     1       3.080   4.013  17.483  0.00  0.00    +0.000 OA
ATOM     18  H   UNL     1       2.251   4.493  17.280  0.00  0.00    +0.000 HD
ENDBRANCH  12  17
BRANCH   9  19
ATOM     19  C   UNL     1       7.954   6.876  18.202  0.00  0.00    +0.000 C 
BRANCH  19  20
ATOM     20  O   UNL     1       7.819   7.805  17.138  0.00  0.00    +0.000 OA
ATOM     21  H   UNL     1       8.077   7.346  16.328  0.00  0.00    +0.000 HD
ENDBRANCH  19  20
ENDBRANCH   9  19
ENDBRANCH   3   7
BRANCH   4  22
ATOM     22  O   UNL     1       2.696   5.740  20.825  0.00  0.00    +0.000 OA
ATOM     23  C   UNL     1       1.868   4.599  20.870  0.00  0.00    +0.000 C 
ENDBRANCH   4  22
BRANCH   1  24
ATOM     24  C   UNL     1       0.823   9.816  18.362  0.00  0.00    +0.000 C 
BRANCH  24  28
ATOM     25  C   UNL     1       2.521  13.594  19.654  0.00  0.00    +0.000 A 
ATOM     26  C   UNL     1       2.827  13.071  18.392  0.00  0.00    +0.000 A 
ATOM     27  C   UNL     1       2.302  11.836  17.992  0.00  0.00    +0.000 A 
ATOM     28  C   UNL     1       1.449  11.111  18.833  0.00  0.00    +0.000 A 
ATOM     29  C   UNL     1       1.141  11.646  20.094  0.00  0.00    +0.000 A 
ATOM     30  C   UNL     1       1.671  12.877  20.498  0.00  0.00    +0.000 A 
BRANCH  25  32
ATOM     31  C   UNL     1       3.193  15.899  18.915  0.00  0.00    +0.000 C 
ATOM     32  C   UNL     1       3.079  14.924  20.080  0.00  0.00    +0.000 C 
ENDBRANCH  25  32
ENDBRANCH  24  28
ENDBRANCH   1  24
TORSDOF 10
ENDMDL
MODEL 6
REMARK VINA RESULT:      -6.2      2.849      4.190
REMARK  Name = 
REMARK  13 active torsions:
REMARK  status: ('A' for Active; 'I' for Inactive)
REMARK    1  A    between atoms: C_1  and  C_2
REMARK    2  A    between atoms: C_2  and  C_3
REMARK    3  A    between atoms: C_6  and  C_7
REMARK    4  A    between atoms: C_7  and  C_8
REMARK    5  A    between atoms: C_10  and  C_11
REMARK    6  A    between atoms: C_13  and  C_14
REMARK    7  A    between atoms: C_14  and  O_15
REMARK    8  A    between atoms: C_16  and  O_17
REMARK    9  A    between atoms: C_18  and  O_19
REMARK   10  A    between atoms: C_20  and  O_21
REMARK   11  A    between atoms: C_22  and  O_23
REMARK   12  A    between atoms: O_23  and  C_24
REMARK   13  A    between atoms: C_25  and  C_26
REMARK                            x       y       z     vdW  Elec       q    Type
REMARK                         _______ _______ _______ _____ _____    ______ ____
ROOT
ATOM      1  C   UNL     1       1.928   5.992  20.222  0.00  0.00    +0.000 A 
ATOM      2  S   UNL     1       3.126   6.845  19.352  0.00  0.00    +0.000 S 
ATOM      3  C   UNL     1       3.791   5.415  18.718  0.00  0.00    +0.000 A 
ATOM      4  C   UNL     1       3.095   4.288  19.129  0.00  0.00    +0.000 A 
ATOM      5  C   UNL     1       1.994   4.612  20.020  0.00  0.00    +0.000 A 
ATOM      6  C   UNL     1       1.034   3.699  20.723  0.00  0.00    +0.000 C 
ENDROOT
BRANCH   3   7
ATOM      7  C   UNL     1       5.021   5.458  17.844  0.00  0.00    +0.000 C 
ATOM      8  O   UNL     1       4.653   4.906  16.567  0.00  0.00    +0.000 OA
ATOM      9  C   UNL     1       5.686   5.092  15.589  0.00  0.00    +0.000 C 
ATOM     10  C   UNL     1       6.960   4.346  16.007  0.00  0.00    +0.000 C 
ATOM     11  C   UNL     1       7.397   4.806  17.410  0.00  0.00    +0.000 C 
ATOM     12  C   UNL     1       6.247   4.726  18.434  0.00  0.00    +0.000 C 
BRANCH  10  13
ATOM     13  O   UNL     1       7.990   4.600  15.045  0.00  0.00    +0.000 OA
ATOM     14  H   UNL     1       8.257   3.752  14.644  0.00  0.00    +0.000 HD
ENDBRANCH  10  13
BRANCH  11  15
ATOM     15  O   UNL     1       8.540   4.052  17.827  0.00  0.00    +0.000 OA
ATOM     16  H   UNL     1       8.278   3.116  17.899  0.00  0.00    +0.000 HD
ENDBRANCH  11  15
BRANCH  12  17
ATOM     17  O   UNL     1       6.673   5.291  19.678  0.00  0.00    +0.000 OA
ATOM     18  H   UNL     1       7.600   5.023  19.847  0.00  0.00    +0.000 HD
ENDBRANCH  12  17
BRANCH   9  19
ATOM     19  C   UNL     1       5.165   4.622  14.225  0.00  0.00    +0.000 C 
BRANCH  19  20
ATOM     20  O   UNL     1       5.890   3.493  13.763  0.00  0.00    +0.000 OA
ATOM     21  H   UNL     1       5.497   3.232  12.919  0.00  0.00    +0.000 HD
ENDBRANCH  19  20
ENDBRANCH   9  19
ENDBRANCH   3   7
BRANCH   4  22
ATOM     22  O   UNL     1       3.583   3.107  18.659  0.00  0.00    +0.000 OA
ATOM     23  C   UNL     1       4.020   2.140  19.589  0.00  0.00    +0.000 C 
ENDBRANCH   4  22
BRANCH   1  24
ATOM     24  C   UNL     1       1.015   6.774  21.138  0.00  0.00    +0.000 C 
BRANCH  24  28
ATOM     25  C   UNL     1       0.817  11.056  20.466  0.00  0.00    +0.000 A 
ATOM     26  C   UNL     1       0.991  10.176  19.392  0.00  0.00    +0.000 A 
ATOM     27  C   UNL     1       1.087   8.796  19.618  0.00  0.00    +0.000 A 
ATOM     28  C   UNL     1       0.991   8.271  20.911  0.00  0.00    +0.000 A 
ATOM     29  C   UNL     1       0.808   9.160  21.982  0.00  0.00    +0.000 A 
ATOM     30  C   UNL     1       0.721  10.540  21.759  0.00  0.00    +0.000 A 
BRANCH  25  32
ATOM     31  C   UNL     1       2.071  13.212  20.163  0.00  0.00    +0.000 C 
ATOM     32  C   UNL     1       0.707  12.537  20.222  0.00  0.00    +0.000 C 
ENDBRANCH  25  32
ENDBRANCH  24  28
ENDBRANCH   1  24
TORSDOF 10
ENDMDL
MODEL 7
REMARK VINA RESULT:      -6.1      2.554      3.909
REMARK  Name = 
REMARK  13 active torsions:
REMARK  status: ('A' for Active; 'I' for Inactive)
REMARK    1  A    between atoms: C_1  and  C_2
REMARK    2  A    between atoms: C_2  and  C_3
REMARK    3  A    between atoms: C_6  and  C_7
REMARK    4  A    between atoms: C_7  and  C_8
REMARK    5  A    between atoms: C_10  and  C_11
REMARK    6  A    between atoms: C_13  and  C_14
REMARK    7  A    between atoms: C_14  and  O_15
REMARK    8  A    between atoms: C_16  and  O_17
REMARK    9  A    between atoms: C_18  and  O_19
REMARK   10  A    between atoms: C_20  and  O_21
REMARK   11  A    between atoms: C_22  and  O_23
REMARK   12  A    between atoms: O_23  and  C_24
REMARK   13  A    between atoms: C_25  and  C_26
REMARK                            x       y       z     vdW  Elec       q    Type
REMARK                         _______ _______ _______ _____ _____    ______ ____
ROOT
ATOM      1  C   UNL     1       1.935   6.076  20.203  0.00  0.00    +0.000 A 
ATOM      2  S   UNL     1       3.153   6.906  19.339  0.00  0.00    +0.000 S 
ATOM      3  C   UNL     1       3.791   5.464  18.703  0.00  0.00    +0.000 A 
ATOM      4  C   UNL     1       3.070   4.350  19.109  0.00  0.00    +0.000 A 
ATOM      5  C   UNL     1       1.974   4.695  19.997  0.00  0.00    +0.000 A 
ATOM      6  C   UNL     1       0.993   3.800  20.695  0.00  0.00    +0.000 C 
ENDROOT
BRANCH   3   7
ATOM      7  C   UNL     1       5.023   5.485  17.833  0.00  0.00    +0.000 C 
ATOM      8  O   UNL     1       4.652   4.929  16.559  0.00  0.00    +0.000 OA
ATOM      9  C   UNL     1       5.690   5.094  15.583  0.00  0.00    +0.000 C 
ATOM     10  C   UNL     1       6.952   4.334  16.010  0.00  0.00    +0.000 C 
ATOM     11  C   UNL     1       7.391   4.798  17.411  0.00  0.00    +0.000 C 
ATOM     12  C   UNL     1       6.238   4.740  18.433  0.00  0.00    +0.000 C 
BRANCH  10  13
ATOM     13  O   UNL     1       7.989   4.567  15.049  0.00  0.00    +0.000 OA
ATOM     14  H   UNL     1       7.694   5.267  14.438  0.00  0.00    +0.000 HD
ENDBRANCH  10  13
BRANCH  11  15
ATOM     15  O   UNL     1       8.523   4.031  17.837  0.00  0.00    +0.000 OA
ATOM     16  H   UNL     1       9.244   4.649  18.058  0.00  0.00    +0.000 HD
ENDBRANCH  11  15
BRANCH  12  17
ATOM     17  O   UNL     1       6.667   5.308  19.674  0.00  0.00    +0.000 OA
ATOM     18  H   UNL     1       7.589   5.029  19.848  0.00  0.00    +0.000 HD
ENDBRANCH  12  17
BRANCH   9  19
ATOM     19  C   UNL     1       5.167   4.621  14.221  0.00  0.00    +0.000 C 
BRANCH  19  20
ATOM     20  O   UNL     1       5.877   3.478  13.769  0.00  0.00    +0.000 OA
ATOM     21  H   UNL     1       6.528   3.787  13.125  0.00  0.00    +0.000 HD
ENDBRANCH  19  20
ENDBRANCH   9  19
ENDBRANCH   3   7
BRANCH   4  22
ATOM     22  O   UNL     1       3.534   3.161  18.637  0.00  0.00    +0.000 OA
ATOM     23  C   UNL     1       2.685   2.379  17.827  0.00  0.00    +0.000 C 
ENDBRANCH   4  22
BRANCH   1  24
ATOM     24  C   UNL     1       1.036   6.873  21.120  0.00  0.00    +0.000 C 
BRANCH  24  28
ATOM     25  C   UNL     1       0.844  11.117  20.233  0.00  0.00    +0.000 A 
ATOM     26  C   UNL     1       0.679  10.656  21.544  0.00  0.00    +0.000 A 
ATOM     27  C   UNL     1       0.710   9.283  21.821  0.00  0.00    +0.000 A 
ATOM     28  C   UNL     1       0.925   8.349  20.801  0.00  0.00    +0.000 A 
ATOM     29  C   UNL     1       1.098   8.819  19.489  0.00  0.00    +0.000 A 
ATOM     30  C   UNL     1       1.060  10.191  19.210  0.00  0.00    +0.000 A 
BRANCH  25  32
ATOM     31  C   UNL     1      -0.595  13.107  19.704  0.00  0.00    +0.000 C 
ATOM     32  C   UNL     1       0.820  12.591  19.938  0.00  0.00    +0.000 C 
ENDBRANCH  25  32
ENDBRANCH  24  28
ENDBRANCH   1  24
TORSDOF 10
ENDMDL
MODEL 8
REMARK VINA RESULT:      -6.0      5.354      8.910
REMARK  Name = 
REMARK  13 active torsions:
REMARK  status: ('A' for Active; 'I' for Inactive)
REMARK    1  A    between atoms: C_1  and  C_2
REMARK    2  A    between atoms: C_2  and  C_3
REMARK    3  A    between atoms: C_6  and  C_7
REMARK    4  A    between atoms: C_7  and  C_8
REMARK    5  A    between atoms: C_10  and  C_11
REMARK    6  A    between atoms: C_13  and  C_14
REMARK    7  A    between atoms: C_14  and  O_15
REMARK    8  A    between atoms: C_16  and  O_17
REMARK    9  A    between atoms: C_18  and  O_19
REMARK   10  A    between atoms: C_20  and  O_21
REMARK   11  A    between atoms: C_22  and  O_23
REMARK   12  A    between atoms: O_23  and  C_24
REMARK   13  A    between atoms: C_25  and  C_26
REMARK                            x       y       z     vdW  Elec       q    Type
REMARK                         _______ _______ _______ _____ _____    ______ ____
ROOT
ATOM      1  C   UNL     1       1.217  10.651  19.006  0.00  0.00    +0.000 A 
ATOM      2  S   UNL     1       2.186  11.999  18.604  0.00  0.00    +0.000 S 
ATOM      3  C   UNL     1       1.695  12.859  19.986  0.00  0.00    +0.000 A 
ATOM      4  C   UNL     1       0.826  12.124  20.778  0.00  0.00    +0.000 A 
ATOM      5  C   UNL     1       0.532  10.819  20.211  0.00  0.00    +0.000 A 
ATOM      6  C   UNL     1      -0.387   9.745  20.713  0.00  0.00    +0.000 C 
ENDROOT
BRANCH   3   7
ATOM      7  C   UNL     1       2.174  14.271  20.226  0.00  0.00    +0.000 C 
ATOM      8  O   UNL     1       1.964  15.003  19.005  0.00  0.00    +0.000 OA
ATOM      9  C   UNL     1       2.186  16.409  19.183  0.00  0.00    +0.000 C 
ATOM     10  C   UNL     1       3.645  16.676  19.575  0.00  0.00    +0.000 C 
ATOM     11  C   UNL     1       4.002  15.866  20.835  0.00  0.00    +0.000 C 
ATOM     12  C   UNL     1       3.645  14.373  20.690  0.00  0.00    +0.000 C 
BRANCH  10  13
ATOM     13  O   UNL     1       3.821  18.078  19.806  0.00  0.00    +0.000 OA
ATOM     14  H   UNL     1       3.428  18.567  19.060  0.00  0.00    +0.000 HD
ENDBRANCH  10  13
BRANCH  11  15
ATOM     15  O   UNL     1       5.386  16.057  21.152  0.00  0.00    +0.000 OA
ATOM     16  H   UNL     1       5.449  16.754  21.830  0.00  0.00    +0.000 HD
ENDBRANCH  11  15
BRANCH  12  17
ATOM     17  O   UNL     1       3.872  13.702  21.933  0.00  0.00    +0.000 OA
ATOM     18  H   UNL     1       3.665  14.315  22.668  0.00  0.00    +0.000 HD
ENDBRANCH  12  17
BRANCH   9  19
ATOM     19  C   UNL     1       1.795  17.138  17.891  0.00  0.00    +0.000 C 
BRANCH  19  20
ATOM     20  O   UNL     1       2.943  17.475  17.128  0.00  0.00    +0.000 OA
ATOM     21  H   UNL     1       2.785  17.160  16.227  0.00  0.00    +0.000 HD
ENDBRANCH  19  20
ENDBRANCH   9  19
ENDBRANCH   3   7
BRANCH   4  22
ATOM     22  O   UNL     1       0.391  12.760  21.900  0.00  0.00    +0.000 OA
ATOM     23  C   UNL     1      -0.954  13.182  21.957  0.00  0.00    +0.000 C 
ENDBRANCH   4  22
BRANCH   1  24
ATOM     24  C   UNL     1       1.143   9.504  18.025  0.00  0.00    +0.000 C 
BRANCH  24  28
ATOM     25  C   UNL     1       3.753   6.115  18.756  0.00  0.00    +0.000 A 
ATOM     26  C   UNL     1       2.723   6.425  19.651  0.00  0.00    +0.000 A 
ATOM     27  C   UNL     1       1.903   7.539  19.427  0.00  0.00    +0.000 A 
ATOM     28  C   UNL     1       2.083   8.349  18.300  0.00  0.00    +0.000 A 
ATOM     29  C   UNL     1       3.114   8.027  17.403  0.00  0.00    +0.000 A 
ATOM     30  C   UNL     1       3.939   6.919  17.629  0.00  0.00    +0.000 A 
BRANCH  25  32
ATOM     31  C   UNL     1       6.106   5.279  19.031  0.00  0.00    +0.000 C 
ATOM     32  C   UNL     1       4.628   4.914  18.992  0.00  0.00    +0.000 C 
ENDBRANCH  25  32
ENDBRANCH  24  28
ENDBRANCH   1  24
TORSDOF 10
ENDMDL
MODEL 9
REMARK VINA RESULT:      -6.0      5.433      9.154
REMARK  Name = 
REMARK  13 active torsions:
REMARK  status: ('A' for Active; 'I' for Inactive)
REMARK    1  A    between atoms: C_1  and  C_2
REMARK    2  A    between atoms: C_2  and  C_3
REMARK    3  A    between atoms: C_6  and  C_7
REMARK    4  A    between atoms: C_7  and  C_8
REMARK    5  A    between atoms: C_10  and  C_11
REMARK    6  A    between atoms: C_13  and  C_14
REMARK    7  A    between atoms: C_14  and  O_15
REMARK    8  A    between atoms: C_16  and  O_17
REMARK    9  A    between atoms: C_18  and  O_19
REMARK   10  A    between atoms: C_20  and  O_21
REMARK   11  A    between atoms: C_22  and  O_23
REMARK   12  A    between atoms: O_23  and  C_24
REMARK   13  A    between atoms: C_25  and  C_26
REMARK                            x       y       z     vdW  Elec       q    Type
REMARK                         _______ _______ _______ _____ _____    ______ ____
ROOT
ATOM      1  C   UNL     1       0.976  10.928  18.549  0.00  0.00    +0.000 A 
ATOM      2  S   UNL     1       1.782  12.242  19.285  0.00  0.00    +0.000 S 
ATOM      3  C   UNL     1       0.322  13.043  19.628  0.00  0.00    +0.000 A 
ATOM      4  C   UNL     1      -0.784  12.311  19.221  0.00  0.00    +0.000 A 
ATOM      5  C   UNL     1      -0.414  11.061  18.580  0.00  0.00    +0.000 A 
ATOM      6  C   UNL     1      -1.286  10.012  17.958  0.00  0.00    +0.000 C 
ENDROOT
BRANCH   3   7
ATOM      7  C   UNL     1       0.324  14.408  20.272  0.00  0.00    +0.000 C 
ATOM      8  O   UNL     1       1.084  15.279  19.415  0.00  0.00    +0.000 OA
ATOM      9  C   UNL     1       0.975  16.652  19.820  0.00  0.00    +0.000 C 
ATOM     10  C   UNL     1       1.560  16.844  21.225  0.00  0.00    +0.000 C 
ATOM     11  C   UNL     1       0.867  15.889  22.214  0.00  0.00    +0.000 C 
ATOM     12  C   UNL     1       0.873  14.429  21.716  0.00  0.00    +0.000 C 
BRANCH  10  13
ATOM     13  O   UNL     1       1.382  18.207  21.626  0.00  0.00    +0.000 OA
ATOM     14  H   UNL     1       1.982  18.394  22.371  0.00  0.00    +0.000 HD
ENDBRANCH  10  13
BRANCH  11  15
ATOM     15  O   UNL     1       1.469  16.017  23.507  0.00  0.00    +0.000 OA
ATOM     16  H   UNL     1       2.432  16.099  23.387  0.00  0.00    +0.000 HD
ENDBRANCH  11  15
BRANCH  12  17
ATOM     17  O   UNL     1       0.100  13.616  22.605  0.00  0.00    +0.000 OA
ATOM     18  H   UNL     1      -0.846  13.844  22.502  0.00  0.00    +0.000 HD
ENDBRANCH  12  17
BRANCH   9  19
ATOM     19  C   UNL     1       1.679  17.531  18.778  0.00  0.00    +0.000 C 
BRANCH  19  20
ATOM     20  O   UNL     1       3.026  17.783  19.149  0.00  0.00    +0.000 OA
ATOM     21  H   UNL     1       3.408  16.936  19.416  0.00  0.00    +0.000 HD
ENDBRANCH  19  20
ENDBRANCH   9  19
ENDBRANCH   3   7
BRANCH   4  22
ATOM     22  O   UNL     1      -1.986  12.901  19.463  0.00  0.00    +0.000 OA
ATOM     23  C   UNL     1      -2.743  12.463  20.570  0.00  0.00    +0.000 C 
ENDBRANCH   4  22
BRANCH   1  24
ATOM     24  C   UNL     1       1.812   9.848  17.900  0.00  0.00    +0.000 C 
BRANCH  24  28
ATOM     25  C   UNL     1       2.077   6.140  20.138  0.00  0.00    +0.000 A 
ATOM     26  C   UNL     1       1.551   7.293  20.732  0.00  0.00    +0.000 A 
ATOM     27  C   UNL     1       1.497   8.496  20.016  0.00  0.00    +0.000 A 
ATOM     28  C   UNL     1       1.947   8.565  18.693  0.00  0.00    +0.000 A 
ATOM     29  C   UNL     1       2.465   7.402  18.101  0.00  0.00    +0.000 A 
ATOM     30  C   UNL     1       2.527   6.201  18.818  0.00  0.00    +0.000 A 
BRANCH  25  32
ATOM     31  C   UNL     1       1.089   3.847  20.412  0.00  0.00    +0.000 C 
ATOM     32  C   UNL     1       2.127   4.847  20.905  0.00  0.00    +0.000 C 
ENDBRANCH  25  32
ENDBRANCH  24  28
ENDBRANCH   1  24
TORSDOF 10
ENDMDL
