MODEL 1
REMARK VINA RESULT:      -7.3      0.000      0.000
REMARK  Name = 
REMARK  7 active torsions:
REMARK  status: ('A' for Active; 'I' for Inactive)
REMARK    1  A    between atoms: C_2  and  C_4
REMARK    2  A    between atoms: C_4  and  O_5
REMARK    3  A    between atoms: O_5  and  C_6
REMARK    4  A    between atoms: C_6  and  C_8
REMARK    5  A    between atoms: C_8  and  N_9
REMARK    6  A    between atoms: C_10  and  C_12
REMARK    7  A    between atoms: C_17  and  N_18
REMARK                            x       y       z     vdW  Elec       q    Type
REMARK                         _______ _______ _______ _____ _____    ______ ____
ROOT
ATOM      1  N   UNL     1       2.466   3.707  17.572  0.00  0.00    +0.000 N 
ATOM      2  C   UNL     1       3.074   4.936  17.697  0.00  0.00    +0.000 C 
ATOM      3  O   UNL     1       2.588   5.868  18.328  0.00  0.00    +0.000 OA
ATOM      4  H   UNL     1       3.014   2.902  17.297  0.00  0.00    +0.000 HD
ENDROOT
BRANCH   2   5
ATOM      5  C   UNL     1       4.412   5.090  17.070  0.00  0.00    +0.000 A 
ATOM      6  C   UNL     1       4.749   4.416  15.891  0.00  0.00    +0.000 A 
ATOM      7  C   UNL     1       6.009   4.602  15.324  0.00  0.00    +0.000 A 
ATOM      8 CL   UNL     1       6.413   3.779  13.869  0.00  0.00    +0.000 Cl
ATOM      9  C   UNL     1       6.944   5.450  15.916  0.00  0.00    +0.000 A 
ATOM     10  C   UNL     1       6.598   6.131  17.089  0.00  0.00    +0.000 A 
ATOM     11  C   UNL     1       5.332   5.964  17.665  0.00  0.00    +0.000 A 
BRANCH  10  12
ATOM     12  N   UNL     1       7.579   7.019  17.726  0.00  0.00    +0.000 N 
ATOM     13  O   UNL     1       8.079   6.646  18.797  0.00  0.00    +0.000 OA
ATOM     14  O   UNL     1       7.836   8.090  17.163  0.00  0.00    +0.000 OA
ENDBRANCH  10  12
ENDBRANCH   2   5
BRANCH   1  15
ATOM     15  C   UNL     1       1.206   3.442  18.255  0.00  0.00    +0.000 C 
BRANCH  15  16
ATOM     16  C   UNL     1       1.345   3.292  19.771  0.00  0.00    +0.000 C 
ATOM     17  O   UNL     1       0.765   4.005  20.574  0.00  0.00    +0.000 OA
BRANCH  16  18
ATOM     18  O   UNL     1       2.167   2.249  20.090  0.00  0.00    +0.000 OA
BRANCH  18  19
ATOM     19  C   UNL     1       3.166   2.565  21.062  0.00  0.00    +0.000 C 
BRANCH  19  21
ATOM     20  N   UNL     1       4.923   2.322  19.371  0.00  0.00    +0.000 N 
ATOM     21  C   UNL     1       4.552   2.076  20.660  0.00  0.00    +0.000 C 
ATOM     22  O   UNL     1       5.280   1.435  21.412  0.00  0.00    +0.000 OA
ATOM     23  H   UNL     1       5.849   2.033  19.086  0.00  0.00    +0.000 HD
ATOM     24  H   UNL     1       4.360   2.863  18.724  0.00  0.00    +0.000 HD
ENDBRANCH  19  21
ENDBRANCH  18  19
ENDBRANCH  16  18
ENDBRANCH  15  16
ENDBRANCH   1  15
TORSDOF 7
ENDMDL
MODEL 2
REMARK VINA RESULT:      -7.3      1.673      2.763
REMARK  Name = 
REMARK  7 active torsions:
REMARK  status: ('A' for Active; 'I' for Inactive)
REMARK    1  A    between atoms: C_2  and  C_4
REMARK    2  A    between atoms: C_4  and  O_5
REMARK    3  A    between atoms: O_5  and  C_6
REMARK    4  A    between atoms: C_6  and  C_8
REMARK    5  A    between atoms: C_8  and  N_9
REMARK    6  A    between atoms: C_10  and  C_12
REMARK    7  A    between atoms: C_17  and  N_18
REMARK                            x       y       z     vdW  Elec       q    Type
REMARK                         _______ _______ _______ _____ _____    ______ ____
ROOT
ATOM      1  N   UNL     1       3.042   2.921  18.603  0.00  0.00    +0.000 N 
ATOM      2  C   UNL     1       4.367   3.181  18.873  0.00  0.00    +0.000 C 
ATOM      3  O   UNL     1       4.947   2.769  19.872  0.00  0.00    +0.000 OA
ATOM      4  H   UNL     1       2.691   3.030  17.660  0.00  0.00    +0.000 HD
ENDROOT
BRANCH   2   5
ATOM      5  C   UNL     1       5.120   3.955  17.853  0.00  0.00    +0.000 A 
ATOM      6  C   UNL     1       4.995   3.681  16.487  0.00  0.00    +0.000 A 
ATOM      7  C   UNL     1       5.703   4.444  15.560  0.00  0.00    +0.000 A 
ATOM      8 CL   UNL     1       5.536   4.108  13.881  0.00  0.00    +0.000 Cl
ATOM      9  C   UNL     1       6.542   5.479  15.973  0.00  0.00    +0.000 A 
ATOM     10  C   UNL     1       6.655   5.757  17.340  0.00  0.00    +0.000 A 
ATOM     11  C   UNL     1       5.941   5.007  18.284  0.00  0.00    +0.000 A 
BRANCH  10  12
ATOM     12  N   UNL     1       7.543   6.838  17.788  0.00  0.00    +0.000 N 
ATOM     13  O   UNL     1       7.652   7.830  17.055  0.00  0.00    +0.000 OA
ATOM     14  O   UNL     1       8.138   6.685  18.862  0.00  0.00    +0.000 OA
ENDBRANCH  10  12
ENDBRANCH   2   5
BRANCH   1  15
ATOM     15  C   UNL     1       2.267   2.071  19.498  0.00  0.00    +0.000 C 
BRANCH  15  16
ATOM     16  C   UNL     1       1.697   2.809  20.710  0.00  0.00    +0.000 C 
ATOM     17  O   UNL     1       1.797   2.400  21.856  0.00  0.00    +0.000 OA
BRANCH  16  18
ATOM     18  O   UNL     1       1.104   3.982  20.340  0.00  0.00    +0.000 OA
BRANCH  18  19
ATOM     19  C   UNL     1       1.683   5.146  20.933  0.00  0.00    +0.000 C 
BRANCH  19  21
ATOM     20  N   UNL     1       2.225   7.463  20.347  0.00  0.00    +0.000 N 
ATOM     21  C   UNL     1       2.111   6.180  19.900  0.00  0.00    +0.000 C 
ATOM     22  O   UNL     1       2.281   5.912  18.713  0.00  0.00    +0.000 OA
ATOM     23  H   UNL     1       2.535   8.165  19.689  0.00  0.00    +0.000 HD
ATOM     24  H   UNL     1       2.112   7.723  21.321  0.00  0.00    +0.000 HD
ENDBRANCH  19  21
ENDBRANCH  18  19
ENDBRANCH  16  18
ENDBRANCH  15  16
ENDBRANCH   1  15
TORSDOF 7
ENDMDL
MODEL 3
REMARK VINA RESULT:      -7.2      2.837      3.620
REMARK  Name = 
REMARK  7 active torsions:
REMARK  status: ('A' for Active; 'I' for Inactive)
REMARK    1  A    between atoms: C_2  and  C_4
REMARK    2  A    between atoms: C_4  and  O_5
REMARK    3  A    between atoms: O_5  and  C_6
REMARK    4  A    between atoms: C_6  and  C_8
REMARK    5  A    between atoms: C_8  and  N_9
REMARK    6  A    between atoms: C_10  and  C_12
REMARK    7  A    between atoms: C_17  and  N_18
REMARK                            x       y       z     vdW  Elec       q    Type
REMARK                         _______ _______ _______ _____ _____    ______ ____
ROOT
ATOM      1  N   UNL     1       3.371   2.613  18.865  0.00  0.00    +0.000 N 
ATOM      2  C   UNL     1       3.485   3.232  17.640  0.00  0.00    +0.000 C 
ATOM      3  O   UNL     1       2.566   3.307  16.832  0.00  0.00    +0.000 OA
ATOM      4  H   UNL     1       4.040   2.819  19.596  0.00  0.00    +0.000 HD
ENDROOT
BRANCH   2   5
ATOM      5  C   UNL     1       4.785   3.884  17.337  0.00  0.00    +0.000 A 
ATOM      6  C   UNL     1       5.589   4.420  18.350  0.00  0.00    +0.000 A 
ATOM      7  C   UNL     1       6.812   5.005  18.026  0.00  0.00    +0.000 A 
ATOM      8 CL   UNL     1       7.799   5.652  19.277  0.00  0.00    +0.000 Cl
ATOM      9  C   UNL     1       7.249   5.070  16.703  0.00  0.00    +0.000 A 
ATOM     10  C   UNL     1       6.447   4.522  15.695  0.00  0.00    +0.000 A 
ATOM     11  C   UNL     1       5.221   3.919  16.005  0.00  0.00    +0.000 A 
BRANCH  10  12
ATOM     12  N   UNL     1       6.892   4.594  14.297  0.00  0.00    +0.000 N 
ATOM     13  O   UNL     1       7.765   5.426  14.016  0.00  0.00    +0.000 OA
ATOM     14  O   UNL     1       6.359   3.828  13.485  0.00  0.00    +0.000 OA
ENDBRANCH  10  12
ENDBRANCH   2   5
BRANCH   1  15
ATOM     15  C   UNL     1       2.092   2.051  19.283  0.00  0.00    +0.000 C 
BRANCH  15  16
ATOM     16  C   UNL     1       1.424   2.820  20.423  0.00  0.00    +0.000 C 
ATOM     17  O   UNL     1       1.332   2.391  21.562  0.00  0.00    +0.000 OA
BRANCH  16  18
ATOM     18  O   UNL     1       0.984   4.043  20.003  0.00  0.00    +0.000 OA
BRANCH  18  19
ATOM     19  C   UNL     1       1.442   5.137  20.798  0.00  0.00    +0.000 C 
BRANCH  19  21
ATOM     20  N   UNL     1       2.158   7.470  20.574  0.00  0.00    +0.000 N 
ATOM     21  C   UNL     1       2.052   6.256  19.963  0.00  0.00    +0.000 C 
ATOM     22  O   UNL     1       2.371   6.115  18.786  0.00  0.00    +0.000 OA
ATOM     23  H   UNL     1       2.586   8.223  20.052  0.00  0.00    +0.000 HD
ATOM     24  H   UNL     1       1.924   7.624  21.549  0.00  0.00    +0.000 HD
ENDBRANCH  19  21
ENDBRANCH  18  19
ENDBRANCH  16  18
ENDBRANCH  15  16
ENDBRANCH   1  15
TORSDOF 7
ENDMDL
MODEL 4
REMARK VINA RESULT:      -7.2      1.923      2.854
REMARK  Name = 
REMARK  7 active torsions:
REMARK  status: ('A' for Active; 'I' for Inactive)
REMARK    1  A    between atoms: C_2  and  C_4
REMARK    2  A    between atoms: C_4  and  O_5
REMARK    3  A    between atoms: O_5  and  C_6
REMARK    4  A    between atoms: C_6  and  C_8
REMARK    5  A    between atoms: C_8  and  N_9
REMARK    6  A    between atoms: C_10  and  C_12
REMARK    7  A    between atoms: C_17  and  N_18
REMARK                            x       y       z     vdW  Elec       q    Type
REMARK                         _______ _______ _______ _____ _____    ______ ____
ROOT
ATOM      1  N   UNL     1       3.406   3.103  19.201  0.00  0.00    +0.000 N 
ATOM      2  C   UNL     1       3.479   3.374  17.853  0.00  0.00    +0.000 C 
ATOM      3  O   UNL     1       2.546   3.197  17.077  0.00  0.00    +0.000 OA
ATOM      4  H   UNL     1       4.077   3.520  19.834  0.00  0.00    +0.000 HD
ENDROOT
BRANCH   2   5
ATOM      5  C   UNL     1       4.748   3.963  17.355  0.00  0.00    +0.000 A 
ATOM      6  C   UNL     1       5.092   3.919  15.999  0.00  0.00    +0.000 A 
ATOM      7  C   UNL     1       6.283   4.501  15.568  0.00  0.00    +0.000 A 
ATOM      8 CL   UNL     1       6.695   4.452  13.899  0.00  0.00    +0.000 Cl
ATOM      9  C   UNL     1       7.144   5.126  16.470  0.00  0.00    +0.000 A 
ATOM     10  C   UNL     1       6.790   5.178  17.823  0.00  0.00    +0.000 A 
ATOM     11  C   UNL     1       5.591   4.608  18.271  0.00  0.00    +0.000 A 
BRANCH  10  12
ATOM     12  N   UNL     1       7.694   5.825  18.783  0.00  0.00    +0.000 N 
ATOM     13  O   UNL     1       8.080   6.973  18.523  0.00  0.00    +0.000 OA
ATOM     14  O   UNL     1       8.024   5.179  19.786  0.00  0.00    +0.000 OA
ENDBRANCH  10  12
ENDBRANCH   2   5
BRANCH   1  15
ATOM     15  C   UNL     1       2.156   2.632  19.786  0.00  0.00    +0.000 C 
BRANCH  15  16
ATOM     16  C   UNL     1       1.956   3.059  21.241  0.00  0.00    +0.000 C 
ATOM     17  O   UNL     1       1.623   2.290  22.128  0.00  0.00    +0.000 OA
BRANCH  16  18
ATOM     18  O   UNL     1       2.231   4.387  21.408  0.00  0.00    +0.000 OA
BRANCH  18  19
ATOM     19  C   UNL     1       1.369   5.261  20.678  0.00  0.00    +0.000 C 
BRANCH  19  21
ATOM     20  N   UNL     1       2.002   7.625  20.799  0.00  0.00    +0.000 N 
ATOM     21  C   UNL     1       2.105   6.461  20.097  0.00  0.00    +0.000 C 
ATOM     22  O   UNL     1       2.703   6.425  19.024  0.00  0.00    +0.000 OA
ATOM     23  H   UNL     1       2.505   8.431  20.450  0.00  0.00    +0.000 HD
ATOM     24  H   UNL     1       1.535   7.693  21.696  0.00  0.00    +0.000 HD
ENDBRANCH  19  21
ENDBRANCH  18  19
ENDBRANCH  16  18
ENDBRANCH  15  16
ENDBRANCH   1  15
TORSDOF 7
ENDMDL
MODEL 5
REMARK VINA RESULT:      -7.1      3.222      5.757
REMARK  Name = 
REMARK  7 active torsions:
REMARK  status: ('A' for Active; 'I' for Inactive)
REMARK    1  A    between atoms: C_2  and  C_4
REMARK    2  A    between atoms: C_4  and  O_5
REMARK    3  A    between atoms: O_5  and  C_6
REMARK    4  A    between atoms: C_6  and  C_8
REMARK    5  A    between atoms: C_8  and  N_9
REMARK    6  A    between atoms: C_10  and  C_12
REMARK    7  A    between atoms: C_17  and  N_18
REMARK                            x       y       z     vdW  Elec       q    Type
REMARK                         _______ _______ _______ _____ _____    ______ ____
ROOT
ATOM      1  N   UNL     1       4.815   4.834  16.874  0.00  0.00    +0.000 N 
ATOM      2  C   UNL     1       3.733   4.072  17.253  0.00  0.00    +0.000 C 
ATOM      3  O   UNL     1       3.371   3.066  16.652  0.00  0.00    +0.000 OA
ATOM      4  H   UNL     1       5.241   5.467  17.539  0.00  0.00    +0.000 HD
ENDROOT
BRANCH   2   5
ATOM      5  C   UNL     1       3.023   4.483  18.492  0.00  0.00    +0.000 A 
ATOM      6  C   UNL     1       2.622   3.547  19.451  0.00  0.00    +0.000 A 
ATOM      7  C   UNL     1       1.976   3.975  20.610  0.00  0.00    +0.000 A 
ATOM      8 CL   UNL     1       1.495   2.819  21.789  0.00  0.00    +0.000 Cl
ATOM      9  C   UNL     1       1.719   5.328  20.829  0.00  0.00    +0.000 A 
ATOM     10  C   UNL     1       2.132   6.263  19.873  0.00  0.00    +0.000 A 
ATOM     11  C   UNL     1       2.793   5.850  18.708  0.00  0.00    +0.000 A 
BRANCH  10  12
ATOM     12  N   UNL     1       1.858   7.689  20.089  0.00  0.00    +0.000 N 
ATOM     13  O   UNL     1       1.504   8.039  21.223  0.00  0.00    +0.000 OA
ATOM     14  O   UNL     1       1.984   8.451  19.122  0.00  0.00    +0.000 OA
ENDBRANCH  10  12
ENDBRANCH   2   5
BRANCH   1  15
ATOM     15  C   UNL     1       5.632   4.429  15.737  0.00  0.00    +0.000 C 
BRANCH  15  16
ATOM     16  C   UNL     1       7.077   4.925  15.807  0.00  0.00    +0.000 C 
ATOM     17  O   UNL     1       7.651   5.461  14.873  0.00  0.00    +0.000 OA
BRANCH  16  18
ATOM     18  O   UNL     1       7.610   4.717  17.047  0.00  0.00    +0.000 OA
BRANCH  18  19
ATOM     19  C   UNL     1       7.577   5.863  17.899  0.00  0.00    +0.000 C 
BRANCH  19  21
ATOM     20  N   UNL     1       8.374   5.452  20.180  0.00  0.00    +0.000 N 
ATOM     21  C   UNL     1       7.291   5.506  19.353  0.00  0.00    +0.000 C 
ATOM     22  O   UNL     1       6.172   5.211  19.762  0.00  0.00    +0.000 OA
ATOM     23  H   UNL     1       8.209   5.245  21.156  0.00  0.00    +0.000 HD
ATOM     24  H   UNL     1       9.310   5.705  19.887  0.00  0.00    +0.000 HD
ENDBRANCH  19  21
ENDBRANCH  18  19
ENDBRANCH  16  18
ENDBRANCH  15  16
ENDBRANCH   1  15
TORSDOF 7
ENDMDL
MODEL 6
REMARK VINA RESULT:      -7.1      3.164      5.884
REMARK  Name = 
REMARK  7 active torsions:
REMARK  status: ('A' for Active; 'I' for Inactive)
REMARK    1  A    between atoms: C_2  and  C_4
REMARK    2  A    between atoms: C_4  and  O_5
REMARK    3  A    between atoms: O_5  and  C_6
REMARK    4  A    between atoms: C_6  and  C_8
REMARK    5  A    between atoms: C_8  and  N_9
REMARK    6  A    between atoms: C_10  and  C_12
REMARK    7  A    between atoms: C_17  and  N_18
REMARK                            x       y       z     vdW  Elec       q    Type
REMARK                         _______ _______ _______ _____ _____    ______ ____
ROOT
ATOM      1  N   UNL     1       4.398   5.486  16.692  0.00  0.00    +0.000 N 
ATOM      2  C   UNL     1       4.126   4.439  17.544  0.00  0.00    +0.000 C 
ATOM      3  O   UNL     1       4.603   3.317  17.411  0.00  0.00    +0.000 OA
ATOM      4  H   UNL     1       4.222   6.436  16.991  0.00  0.00    +0.000 HD
ENDROOT
BRANCH   2   5
ATOM      5  C   UNL     1       3.251   4.733  18.708  0.00  0.00    +0.000 A 
ATOM      6  C   UNL     1       2.807   3.718  19.564  0.00  0.00    +0.000 A 
ATOM      7  C   UNL     1       2.004   4.038  20.658  0.00  0.00    +0.000 A 
ATOM      8 CL   UNL     1       1.471   2.787  21.711  0.00  0.00    +0.000 Cl
ATOM      9  C   UNL     1       1.630   5.356  20.913  0.00  0.00    +0.000 A 
ATOM     10  C   UNL     1       2.086   6.369  20.061  0.00  0.00    +0.000 A 
ATOM     11  C   UNL     1       2.904   6.067  18.965  0.00  0.00    +0.000 A 
BRANCH  10  12
ATOM     12  N   UNL     1       1.690   7.761  20.314  0.00  0.00    +0.000 N 
ATOM     13  O   UNL     1       1.752   8.556  19.366  0.00  0.00    +0.000 OA
ATOM     14  O   UNL     1       1.332   8.056  21.461  0.00  0.00    +0.000 OA
ENDBRANCH  10  12
ENDBRANCH   2   5
BRANCH   1  15
ATOM     15  C   UNL     1       5.339   5.307  15.592  0.00  0.00    +0.000 C 
BRANCH  15  16
ATOM     16  C   UNL     1       6.708   5.942  15.842  0.00  0.00    +0.000 C 
ATOM     17  O   UNL     1       7.706   5.665  15.198  0.00  0.00    +0.000 OA
BRANCH  16  18
ATOM     18  O   UNL     1       6.647   6.868  16.845  0.00  0.00    +0.000 OA
BRANCH  18  19
ATOM     19  C   UNL     1       7.637   6.699  17.860  0.00  0.00    +0.000 C 
BRANCH  19  21
ATOM     20  N   UNL     1       7.774   4.264  18.099  0.00  0.00    +0.000 N 
ATOM     21  C   UNL     1       7.420   5.441  18.690  0.00  0.00    +0.000 C 
ATOM     22  O   UNL     1       6.893   5.453  19.799  0.00  0.00    +0.000 OA
ATOM     23  H   UNL     1       7.667   3.416  18.639  0.00  0.00    +0.000 HD
ATOM     24  H   UNL     1       8.229   4.212  17.194  0.00  0.00    +0.000 HD
ENDBRANCH  19  21
ENDBRANCH  18  19
ENDBRANCH  16  18
ENDBRANCH  15  16
ENDBRANCH   1  15
TORSDOF 7
ENDMDL
MODEL 7
REMARK VINA RESULT:      -7.1      2.657      3.690
REMARK  Name = 
REMARK  7 active torsions:
REMARK  status: ('A' for Active; 'I' for Inactive)
REMARK    1  A    between atoms: C_2  and  C_4
REMARK    2  A    between atoms: C_4  and  O_5
REMARK    3  A    between atoms: O_5  and  C_6
REMARK    4  A    between atoms: C_6  and  C_8
REMARK    5  A    between atoms: C_8  and  N_9
REMARK    6  A    between atoms: C_10  and  C_12
REMARK    7  A    between atoms: C_17  and  N_18
REMARK                            x       y       z     vdW  Elec       q    Type
REMARK                         _______ _______ _______ _____ _____    ______ ____
ROOT
ATOM      1  N   UNL     1       4.928   3.000  19.541  0.00  0.00    +0.000 N 
ATOM      2  C   UNL     1       4.748   3.149  18.184  0.00  0.00    +0.000 C 
ATOM      3  O   UNL     1       3.875   2.567  17.549  0.00  0.00    +0.000 OA
ATOM      4  H   UNL     1       5.453   3.694  20.057  0.00  0.00    +0.000 HD
ENDROOT
BRANCH   2   5
ATOM      5  C   UNL     1       5.638   4.117  17.492  0.00  0.00    +0.000 A 
ATOM      6  C   UNL     1       6.300   5.132  18.192  0.00  0.00    +0.000 A 
ATOM      7  C   UNL     1       7.142   6.008  17.509  0.00  0.00    +0.000 A 
ATOM      8 CL   UNL     1       7.961   7.246  18.378  0.00  0.00    +0.000 Cl
ATOM      9  C   UNL     1       7.334   5.893  16.133  0.00  0.00    +0.000 A 
ATOM     10  C   UNL     1       6.678   4.870  15.438  0.00  0.00    +0.000 A 
ATOM     11  C   UNL     1       5.838   3.973  16.112  0.00  0.00    +0.000 A 
BRANCH  10  12
ATOM     12  N   UNL     1       6.865   4.745  13.987  0.00  0.00    +0.000 N 
ATOM     13  O   UNL     1       7.684   5.501  13.447  0.00  0.00    +0.000 OA
ATOM     14  O   UNL     1       6.183   3.901  13.391  0.00  0.00    +0.000 OA
ENDBRANCH  10  12
ENDBRANCH   2   5
BRANCH   1  15
ATOM     15  C   UNL     1       4.021   2.156  20.309  0.00  0.00    +0.000 C 
BRANCH  15  16
ATOM     16  C   UNL     1       2.984   2.940  21.116  0.00  0.00    +0.000 C 
ATOM     17  O   UNL     1       2.550   2.569  22.195  0.00  0.00    +0.000 OA
BRANCH  16  18
ATOM     18  O   UNL     1       2.647   4.104  20.487  0.00  0.00    +0.000 OA
BRANCH  18  19
ATOM     19  C   UNL     1       1.268   4.197  20.124  0.00  0.00    +0.000 C 
BRANCH  19  21
ATOM     20  N   UNL     1       1.312   4.121  17.675  0.00  0.00    +0.000 N 
ATOM     21  C   UNL     1       0.955   3.474  18.820  0.00  0.00    +0.000 C 
ATOM     22  O   UNL     1       0.353   2.404  18.776  0.00  0.00    +0.000 OA
ATOM     23  H   UNL     1       1.141   3.651  16.796  0.00  0.00    +0.000 HD
ATOM     24  H   UNL     1       1.826   4.995  17.668  0.00  0.00    +0.000 HD
ENDBRANCH  19  21
ENDBRANCH  18  19
ENDBRANCH  16  18
ENDBRANCH  15  16
ENDBRANCH   1  15
TORSDOF 7
ENDMDL
MODEL 8
REMARK VINA RESULT:      -7.0      2.802      3.338
REMARK  Name = 
REMARK  7 active torsions:
REMARK  status: ('A' for Active; 'I' for Inactive)
REMARK    1  A    between atoms: C_2  and  C_4
REMARK    2  A    between atoms: C_4  and  O_5
REMARK    3  A    between atoms: O_5  and  C_6
REMARK    4  A    between atoms: C_6  and  C_8
REMARK    5  A    between atoms: C_8  and  N_9
REMARK    6  A    between atoms: C_10  and  C_12
REMARK    7  A    between atoms: C_17  and  N_18
REMARK                            x       y       z     vdW  Elec       q    Type
REMARK                         _______ _______ _______ _____ _____    ______ ____
ROOT
ATOM      1  N   UNL     1       4.545   2.668  18.023  0.00  0.00    +0.000 N 
ATOM      2  C   UNL     1       4.751   3.960  18.454  0.00  0.00    +0.000 C 
ATOM      3  O   UNL     1       4.216   4.432  19.451  0.00  0.00    +0.000 OA
ATOM      4  H   UNL     1       5.205   2.241  17.386  0.00  0.00    +0.000 HD
ENDROOT
BRANCH   2   5
ATOM      5  C   UNL     1       5.719   4.779  17.680  0.00  0.00    +0.000 A 
ATOM      6  C   UNL     1       6.404   5.849  18.266  0.00  0.00    +0.000 A 
ATOM      7  C   UNL     1       7.320   6.581  17.512  0.00  0.00    +0.000 A 
ATOM      8 CL   UNL     1       8.166   7.888  18.242  0.00  0.00    +0.000 Cl
ATOM      9  C   UNL     1       7.564   6.265  16.176  0.00  0.00    +0.000 A 
ATOM     10  C   UNL     1       6.885   5.187  15.597  0.00  0.00    +0.000 A 
ATOM     11  C   UNL     1       5.970   4.434  16.345  0.00  0.00    +0.000 A 
BRANCH  10  12
ATOM     12  N   UNL     1       7.126   4.852  14.188  0.00  0.00    +0.000 N 
ATOM     13  O   UNL     1       7.930   5.555  13.561  0.00  0.00    +0.000 OA
ATOM     14  O   UNL     1       6.501   3.897  13.710  0.00  0.00    +0.000 OA
ENDBRANCH  10  12
ENDBRANCH   2   5
BRANCH   1  15
ATOM     15  C   UNL     1       3.699   1.766  18.795  0.00  0.00    +0.000 C 
BRANCH  15  16
ATOM     16  C   UNL     1       2.202   2.016  18.609  0.00  0.00    +0.000 C 
ATOM     17  O   UNL     1       1.698   2.322  17.541  0.00  0.00    +0.000 OA
BRANCH  16  18
ATOM     18  O   UNL     1       1.519   1.817  19.776  0.00  0.00    +0.000 OA
BRANCH  18  19
ATOM     19  C   UNL     1       1.039   3.015  20.386  0.00  0.00    +0.000 C 
BRANCH  19  21
ATOM     20  N   UNL     1       2.215   4.865  21.482  0.00  0.00    +0.000 N 
ATOM     21  C   UNL     1       1.963   3.526  21.485  0.00  0.00    +0.000 C 
ATOM     22  O   UNL     1       2.517   2.784  22.292  0.00  0.00    +0.000 OA
ATOM     23  H   UNL     1       2.802   5.235  22.217  0.00  0.00    +0.000 HD
ATOM     24  H   UNL     1       1.765   5.514  20.845  0.00  0.00    +0.000 HD
ENDBRANCH  19  21
ENDBRANCH  18  19
ENDBRANCH  16  18
ENDBRANCH  15  16
ENDBRANCH   1  15
TORSDOF 7
ENDMDL
MODEL 9
REMARK VINA RESULT:      -7.0      2.436      2.780
REMARK  Name = 
REMARK  7 active torsions:
REMARK  status: ('A' for Active; 'I' for Inactive)
REMARK    1  A    between atoms: C_2  and  C_4
REMARK    2  A    between atoms: C_4  and  O_5
REMARK    3  A    between atoms: O_5  and  C_6
REMARK    4  A    between atoms: C_6  and  C_8
REMARK    5  A    between atoms: C_8  and  N_9
REMARK    6  A    between atoms: C_10  and  C_12
REMARK    7  A    between atoms: C_17  and  N_18
REMARK                            x       y       z     vdW  Elec       q    Type
REMARK                         _______ _______ _______ _____ _____    ______ ____
ROOT
ATOM      1  N   UNL     1       2.606   4.299  17.332  0.00  0.00    +0.000 N 
ATOM      2  C   UNL     1       3.259   5.466  17.662  0.00  0.00    +0.000 C 
ATOM      3  O   UNL     1       2.724   6.393  18.261  0.00  0.00    +0.000 OA
ATOM      4  H   UNL     1       3.142   3.472  17.103  0.00  0.00    +0.000 HD
ENDROOT
BRANCH   2   5
ATOM      5  C   UNL     1       4.699   5.552  17.309  0.00  0.00    +0.000 A 
ATOM      6  C   UNL     1       5.656   5.973  18.239  0.00  0.00    +0.000 A 
ATOM      7  C   UNL     1       7.001   6.021  17.875  0.00  0.00    +0.000 A 
ATOM      8 CL   UNL     1       8.173   6.530  19.027  0.00  0.00    +0.000 Cl
ATOM      9  C   UNL     1       7.411   5.657  16.593  0.00  0.00    +0.000 A 
ATOM     10  C   UNL     1       6.452   5.225  15.670  0.00  0.00    +0.000 A 
ATOM     11  C   UNL     1       5.098   5.160  16.023  0.00  0.00    +0.000 A 
BRANCH  10  12
ATOM     12  N   UNL     1       6.871   4.849  14.313  0.00  0.00    +0.000 N 
ATOM     13  O   UNL     1       7.850   5.436  13.833  0.00  0.00    +0.000 OA
ATOM     14  O   UNL     1       6.212   3.980  13.729  0.00  0.00    +0.000 OA
ENDBRANCH  10  12
ENDBRANCH   2   5
BRANCH   1  15
ATOM     15  C   UNL     1       1.224   4.093  17.746  0.00  0.00    +0.000 C 
BRANCH  15  16
ATOM     16  C   UNL     1       1.068   3.115  18.911  0.00  0.00    +0.000 C 
ATOM     17  O   UNL     1       0.310   2.159  18.892  0.00  0.00    +0.000 OA
BRANCH  16  18
ATOM     18  O   UNL     1       1.904   3.439  19.942  0.00  0.00    +0.000 OA
BRANCH  18  19
ATOM     19  C   UNL     1       2.739   2.366  20.379  0.00  0.00    +0.000 C 
BRANCH  19  21
ATOM     20  N   UNL     1       5.072   2.661  19.689  0.00  0.00    +0.000 N 
ATOM     21  C   UNL     1       3.875   2.072  19.408  0.00  0.00    +0.000 C 
ATOM     22  O   UNL     1       3.727   1.406  18.386  0.00  0.00    +0.000 OA
ATOM     23  H   UNL     1       5.851   2.460  19.076  0.00  0.00    +0.000 HD
ATOM     24  H   UNL     1       5.241   3.202  20.530  0.00  0.00    +0.000 HD
ENDBRANCH  19  21
ENDBRANCH  18  19
ENDBRANCH  16  18
ENDBRANCH  15  16
ENDBRANCH   1  15
TORSDOF 7
ENDMDL
