MODEL 1
REMARK VINA RESULT:      -7.8      0.000      0.000
REMARK  Name = 
REMARK  4 active torsions:
REMARK  status: ('A' for Active; 'I' for Inactive)
REMARK    1  A    between atoms: C_1  and  S_2
REMARK    2  A    between atoms: S_2  and  C_3
REMARK    3  A    between atoms: C_8  and  S_9
REMARK    4  A    between atoms: S_9  and  N_12
REMARK                            x       y       z     vdW  Elec       q    Type
REMARK                         _______ _______ _______ _____ _____    ______ ____
ROOT
ATOM      1  S   UNL     1       3.261   4.455  18.849  0.00  0.00    +0.000 S 
ATOM      2  O   UNL     1       3.221   3.895  20.187  0.00  0.00    +0.000 OA
ATOM      3  O   UNL     1       2.544   3.824  17.764  0.00  0.00    +0.000 OA
ENDROOT
BRANCH   1   9
ATOM      4  C   UNL     1       0.755  10.089  20.688  0.00  0.00    +0.000 A 
ATOM      5  N   UNL     1       1.175  10.003  19.448  0.00  0.00    +0.000 NA
ATOM      6  C   UNL     1       1.672   8.738  19.208  0.00  0.00    +0.000 A 
ATOM      7  C   UNL     1       2.167   8.268  17.975  0.00  0.00    +0.000 A 
ATOM      8  C   UNL     1       2.639   6.956  17.871  0.00  0.00    +0.000 A 
ATOM      9  C   UNL     1       2.633   6.122  18.989  0.00  0.00    +0.000 A 
ATOM     10  C   UNL     1       2.111   6.550  20.216  0.00  0.00    +0.000 A 
ATOM     11  C   UNL     1       1.646   7.869  20.301  0.00  0.00    +0.000 A 
ATOM     12  S   UNL     1       0.970   8.693  21.654  0.00  0.00    +0.000 S 
BRANCH   4  14
ATOM     13  C   UNL     1      -0.817  10.878  22.772  0.00  0.00    +0.000 C 
ATOM     14  S   UNL     1       0.005  11.544  21.309  0.00  0.00    +0.000 S 
ENDBRANCH   4  14
ENDBRANCH   1   9
BRANCH   1  15
ATOM     15  N   UNL     1       4.859   4.656  18.412  0.00  0.00    +0.000 N 
ATOM     16  C   UNL     1       5.840   5.286  19.327  0.00  0.00    +0.000 C 
ATOM     17  C   UNL     1       6.986   5.806  18.438  0.00  0.00    +0.000 C 
ATOM     18  C   UNL     1       6.622   5.285  17.084  0.00  0.00    +0.000 A 
ATOM     19  C   UNL     1       7.398   5.318  15.936  0.00  0.00    +0.000 A 
ATOM     20  C   UNL     1       6.865   4.779  14.765  0.00  0.00    +0.000 A 
ATOM     21  C   UNL     1       5.569   4.244  14.753  0.00  0.00    +0.000 A 
ATOM     22  C   UNL     1       4.797   4.211  15.920  0.00  0.00    +0.000 A 
ATOM     23  C   UNL     1       5.341   4.730  17.079  0.00  0.00    +0.000 A 
ENDBRANCH   1  15
TORSDOF 3
ENDMDL
MODEL 2
REMARK VINA RESULT:      -7.6      1.405      1.898
REMARK  Name = 
REMARK  4 active torsions:
REMARK  status: ('A' for Active; 'I' for Inactive)
REMARK    1  A    between atoms: C_1  and  S_2
REMARK    2  A    between atoms: S_2  and  C_3
REMARK    3  A    between atoms: C_8  and  S_9
REMARK    4  A    between atoms: S_9  and  N_12
REMARK                            x       y       z     vdW  Elec       q    Type
REMARK                         _______ _______ _______ _____ _____    ______ ____
ROOT
ATOM      1  S   UNL     1       3.268   4.069  18.663  0.00  0.00    +0.000 S 
ATOM      2  O   UNL     1       3.247   3.218  19.839  0.00  0.00    +0.000 OA
ATOM      3  O   UNL     1       2.564   3.681  17.461  0.00  0.00    +0.000 OA
ENDROOT
BRANCH   1   9
ATOM      4  C   UNL     1       1.208  10.139  19.223  0.00  0.00    +0.000 A 
ATOM      5  N   UNL     1       1.014   9.350  20.253  0.00  0.00    +0.000 NA
ATOM      6  C   UNL     1       1.517   8.093  19.981  0.00  0.00    +0.000 A 
ATOM      7  C   UNL     1       1.528   7.000  20.871  0.00  0.00    +0.000 A 
ATOM      8  C   UNL     1       2.075   5.779  20.466  0.00  0.00    +0.000 A 
ATOM      9  C   UNL     1       2.593   5.641  19.178  0.00  0.00    +0.000 A 
ATOM     10  C   UNL     1       2.631   6.721  18.287  0.00  0.00    +0.000 A 
ATOM     11  C   UNL     1       2.075   7.935  18.711  0.00  0.00    +0.000 A 
ATOM     12  S   UNL     1       1.952   9.426  17.857  0.00  0.00    +0.000 S 
BRANCH   4  14
ATOM     13  C   UNL     1       2.175  12.565  18.435  0.00  0.00    +0.000 C 
ATOM     14  S   UNL     1       0.745  11.827  19.255  0.00  0.00    +0.000 S 
ENDBRANCH   4  14
ENDBRANCH   1   9
BRANCH   1  15
ATOM     15  N   UNL     1       4.857   4.409  18.289  0.00  0.00    +0.000 N 
ATOM     16  C   UNL     1       5.756   5.082  19.257  0.00  0.00    +0.000 C 
ATOM     17  C   UNL     1       6.885   5.719  18.425  0.00  0.00    +0.000 C 
ATOM     18  C   UNL     1       6.608   5.217  17.044  0.00  0.00    +0.000 A 
ATOM     19  C   UNL     1       7.415   5.350  15.925  0.00  0.00    +0.000 A 
ATOM     20  C   UNL     1       6.965   4.810  14.720  0.00  0.00    +0.000 A 
ATOM     21  C   UNL     1       5.716   4.176  14.647  0.00  0.00    +0.000 A 
ATOM     22  C   UNL     1       4.911   4.044  15.784  0.00  0.00    +0.000 A 
ATOM     23  C   UNL     1       5.375   4.565  16.977  0.00  0.00    +0.000 A 
ENDBRANCH   1  15
TORSDOF 3
ENDMDL
MODEL 3
REMARK VINA RESULT:      -7.4      0.992      2.017
REMARK  Name = 
REMARK  4 active torsions:
REMARK  status: ('A' for Active; 'I' for Inactive)
REMARK    1  A    between atoms: C_1  and  S_2
REMARK    2  A    between atoms: S_2  and  C_3
REMARK    3  A    between atoms: C_8  and  S_9
REMARK    4  A    between atoms: S_9  and  N_12
REMARK                            x       y       z     vdW  Elec       q    Type
REMARK                         _______ _______ _______ _____ _____    ______ ____
ROOT
ATOM      1  S   UNL     1       2.611   4.728  19.252  0.00  0.00    +0.000 S 
ATOM      2  O   UNL     1       3.201   4.395  20.536  0.00  0.00    +0.000 OA
ATOM      3  O   UNL     1       1.457   4.007  18.763  0.00  0.00    +0.000 OA
ENDROOT
BRANCH   1   9
ATOM      4  C   UNL     1       0.583  10.601  20.926  0.00  0.00    +0.000 A 
ATOM      5  N   UNL     1       1.061  10.462  19.713  0.00  0.00    +0.000 NA
ATOM      6  C   UNL     1       1.441   9.151  19.506  0.00  0.00    +0.000 A 
ATOM      7  C   UNL     1       1.954   8.622  18.304  0.00  0.00    +0.000 A 
ATOM      8  C   UNL     1       2.298   7.269  18.231  0.00  0.00    +0.000 A 
ATOM      9  C   UNL     1       2.146   6.450  19.351  0.00  0.00    +0.000 A 
ATOM     10  C   UNL     1       1.602   6.939  20.545  0.00  0.00    +0.000 A 
ATOM     11  C   UNL     1       1.268   8.300  20.599  0.00  0.00    +0.000 A 
ATOM     12  S   UNL     1       0.603   9.199  21.908  0.00  0.00    +0.000 S 
BRANCH   4  14
ATOM     13  C   UNL     1      -1.090  11.553  22.858  0.00  0.00    +0.000 C 
ATOM     14  S   UNL     1      -0.050  12.129  21.499  0.00  0.00    +0.000 S 
ENDBRANCH   4  14
ENDBRANCH   1   9
BRANCH   1  15
ATOM     15  N   UNL     1       3.815   4.695  18.097  0.00  0.00    +0.000 N 
ATOM     16  C   UNL     1       3.625   4.010  16.798  0.00  0.00    +0.000 C 
ATOM     17  C   UNL     1       5.036   3.696  16.266  0.00  0.00    +0.000 C 
ATOM     18  C   UNL     1       5.926   4.377  17.256  0.00  0.00    +0.000 A 
ATOM     19  C   UNL     1       7.298   4.556  17.168  0.00  0.00    +0.000 A 
ATOM     20  C   UNL     1       7.944   5.219  18.211  0.00  0.00    +0.000 A 
ATOM     21  C   UNL     1       7.221   5.664  19.328  0.00  0.00    +0.000 A 
ATOM     22  C   UNL     1       5.836   5.481  19.404  0.00  0.00    +0.000 A 
ATOM     23  C   UNL     1       5.202   4.841  18.356  0.00  0.00    +0.000 A 
ENDBRANCH   1  15
TORSDOF 3
ENDMDL
MODEL 4
REMARK VINA RESULT:      -7.3      1.481      2.559
REMARK  Name = 
REMARK  4 active torsions:
REMARK  status: ('A' for Active; 'I' for Inactive)
REMARK    1  A    between atoms: C_1  and  S_2
REMARK    2  A    between atoms: S_2  and  C_3
REMARK    3  A    between atoms: C_8  and  S_9
REMARK    4  A    between atoms: S_9  and  N_12
REMARK                            x       y       z     vdW  Elec       q    Type
REMARK                         _______ _______ _______ _____ _____    ______ ____
ROOT
ATOM      1  S   UNL     1       2.721   4.008  18.452  0.00  0.00    +0.000 S 
ATOM      2  O   UNL     1       3.096   3.213  19.607  0.00  0.00    +0.000 OA
ATOM      3  O   UNL     1       1.663   3.570  17.569  0.00  0.00    +0.000 OA
ENDROOT
BRANCH   1   9
ATOM      4  C   UNL     1       1.281  10.203  19.426  0.00  0.00    +0.000 A 
ATOM      5  N   UNL     1       1.116   9.389  20.441  0.00  0.00    +0.000 NA
ATOM      6  C   UNL     1       1.475   8.107  20.077  0.00  0.00    +0.000 A 
ATOM      7  C   UNL     1       1.473   6.979  20.922  0.00  0.00    +0.000 A 
ATOM      8  C   UNL     1       1.866   5.734  20.422  0.00  0.00    +0.000 A 
ATOM      9  C   UNL     1       2.244   5.608  19.085  0.00  0.00    +0.000 A 
ATOM     10  C   UNL     1       2.294   6.719  18.233  0.00  0.00    +0.000 A 
ATOM     11  C   UNL     1       1.892   7.957  18.753  0.00  0.00    +0.000 A 
ATOM     12  S   UNL     1       1.823   9.488  17.968  0.00  0.00    +0.000 S 
BRANCH   4  14
ATOM     13  C   UNL     1      -0.822  11.913  19.728  0.00  0.00    +0.000 C 
ATOM     14  S   UNL     1       0.976  11.922  19.562  0.00  0.00    +0.000 S 
ENDBRANCH   4  14
ENDBRANCH   1   9
BRANCH   1  15
ATOM     15  N   UNL     1       4.096   4.316  17.557  0.00  0.00    +0.000 N 
ATOM     16  C   UNL     1       4.249   3.813  16.172  0.00  0.00    +0.000 C 
ATOM     17  C   UNL     1       5.763   3.781  15.890  0.00  0.00    +0.000 C 
ATOM     18  C   UNL     1       6.344   4.422  17.110  0.00  0.00    +0.000 A 
ATOM     19  C   UNL     1       7.662   4.800  17.312  0.00  0.00    +0.000 A 
ATOM     20  C   UNL     1       8.001   5.381  18.535  0.00  0.00    +0.000 A 
ATOM     21  C   UNL     1       7.032   5.549  19.536  0.00  0.00    +0.000 A 
ATOM     22  C   UNL     1       5.704   5.168  19.318  0.00  0.00    +0.000 A 
ATOM     23  C   UNL     1       5.375   4.611  18.097  0.00  0.00    +0.000 A 
ENDBRANCH   1  15
TORSDOF 3
ENDMDL
MODEL 5
REMARK VINA RESULT:      -7.3      1.345      1.766
REMARK  Name = 
REMARK  4 active torsions:
REMARK  status: ('A' for Active; 'I' for Inactive)
REMARK    1  A    between atoms: C_1  and  S_2
REMARK    2  A    between atoms: S_2  and  C_3
REMARK    3  A    between atoms: C_8  and  S_9
REMARK    4  A    between atoms: S_9  and  N_12
REMARK                            x       y       z     vdW  Elec       q    Type
REMARK                         _______ _______ _______ _____ _____    ______ ____
ROOT
ATOM      1  S   UNL     1       3.369   3.537  18.035  0.00  0.00    +0.000 S 
ATOM      2  O   UNL     1       3.358   2.535  19.086  0.00  0.00    +0.000 OA
ATOM      3  O   UNL     1       2.635   3.325  16.808  0.00  0.00    +0.000 OA
ENDROOT
BRANCH   1   9
ATOM      4  C   UNL     1       1.345   9.484  19.425  0.00  0.00    +0.000 A 
ATOM      5  N   UNL     1       1.233   8.584  20.372  0.00  0.00    +0.000 NA
ATOM      6  C   UNL     1       1.717   7.370  19.924  0.00  0.00    +0.000 A 
ATOM      7  C   UNL     1       1.799   6.186  20.683  0.00  0.00    +0.000 A 
ATOM      8  C   UNL     1       2.316   5.023  20.103  0.00  0.00    +0.000 A 
ATOM      9  C   UNL     1       2.733   5.035  18.772  0.00  0.00    +0.000 A 
ATOM     10  C   UNL     1       2.699   6.207  18.006  0.00  0.00    +0.000 A 
ATOM     11  C   UNL     1       2.174   7.361  18.605  0.00  0.00    +0.000 A 
ATOM     12  S   UNL     1       1.982   8.935  17.935  0.00  0.00    +0.000 S 
BRANCH   4  14
ATOM     13  C   UNL     1      -0.054  10.991  21.217  0.00  0.00    +0.000 C 
ATOM     14  S   UNL     1       0.881  11.153  19.680  0.00  0.00    +0.000 S 
ENDBRANCH   4  14
ENDBRANCH   1   9
BRANCH   1  15
ATOM     15  N   UNL     1       4.957   3.901  17.674  0.00  0.00    +0.000 N 
ATOM     16  C   UNL     1       5.887   4.420  18.704  0.00  0.00    +0.000 C 
ATOM     17  C   UNL     1       7.010   5.149  17.942  0.00  0.00    +0.000 C 
ATOM     18  C   UNL     1       6.695   4.848  16.512  0.00  0.00    +0.000 A 
ATOM     19  C   UNL     1       7.480   5.123  15.403  0.00  0.00    +0.000 A 
ATOM     20  C   UNL     1       6.995   4.762  14.146  0.00  0.00    +0.000 A 
ATOM     21  C   UNL     1       5.733   4.163  14.015  0.00  0.00    +0.000 A 
ATOM     22  C   UNL     1       4.951   3.887  15.142  0.00  0.00    +0.000 A 
ATOM     23  C   UNL     1       5.449   4.230  16.384  0.00  0.00    +0.000 A 
ENDBRANCH   1  15
TORSDOF 3
ENDMDL
MODEL 6
REMARK VINA RESULT:      -7.0      2.663      4.133
REMARK  Name = 
REMARK  4 active torsions:
REMARK  status: ('A' for Active; 'I' for Inactive)
REMARK    1  A    between atoms: C_1  and  S_2
REMARK    2  A    between atoms: S_2  and  C_3
REMARK    3  A    between atoms: C_8  and  S_9
REMARK    4  A    between atoms: S_9  and  N_12
REMARK                            x       y       z     vdW  Elec       q    Type
REMARK                         _______ _______ _______ _____ _____    ______ ____
ROOT
ATOM      1  S   UNL     1       4.152   5.786  18.198  0.00  0.00    +0.000 S 
ATOM      2  O   UNL     1       4.531   5.925  16.803  0.00  0.00    +0.000 OA
ATOM      3  O   UNL     1       5.156   5.780  19.237  0.00  0.00    +0.000 OA
ENDROOT
BRANCH   1   9
ATOM      4  C   UNL     1       0.121  10.109  20.741  0.00  0.00    +0.000 A 
ATOM      5  N   UNL     1       0.483  10.298  19.495  0.00  0.00    +0.000 NA
ATOM      6  C   UNL     1       1.335   9.287  19.096  0.00  0.00    +0.000 A 
ATOM      7  C   UNL     1       1.888   9.136  17.809  0.00  0.00    +0.000 A 
ATOM      8  C   UNL     1       2.737   8.058  17.539  0.00  0.00    +0.000 A 
ATOM      9  C   UNL     1       3.047   7.145  18.548  0.00  0.00    +0.000 A 
ATOM     10  C   UNL     1       2.480   7.249  19.824  0.00  0.00    +0.000 A 
ATOM     11  C   UNL     1       1.634   8.338  20.076  0.00  0.00    +0.000 A 
ATOM     12  S   UNL     1       0.806   8.752  21.527  0.00  0.00    +0.000 S 
BRANCH   4  14
ATOM     13  C   UNL     1      -1.003  10.459  23.202  0.00  0.00    +0.000 C 
ATOM     14  S   UNL     1      -1.010  11.177  21.545  0.00  0.00    +0.000 S 
ENDBRANCH   4  14
ENDBRANCH   1   9
BRANCH   1  15
ATOM     15  N   UNL     1       3.192   4.430  18.348  0.00  0.00    +0.000 N 
ATOM     16  C   UNL     1       2.482   3.849  17.185  0.00  0.00    +0.000 C 
ATOM     17  C   UNL     1       1.312   3.028  17.760  0.00  0.00    +0.000 C 
ATOM     18  C   UNL     1       1.552   3.091  19.234  0.00  0.00    +0.000 A 
ATOM     19  C   UNL     1       0.889   2.382  20.224  0.00  0.00    +0.000 A 
ATOM     20  C   UNL     1       1.265   2.594  21.551  0.00  0.00    +0.000 A 
ATOM     21  C   UNL     1       2.268   3.522  21.867  0.00  0.00    +0.000 A 
ATOM     22  C   UNL     1       2.933   4.229  20.859  0.00  0.00    +0.000 A 
ATOM     23  C   UNL     1       2.567   3.997  19.547  0.00  0.00    +0.000 A 
ENDBRANCH   1  15
TORSDOF 3
ENDMDL
MODEL 7
REMARK VINA RESULT:      -7.0      1.421      2.620
REMARK  Name = 
REMARK  4 active torsions:
REMARK  status: ('A' for Active; 'I' for Inactive)
REMARK    1  A    between atoms: C_1  and  S_2
REMARK    2  A    between atoms: S_2  and  C_3
REMARK    3  A    between atoms: C_8  and  S_9
REMARK    4  A    between atoms: S_9  and  N_12
REMARK                            x       y       z     vdW  Elec       q    Type
REMARK                         _______ _______ _______ _____ _____    ______ ____
ROOT
ATOM      1  S   UNL     1       3.078   3.491  17.790  0.00  0.00    +0.000 S 
ATOM      2  O   UNL     1       3.423   2.404  18.687  0.00  0.00    +0.000 OA
ATOM      3  O   UNL     1       2.101   3.300  16.741  0.00  0.00    +0.000 OA
ENDROOT
BRANCH   1   9
ATOM      4  C   UNL     1       1.136   9.054  20.378  0.00  0.00    +0.000 A 
ATOM      5  N   UNL     1       1.057   7.987  21.137  0.00  0.00    +0.000 NA
ATOM      6  C   UNL     1       1.517   6.884  20.445  0.00  0.00    +0.000 A 
ATOM      7  C   UNL     1       1.623   5.576  20.957  0.00  0.00    +0.000 A 
ATOM      8  C   UNL     1       2.111   4.548  20.145  0.00  0.00    +0.000 A 
ATOM      9  C   UNL     1       2.478   4.818  18.825  0.00  0.00    +0.000 A 
ATOM     10  C   UNL     1       2.420   6.115  18.303  0.00  0.00    +0.000 A 
ATOM     11  C   UNL     1       1.924   7.131  19.132  0.00  0.00    +0.000 A 
ATOM     12  S   UNL     1       1.714   8.804  18.786  0.00  0.00    +0.000 S 
BRANCH   4  14
ATOM     13  C   UNL     1      -0.115  10.187  22.520  0.00  0.00    +0.000 C 
ATOM     14  S   UNL     1       0.691  10.640  20.968  0.00  0.00    +0.000 S 
ENDBRANCH   4  14
ENDBRANCH   1   9
BRANCH   1  15
ATOM     15  N   UNL     1       4.487   4.094  17.130  0.00  0.00    +0.000 N 
ATOM     16  C   UNL     1       4.895   3.771  15.743  0.00  0.00    +0.000 C 
ATOM     17  C   UNL     1       6.417   3.995  15.678  0.00  0.00    +0.000 C 
ATOM     18  C   UNL     1       6.726   4.582  17.018  0.00  0.00    +0.000 A 
ATOM     19  C   UNL     1       7.929   5.129  17.438  0.00  0.00    +0.000 A 
ATOM     20  C   UNL     1       8.010   5.622  18.741  0.00  0.00    +0.000 A 
ATOM     21  C   UNL     1       6.908   5.536  19.604  0.00  0.00    +0.000 A 
ATOM     22  C   UNL     1       5.698   4.985  19.168  0.00  0.00    +0.000 A 
ATOM     23  C   UNL     1       5.622   4.519  17.869  0.00  0.00    +0.000 A 
ENDBRANCH   1  15
TORSDOF 3
ENDMDL
MODEL 8
REMARK VINA RESULT:      -6.7      3.101      7.127
REMARK  Name = 
REMARK  4 active torsions:
REMARK  status: ('A' for Active; 'I' for Inactive)
REMARK    1  A    between atoms: C_1  and  S_2
REMARK    2  A    between atoms: S_2  and  C_3
REMARK    3  A    between atoms: C_8  and  S_9
REMARK    4  A    between atoms: S_9  and  N_12
REMARK                            x       y       z     vdW  Elec       q    Type
REMARK                         _______ _______ _______ _____ _____    ______ ____
ROOT
ATOM      1  S   UNL     1       3.853   3.262  19.249  0.00  0.00    +0.000 S 
ATOM      2  O   UNL     1       2.820   2.562  18.506  0.00  0.00    +0.000 OA
ATOM      3  O   UNL     1       4.618   2.579  20.268  0.00  0.00    +0.000 OA
ENDROOT
BRANCH   1   9
ATOM      4  C   UNL     1       7.120   4.905  13.955  0.00  0.00    +0.000 A 
ATOM      5  N   UNL     1       7.647   5.246  15.106  0.00  0.00    +0.000 NA
ATOM      6  C   UNL     1       6.836   4.816  16.138  0.00  0.00    +0.000 A 
ATOM      7  C   UNL     1       7.106   4.964  17.514  0.00  0.00    +0.000 A 
ATOM      8  C   UNL     1       6.196   4.476  18.457  0.00  0.00    +0.000 A 
ATOM      9  C   UNL     1       5.018   3.859  18.034  0.00  0.00    +0.000 A 
ATOM     10  C   UNL     1       4.744   3.664  16.675  0.00  0.00    +0.000 A 
ATOM     11  C   UNL     1       5.667   4.163  15.746  0.00  0.00    +0.000 A 
ATOM     12  S   UNL     1       5.612   4.100  14.026  0.00  0.00    +0.000 S 
BRANCH   4  14
ATOM     13  C   UNL     1       7.166   3.982  11.389  0.00  0.00    +0.000 C 
ATOM     14  S   UNL     1       7.924   5.243  12.437  0.00  0.00    +0.000 S 
ENDBRANCH   4  14
ENDBRANCH   1   9
BRANCH   1  15
ATOM     15  N   UNL     1       3.187   4.649  19.893  0.00  0.00    +0.000 N 
ATOM     16  C   UNL     1       2.336   4.611  21.106  0.00  0.00    +0.000 C 
ATOM     17  C   UNL     1       1.478   5.890  21.070  0.00  0.00    +0.000 C 
ATOM     18  C   UNL     1       2.033   6.633  19.897  0.00  0.00    +0.000 A 
ATOM     19  C   UNL     1       1.738   7.931  19.509  0.00  0.00    +0.000 A 
ATOM     20  C   UNL     1       2.366   8.438  18.371  0.00  0.00    +0.000 A 
ATOM     21  C   UNL     1       3.249   7.638  17.630  0.00  0.00    +0.000 A 
ATOM     22  C   UNL     1       3.543   6.331  18.034  0.00  0.00    +0.000 A 
ATOM     23  C   UNL     1       2.931   5.846  19.174  0.00  0.00    +0.000 A 
ENDBRANCH   1  15
TORSDOF 3
ENDMDL
MODEL 9
REMARK VINA RESULT:      -6.7      3.762      8.441
REMARK  Name = 
REMARK  4 active torsions:
REMARK  status: ('A' for Active; 'I' for Inactive)
REMARK    1  A    between atoms: C_1  and  S_2
REMARK    2  A    between atoms: S_2  and  C_3
REMARK    3  A    between atoms: C_8  and  S_9
REMARK    4  A    between atoms: S_9  and  N_12
REMARK                            x       y       z     vdW  Elec       q    Type
REMARK                         _______ _______ _______ _____ _____    ______ ____
ROOT
ATOM      1  S   UNL     1       0.738  10.837  19.453  0.00  0.00    +0.000 S 
ATOM      2  O   UNL     1       0.716  10.972  20.898  0.00  0.00    +0.000 OA
ATOM      3  O   UNL     1       1.393  11.830  18.630  0.00  0.00    +0.000 OA
ENDROOT
BRANCH   1   9
ATOM      4  C   UNL     1       3.046   4.830  19.464  0.00  0.00    +0.000 A 
ATOM      5  N   UNL     1       3.308   5.564  18.409  0.00  0.00    +0.000 NA
ATOM      6  C   UNL     1       2.756   6.821  18.563  0.00  0.00    +0.000 A 
ATOM      7  C   UNL     1       2.873   7.889  17.652  0.00  0.00    +0.000 A 
ATOM      8  C   UNL     1       2.265   9.115  17.936  0.00  0.00    +0.000 A 
ATOM      9  C   UNL     1       1.531   9.273  19.112  0.00  0.00    +0.000 A 
ATOM     10  C   UNL     1       1.431   8.241  20.054  0.00  0.00    +0.000 A 
ATOM     11  C   UNL     1       2.045   7.019  19.749  0.00  0.00    +0.000 A 
ATOM     12  S   UNL     1       2.090   5.569  20.677  0.00  0.00    +0.000 S 
BRANCH   4  14
ATOM     13  C   UNL     1       2.791   2.684  21.127  0.00  0.00    +0.000 C 
ATOM     14  S   UNL     1       3.653   3.196  19.625  0.00  0.00    +0.000 S 
ENDBRANCH   4  14
ENDBRANCH   1   9
BRANCH   1  15
ATOM     15  N   UNL     1      -0.829  10.625  18.922  0.00  0.00    +0.000 N 
ATOM     16  C   UNL     1      -1.132   9.889  17.672  0.00  0.00    +0.000 C 
ATOM     17  C   UNL     1      -2.525  10.365  17.219  0.00  0.00    +0.000 C 
ATOM     18  C   UNL     1      -2.967  11.235  18.352  0.00  0.00    +0.000 A 
ATOM     19  C   UNL     1      -4.222  11.791  18.543  0.00  0.00    +0.000 A 
ATOM     20  C   UNL     1      -4.426  12.584  19.673  0.00  0.00    +0.000 A 
ATOM     21  C   UNL     1      -3.376  12.828  20.571  0.00  0.00    +0.000 A 
ATOM     22  C   UNL     1      -2.114  12.257  20.369  0.00  0.00    +0.000 A 
ATOM     23  C   UNL     1      -1.928  11.458  19.258  0.00  0.00    +0.000 A 
ENDBRANCH   1  15
TORSDOF 3
ENDMDL
