MODEL 1
REMARK VINA RESULT:      -8.2      0.000      0.000
REMARK  Name = 
REMARK  8 active torsions:
REMARK  status: ('A' for Active; 'I' for Inactive)
REMARK    1  A    between atoms: C_1  and  O_2
REMARK    2  A    between atoms: O_2  and  C_3
REMARK    3  A    between atoms: C_6  and  O_7
REMARK    4  A    between atoms: O_7  and  C_8
REMARK    5  A    between atoms: N_10  and  C_11
REMARK    6  A    between atoms: C_11  and  C_12
REMARK    7  A    between atoms: C_12  and  C_13
REMARK    8  A    between atoms: C_19  and  O_20
REMARK                            x       y       z     vdW  Elec       q    Type
REMARK                         _______ _______ _______ _____ _____    ______ ____
ROOT
ATOM      1  C   UNL     1       5.303   7.197  17.712  0.00  0.00    +0.000 C 
ENDROOT
BRANCH   1   4
ATOM      2  C   UNL     1       7.170   5.937  16.630  0.00  0.00    +0.000 C 
ATOM      3  O   UNL     1       7.746   5.629  17.676  0.00  0.00    +0.000 OA
ATOM      4  N   UNL     1       6.019   6.663  16.570  0.00  0.00    +0.000 N 
ATOM      5  H   UNL     1       5.676   6.882  15.642  0.00  0.00    +0.000 HD
BRANCH   2   6
ATOM      6  O   UNL     1       7.594   5.596  15.342  0.00  0.00    +0.000 OA
BRANCH   6  10
ATOM      7  C   UNL     1       5.726   3.394  12.248  0.00  0.00    +0.000 A 
ATOM      8  C   UNL     1       5.094   3.511  13.494  0.00  0.00    +0.000 A 
ATOM      9  C   UNL     1       5.666   4.257  14.532  0.00  0.00    +0.000 A 
ATOM     10  C   UNL     1       6.894   4.870  14.332  0.00  0.00    +0.000 A 
ATOM     11  C   UNL     1       7.529   4.779  13.085  0.00  0.00    +0.000 A 
ATOM     12  C   UNL     1       6.944   4.040  12.044  0.00  0.00    +0.000 A 
BRANCH   7  14
ATOM     13  C   UNL     1       3.823   3.071  10.844  0.00  0.00    +0.000 C 
ATOM     14  O   UNL     1       5.065   2.599  11.353  0.00  0.00    +0.000 OA
ENDBRANCH   7  14
ENDBRANCH   6  10
ENDBRANCH   2   6
ENDBRANCH   1   4
BRANCH   1  15
ATOM     15  C   UNL     1       3.785   7.346  17.558  0.00  0.00    +0.000 C 
BRANCH  15  16
ATOM     16  C   UNL     1       2.881   6.668  18.541  0.00  0.00    +0.000 A 
ATOM     17  C   UNL     1       2.285   7.385  19.557  0.00  0.00    +0.000 A 
ATOM     18  N   UNL     1       2.112   6.495  20.565  0.00  0.00    +0.000 N 
ATOM     19  C   UNL     1       1.877   5.261  20.014  0.00  0.00    +0.000 A 
ATOM     20  C   UNL     1       1.266   4.143  20.587  0.00  0.00    +0.000 A 
ATOM     21  C   UNL     1       1.178   2.997  19.806  0.00  0.00    +0.000 A 
ATOM     22  C   UNL     1       1.797   2.971  18.555  0.00  0.00    +0.000 A 
ATOM     23  C   UNL     1       2.482   4.073  18.025  0.00  0.00    +0.000 A 
ATOM     24  C   UNL     1       2.454   5.301  18.735  0.00  0.00    +0.000 A 
ATOM     25  H   UNL     1       2.123   6.706  21.552  0.00  0.00    +0.000 HD
BRANCH  22  26
ATOM     26  O   UNL     1       1.717   1.836  17.793  0.00  0.00    +0.000 OA
ATOM     27  H   UNL     1       1.896   2.077  16.867  0.00  0.00    +0.000 HD
ENDBRANCH  22  26
ENDBRANCH  15  16
ENDBRANCH   1  15
TORSDOF 7
ENDMDL
MODEL 2
REMARK VINA RESULT:      -7.7      5.139      8.744
REMARK  Name = 
REMARK  8 active torsions:
REMARK  status: ('A' for Active; 'I' for Inactive)
REMARK    1  A    between atoms: C_1  and  O_2
REMARK    2  A    between atoms: O_2  and  C_3
REMARK    3  A    between atoms: C_6  and  O_7
REMARK    4  A    between atoms: O_7  and  C_8
REMARK    5  A    between atoms: N_10  and  C_11
REMARK    6  A    between atoms: C_11  and  C_12
REMARK    7  A    between atoms: C_12  and  C_13
REMARK    8  A    between atoms: C_19  and  O_20
REMARK                            x       y       z     vdW  Elec       q    Type
REMARK                         _______ _______ _______ _____ _____    ______ ____
ROOT
ATOM      1  C   UNL     1       8.113   8.281  17.776  0.00  0.00    +0.000 C 
ENDROOT
BRANCH   1   4
ATOM      2  C   UNL     1       6.754   6.386  16.877  0.00  0.00    +0.000 C 
ATOM      3  O   UNL     1       7.690   5.591  16.771  0.00  0.00    +0.000 OA
ATOM      4  N   UNL     1       6.875   7.659  17.347  0.00  0.00    +0.000 N 
ATOM      5  H   UNL     1       6.032   8.220  17.340  0.00  0.00    +0.000 HD
BRANCH   2   6
ATOM      6  O   UNL     1       5.423   6.120  16.541  0.00  0.00    +0.000 OA
BRANCH   6  10
ATOM      7  C   UNL     1       2.634   3.717  18.629  0.00  0.00    +0.000 A 
ATOM      8  C   UNL     1       2.884   5.026  19.064  0.00  0.00    +0.000 A 
ATOM      9  C   UNL     1       3.776   5.863  18.382  0.00  0.00    +0.000 A 
ATOM     10  C   UNL     1       4.446   5.376  17.268  0.00  0.00    +0.000 A 
ATOM     11  C   UNL     1       4.193   4.076  16.808  0.00  0.00    +0.000 A 
ATOM     12  C   UNL     1       3.287   3.247  17.490  0.00  0.00    +0.000 A 
BRANCH   7  14
ATOM     13  C   UNL     1       0.816   3.751  20.174  0.00  0.00    +0.000 C 
ATOM     14  O   UNL     1       1.773   3.013  19.423  0.00  0.00    +0.000 OA
ENDBRANCH   7  14
ENDBRANCH   6  10
ENDBRANCH   2   6
ENDBRANCH   1   4
BRANCH   1  15
ATOM     15  C   UNL     1       8.139   9.814  17.786  0.00  0.00    +0.000 C 
BRANCH  15  16
ATOM     16  C   UNL     1       9.168  10.521  18.613  0.00  0.00    +0.000 A 
ATOM     17  C   UNL     1       9.336  10.206  19.945  0.00  0.00    +0.000 A 
ATOM     18  N   UNL     1       9.790  11.346  20.524  0.00  0.00    +0.000 N 
ATOM     19  C   UNL     1      10.555  12.019  19.607  0.00  0.00    +0.000 A 
ATOM     20  C   UNL     1      11.532  12.995  19.822  0.00  0.00    +0.000 A 
ATOM     21  C   UNL     1      12.146  13.538  18.701  0.00  0.00    +0.000 A 
ATOM     22  C   UNL     1      11.687  13.186  17.430  0.00  0.00    +0.000 A 
ATOM     23  C   UNL     1      10.647  12.269  17.228  0.00  0.00    +0.000 A 
ATOM     24  C   UNL     1      10.110  11.585  18.349  0.00  0.00    +0.000 A 
ATOM     25  H   UNL     1       9.619  11.637  21.475  0.00  0.00    +0.000 HD
BRANCH  22  26
ATOM     26  O   UNL     1      12.287  13.732  16.328  0.00  0.00    +0.000 OA
ATOM     27  H   UNL     1      11.773  13.478  15.542  0.00  0.00    +0.000 HD
ENDBRANCH  22  26
ENDBRANCH  15  16
ENDBRANCH   1  15
TORSDOF 7
ENDMDL
MODEL 3
REMARK VINA RESULT:      -7.6      5.294      9.091
REMARK  Name = 
REMARK  8 active torsions:
REMARK  status: ('A' for Active; 'I' for Inactive)
REMARK    1  A    between atoms: C_1  and  O_2
REMARK    2  A    between atoms: O_2  and  C_3
REMARK    3  A    between atoms: C_6  and  O_7
REMARK    4  A    between atoms: O_7  and  C_8
REMARK    5  A    between atoms: N_10  and  C_11
REMARK    6  A    between atoms: C_11  and  C_12
REMARK    7  A    between atoms: C_12  and  C_13
REMARK    8  A    between atoms: C_19  and  O_20
REMARK                            x       y       z     vdW  Elec       q    Type
REMARK                         _______ _______ _______ _____ _____    ______ ____
ROOT
ATOM      1  C   UNL     1       8.183   8.401  17.798  0.00  0.00    +0.000 C 
ENDROOT
BRANCH   1   4
ATOM      2  C   UNL     1       6.708   6.712  16.695  0.00  0.00    +0.000 C 
ATOM      3  O   UNL     1       7.608   6.123  16.092  0.00  0.00    +0.000 OA
ATOM      4  N   UNL     1       6.903   7.781  17.516  0.00  0.00    +0.000 N 
ATOM      5  H   UNL     1       6.069   8.197  17.914  0.00  0.00    +0.000 HD
BRANCH   2   6
ATOM      6  O   UNL     1       5.349   6.386  16.641  0.00  0.00    +0.000 OA
BRANCH   6  10
ATOM      7  C   UNL     1       2.522   5.673  19.710  0.00  0.00    +0.000 A 
ATOM      8  C   UNL     1       3.595   4.787  19.535  0.00  0.00    +0.000 A 
ATOM      9  C   UNL     1       4.567   5.005  18.552  0.00  0.00    +0.000 A 
ATOM     10  C   UNL     1       4.452   6.107  17.716  0.00  0.00    +0.000 A 
ATOM     11  C   UNL     1       3.397   7.013  17.889  0.00  0.00    +0.000 A 
ATOM     12  C   UNL     1       2.432   6.795  18.887  0.00  0.00    +0.000 A 
BRANCH   7  14
ATOM     13  C   UNL     1       1.079   3.994  20.601  0.00  0.00    +0.000 C 
ATOM     14  O   UNL     1       1.635   5.302  20.680  0.00  0.00    +0.000 OA
ENDBRANCH   7  14
ENDBRANCH   6  10
ENDBRANCH   2   6
ENDBRANCH   1   4
BRANCH   1  15
ATOM     15  C   UNL     1       8.218   9.933  17.783  0.00  0.00    +0.000 C 
BRANCH  15  16
ATOM     16  C   UNL     1       9.238  10.649  18.615  0.00  0.00    +0.000 A 
ATOM     17  C   UNL     1       9.410  10.327  19.945  0.00  0.00    +0.000 A 
ATOM     18  N   UNL     1       9.848  11.469  20.531  0.00  0.00    +0.000 N 
ATOM     19  C   UNL     1      10.606  12.158  19.619  0.00  0.00    +0.000 A 
ATOM     20  C   UNL     1      11.570  13.144  19.841  0.00  0.00    +0.000 A 
ATOM     21  C   UNL     1      12.177  13.702  18.723  0.00  0.00    +0.000 A 
ATOM     22  C   UNL     1      11.723  13.352  17.450  0.00  0.00    +0.000 A 
ATOM     23  C   UNL     1      10.695  12.423  17.241  0.00  0.00    +0.000 A 
ATOM     24  C   UNL     1      10.166  11.726  18.358  0.00  0.00    +0.000 A 
ATOM     25  H   UNL     1       9.674  11.752  21.484  0.00  0.00    +0.000 HD
BRANCH  22  26
ATOM     26  O   UNL     1      12.317  13.913  16.351  0.00  0.00    +0.000 OA
ATOM     27  H   UNL     1      13.022  13.315  16.047  0.00  0.00    +0.000 HD
ENDBRANCH  22  26
ENDBRANCH  15  16
ENDBRANCH   1  15
TORSDOF 7
ENDMDL
MODEL 4
REMARK VINA RESULT:      -7.6      3.460      7.644
REMARK  Name = 
REMARK  8 active torsions:
REMARK  status: ('A' for Active; 'I' for Inactive)
REMARK    1  A    between atoms: C_1  and  O_2
REMARK    2  A    between atoms: O_2  and  C_3
REMARK    3  A    between atoms: C_6  and  O_7
REMARK    4  A    between atoms: O_7  and  C_8
REMARK    5  A    between atoms: N_10  and  C_11
REMARK    6  A    between atoms: C_11  and  C_12
REMARK    7  A    between atoms: C_12  and  C_13
REMARK    8  A    between atoms: C_19  and  O_20
REMARK                            x       y       z     vdW  Elec       q    Type
REMARK                         _______ _______ _______ _____ _____    ______ ____
ROOT
ATOM      1  C   UNL     1       1.431   3.886  18.179  0.00  0.00    +0.000 C 
ENDROOT
BRANCH   1   4
ATOM      2  C   UNL     1       2.161   5.656  19.786  0.00  0.00    +0.000 C 
ATOM      3  O   UNL     1       2.056   4.966  20.801  0.00  0.00    +0.000 OA
ATOM      4  N   UNL     1       1.894   5.217  18.524  0.00  0.00    +0.000 N 
ATOM      5  H   UNL     1       1.981   5.903  17.784  0.00  0.00    +0.000 HD
BRANCH   2   6
ATOM      6  O   UNL     1       2.572   6.993  19.754  0.00  0.00    +0.000 OA
BRANCH   6  10
ATOM      7  C   UNL     1       0.176  10.462  19.378  0.00  0.00    +0.000 A 
ATOM      8  C   UNL     1       0.240   9.793  20.608  0.00  0.00    +0.000 A 
ATOM      9  C   UNL     1       1.045   8.660  20.781  0.00  0.00    +0.000 A 
ATOM     10  C   UNL     1       1.774   8.175  19.704  0.00  0.00    +0.000 A 
ATOM     11  C   UNL     1       1.738   8.843  18.473  0.00  0.00    +0.000 A 
ATOM     12  C   UNL     1       0.938   9.987  18.310  0.00  0.00    +0.000 A 
BRANCH   7  14
ATOM     13  C   UNL     1      -1.792  11.454  18.465  0.00  0.00    +0.000 C 
ATOM     14  O   UNL     1      -0.684  11.523  19.355  0.00  0.00    +0.000 OA
ENDBRANCH   7  14
ENDBRANCH   6  10
ENDBRANCH   2   6
ENDBRANCH   1   4
BRANCH   1  15
ATOM     15  C   UNL     1       2.489   2.912  17.648  0.00  0.00    +0.000 C 
BRANCH  15  16
ATOM     16  C   UNL     1       3.939   3.218  17.869  0.00  0.00    +0.000 A 
ATOM     17  C   UNL     1       4.538   2.945  19.081  0.00  0.00    +0.000 A 
ATOM     18  N   UNL     1       5.537   3.855  19.196  0.00  0.00    +0.000 N 
ATOM     19  C   UNL     1       6.020   4.125  17.941  0.00  0.00    +0.000 A 
ATOM     20  C   UNL     1       7.256   4.660  17.570  0.00  0.00    +0.000 A 
ATOM     21  C   UNL     1       7.482   4.856  16.213  0.00  0.00    +0.000 A 
ATOM     22  C   UNL     1       6.445   4.631  15.306  0.00  0.00    +0.000 A 
ATOM     23  C   UNL     1       5.180   4.174  15.700  0.00  0.00    +0.000 A 
ATOM     24  C   UNL     1       4.973   3.820  17.057  0.00  0.00    +0.000 A 
ATOM     25  H   UNL     1       5.886   4.247  20.058  0.00  0.00    +0.000 HD
BRANCH  22  26
ATOM     26  O   UNL     1       6.669   4.835  13.971  0.00  0.00    +0.000 OA
ATOM     27  H   UNL     1       6.765   3.967  13.541  0.00  0.00    +0.000 HD
ENDBRANCH  22  26
ENDBRANCH  15  16
ENDBRANCH   1  15
TORSDOF 7
ENDMDL
MODEL 5
REMARK VINA RESULT:      -7.5      4.438      7.071
REMARK  Name = 
REMARK  8 active torsions:
REMARK  status: ('A' for Active; 'I' for Inactive)
REMARK    1  A    between atoms: C_1  and  O_2
REMARK    2  A    between atoms: O_2  and  C_3
REMARK    3  A    between atoms: C_6  and  O_7
REMARK    4  A    between atoms: O_7  and  C_8
REMARK    5  A    between atoms: N_10  and  C_11
REMARK    6  A    between atoms: C_11  and  C_12
REMARK    7  A    between atoms: C_12  and  C_13
REMARK    8  A    between atoms: C_19  and  O_20
REMARK                            x       y       z     vdW  Elec       q    Type
REMARK                         _______ _______ _______ _____ _____    ______ ____
ROOT
ATOM      1  C   UNL     1       6.979   6.182  16.823  0.00  0.00    +0.000 C 
ENDROOT
BRANCH   1   4
ATOM      2  C   UNL     1       8.058   8.112  17.987  0.00  0.00    +0.000 C 
ATOM      3  O   UNL     1       8.561   7.453  18.899  0.00  0.00    +0.000 OA
ATOM      4  N   UNL     1       7.312   7.585  16.977  0.00  0.00    +0.000 N 
ATOM      5  H   UNL     1       6.922   8.247  16.316  0.00  0.00    +0.000 HD
BRANCH   2   6
ATOM      6  O   UNL     1       8.168   9.498  17.833  0.00  0.00    +0.000 OA
BRANCH   6  10
ATOM      7  C   UNL     1      10.788  12.327  19.579  0.00  0.00    +0.000 A 
ATOM      8  C   UNL     1      10.053  11.462  20.402  0.00  0.00    +0.000 A 
ATOM      9  C   UNL     1       9.199  10.493  19.862  0.00  0.00    +0.000 A 
ATOM     10  C   UNL     1       9.059  10.404  18.484  0.00  0.00    +0.000 A 
ATOM     11  C   UNL     1       9.802  11.246  17.646  0.00  0.00    +0.000 A 
ATOM     12  C   UNL     1      10.667  12.208  18.195  0.00  0.00    +0.000 A 
BRANCH   7  14
ATOM     13  C   UNL     1      10.936  14.490  20.574  0.00  0.00    +0.000 C 
ATOM     14  O   UNL     1      11.543  13.244  20.254  0.00  0.00    +0.000 OA
ENDBRANCH   7  14
ENDBRANCH   6  10
ENDBRANCH   2   6
ENDBRANCH   1   4
BRANCH   1  15
ATOM     15  C   UNL     1       5.613   5.869  16.202  0.00  0.00    +0.000 C 
BRANCH  15  16
ATOM     16  C   UNL     1       4.395   5.882  17.074  0.00  0.00    +0.000 A 
ATOM     17  C   UNL     1       3.842   7.076  17.489  0.00  0.00    +0.000 A 
ATOM     18  N   UNL     1       3.251   6.797  18.678  0.00  0.00    +0.000 N 
ATOM     19  C   UNL     1       2.794   5.505  18.640  0.00  0.00    +0.000 A 
ATOM     20  C   UNL     1       1.808   4.897  19.420  0.00  0.00    +0.000 A 
ATOM     21  C   UNL     1       1.554   3.551  19.188  0.00  0.00    +0.000 A 
ATOM     22  C   UNL     1       2.360   2.846  18.292  0.00  0.00    +0.000 A 
ATOM     23  C   UNL     1       3.403   3.449  17.577  0.00  0.00    +0.000 A 
ATOM     24  C   UNL     1       3.583   4.852  17.680  0.00  0.00    +0.000 A 
ATOM     25  H   UNL     1       3.140   7.439  19.450  0.00  0.00    +0.000 HD
BRANCH  22  26
ATOM     26  O   UNL     1       2.113   1.518  18.075  0.00  0.00    +0.000 OA
ATOM     27  H   UNL     1       2.319   1.031  18.892  0.00  0.00    +0.000 HD
ENDBRANCH  22  26
ENDBRANCH  15  16
ENDBRANCH   1  15
TORSDOF 7
ENDMDL
MODEL 6
REMARK VINA RESULT:      -7.5      3.433      7.762
REMARK  Name = 
REMARK  8 active torsions:
REMARK  status: ('A' for Active; 'I' for Inactive)
REMARK    1  A    between atoms: C_1  and  O_2
REMARK    2  A    between atoms: O_2  and  C_3
REMARK    3  A    between atoms: C_6  and  O_7
REMARK    4  A    between atoms: O_7  and  C_8
REMARK    5  A    between atoms: N_10  and  C_11
REMARK    6  A    between atoms: C_11  and  C_12
REMARK    7  A    between atoms: C_12  and  C_13
REMARK    8  A    between atoms: C_19  and  O_20
REMARK                            x       y       z     vdW  Elec       q    Type
REMARK                         _______ _______ _______ _____ _____    ______ ____
ROOT
ATOM      1  C   UNL     1       1.463   4.043  17.742  0.00  0.00    +0.000 C 
ENDROOT
BRANCH   1   4
ATOM      2  C   UNL     1       2.066   5.576  19.621  0.00  0.00    +0.000 C 
ATOM      3  O   UNL     1       1.799   4.786  20.529  0.00  0.00    +0.000 OA
ATOM      4  N   UNL     1       1.941   5.296  18.294  0.00  0.00    +0.000 N 
ATOM      5  H   UNL     1       2.154   6.053  17.655  0.00  0.00    +0.000 HD
BRANCH   2   6
ATOM      6  O   UNL     1       2.541   6.880  19.797  0.00  0.00    +0.000 OA
BRANCH   6  10
ATOM      7  C   UNL     1       0.511  10.585  19.535  0.00  0.00    +0.000 A 
ATOM      8  C   UNL     1       1.174  10.076  18.409  0.00  0.00    +0.000 A 
ATOM      9  C   UNL     1       1.831   8.840  18.447  0.00  0.00    +0.000 A 
ATOM     10  C   UNL     1       1.848   8.116  19.631  0.00  0.00    +0.000 A 
ATOM     11  C   UNL     1       1.173   8.601  20.760  0.00  0.00    +0.000 A 
ATOM     12  C   UNL     1       0.505   9.836  20.711  0.00  0.00    +0.000 A 
BRANCH   7  14
ATOM     13  C   UNL     1      -1.247  12.112  20.056  0.00  0.00    +0.000 C 
ATOM     14  O   UNL     1      -0.044  11.820  19.353  0.00  0.00    +0.000 OA
ENDBRANCH   7  14
ENDBRANCH   6  10
ENDBRANCH   2   6
ENDBRANCH   1   4
BRANCH   1  15
ATOM     15  C   UNL     1       2.510   2.942  17.541  0.00  0.00    +0.000 C 
BRANCH  15  16
ATOM     16  C   UNL     1       3.949   3.243  17.827  0.00  0.00    +0.000 A 
ATOM     17  C   UNL     1       4.522   2.863  19.023  0.00  0.00    +0.000 A 
ATOM     18  N   UNL     1       5.504   3.771  19.249  0.00  0.00    +0.000 N 
ATOM     19  C   UNL     1       6.015   4.163  18.038  0.00  0.00    +0.000 A 
ATOM     20  C   UNL     1       7.252   4.746  17.751  0.00  0.00    +0.000 A 
ATOM     21  C   UNL     1       7.508   5.072  16.425  0.00  0.00    +0.000 A 
ATOM     22  C   UNL     1       6.498   4.921  15.474  0.00  0.00    +0.000 A 
ATOM     23  C   UNL     1       5.230   4.414  15.790  0.00  0.00    +0.000 A 
ATOM     24  C   UNL     1       4.994   3.931  17.103  0.00  0.00    +0.000 A 
ATOM     25  H   UNL     1       5.827   4.083  20.153  0.00  0.00    +0.000 HD
BRANCH  22  26
ATOM     26  O   UNL     1       6.752   5.253  14.171  0.00  0.00    +0.000 OA
ATOM     27  H   UNL     1       7.298   6.059  14.162  0.00  0.00    +0.000 HD
ENDBRANCH  22  26
ENDBRANCH  15  16
ENDBRANCH   1  15
TORSDOF 7
ENDMDL
MODEL 7
REMARK VINA RESULT:      -7.5      1.405      1.889
REMARK  Name = 
REMARK  8 active torsions:
REMARK  status: ('A' for Active; 'I' for Inactive)
REMARK    1  A    between atoms: C_1  and  O_2
REMARK    2  A    between atoms: O_2  and  C_3
REMARK    3  A    between atoms: C_6  and  O_7
REMARK    4  A    between atoms: O_7  and  C_8
REMARK    5  A    between atoms: N_10  and  C_11
REMARK    6  A    between atoms: C_11  and  C_12
REMARK    7  A    between atoms: C_12  and  C_13
REMARK    8  A    between atoms: C_19  and  O_20
REMARK                            x       y       z     vdW  Elec       q    Type
REMARK                         _______ _______ _______ _____ _____    ______ ____
ROOT
ATOM      1  C   UNL     1       4.887   7.503  17.031  0.00  0.00    +0.000 C 
ENDROOT
BRANCH   1   4
ATOM      2  C   UNL     1       7.087   6.406  16.577  0.00  0.00    +0.000 C 
ATOM      3  O   UNL     1       7.605   6.695  17.658  0.00  0.00    +0.000 OA
ATOM      4  N   UNL     1       5.817   6.744  16.217  0.00  0.00    +0.000 N 
ATOM      5  H   UNL     1       5.533   6.480  15.281  0.00  0.00    +0.000 HD
BRANCH   2   6
ATOM      6  O   UNL     1       7.705   5.688  15.549  0.00  0.00    +0.000 OA
BRANCH   6  10
ATOM      7  C   UNL     1       5.723   3.430  12.567  0.00  0.00    +0.000 A 
ATOM      8  C   UNL     1       6.861   4.177  12.230  0.00  0.00    +0.000 A 
ATOM      9  C   UNL     1       7.562   4.912  13.194  0.00  0.00    +0.000 A 
ATOM     10  C   UNL     1       7.105   4.922  14.505  0.00  0.00    +0.000 A 
ATOM     11  C   UNL     1       5.981   4.165  14.863  0.00  0.00    +0.000 A 
ATOM     12  C   UNL     1       5.290   3.419  13.893  0.00  0.00    +0.000 A 
BRANCH   7  14
ATOM     13  C   UNL     1       3.820   3.230  11.142  0.00  0.00    +0.000 C 
ATOM     14  O   UNL     1       5.126   2.803  11.510  0.00  0.00    +0.000 OA
ENDBRANCH   7  14
ENDBRANCH   6  10
ENDBRANCH   2   6
ENDBRANCH   1   4
BRANCH   1  15
ATOM     15  C   UNL     1       3.660   6.746  17.550  0.00  0.00    +0.000 C 
BRANCH  15  16
ATOM     16  C   UNL     1       3.858   5.506  18.367  0.00  0.00    +0.000 A 
ATOM     17  C   UNL     1       4.932   5.395  19.226  0.00  0.00    +0.000 A 
ATOM     18  N   UNL     1       5.199   4.067  19.288  0.00  0.00    +0.000 N 
ATOM     19  C   UNL     1       4.018   3.383  19.157  0.00  0.00    +0.000 A 
ATOM     20  C   UNL     1       3.710   2.075  19.540  0.00  0.00    +0.000 A 
ATOM     21  C   UNL     1       2.428   1.617  19.264  0.00  0.00    +0.000 A 
ATOM     22  C   UNL     1       1.558   2.419  18.524  0.00  0.00    +0.000 A 
ATOM     23  C   UNL     1       1.908   3.699  18.072  0.00  0.00    +0.000 A 
ATOM     24  C   UNL     1       3.152   4.249  18.472  0.00  0.00    +0.000 A 
ATOM     25  H   UNL     1       6.107   3.651  19.436  0.00  0.00    +0.000 HD
BRANCH  22  26
ATOM     26  O   UNL     1       0.300   1.959  18.246  0.00  0.00    +0.000 OA
ATOM     27  H   UNL     1      -0.110   2.562  17.600  0.00  0.00    +0.000 HD
ENDBRANCH  22  26
ENDBRANCH  15  16
ENDBRANCH   1  15
TORSDOF 7
ENDMDL
MODEL 8
REMARK VINA RESULT:      -7.4      3.477      7.421
REMARK  Name = 
REMARK  8 active torsions:
REMARK  status: ('A' for Active; 'I' for Inactive)
REMARK    1  A    between atoms: C_1  and  O_2
REMARK    2  A    between atoms: O_2  and  C_3
REMARK    3  A    between atoms: C_6  and  O_7
REMARK    4  A    between atoms: O_7  and  C_8
REMARK    5  A    between atoms: N_10  and  C_11
REMARK    6  A    between atoms: C_11  and  C_12
REMARK    7  A    between atoms: C_12  and  C_13
REMARK    8  A    between atoms: C_19  and  O_20
REMARK                            x       y       z     vdW  Elec       q    Type
REMARK                         _______ _______ _______ _____ _____    ______ ____
ROOT
ATOM      1  C   UNL     1       3.346   2.493  19.231  0.00  0.00    +0.000 C 
ENDROOT
BRANCH   1   4
ATOM      2  C   UNL     1       1.745   4.122  20.244  0.00  0.00    +0.000 C 
ATOM      3  O   UNL     1       0.726   3.468  20.015  0.00  0.00    +0.000 OA
ATOM      4  N   UNL     1       3.005   3.726  19.914  0.00  0.00    +0.000 N 
ATOM      5  H   UNL     1       3.749   4.381  20.123  0.00  0.00    +0.000 HD
BRANCH   2   6
ATOM      6  O   UNL     1       1.782   5.367  20.880  0.00  0.00    +0.000 OA
BRANCH   6  10
ATOM      7  C   UNL     1       1.751   9.132  18.947  0.00  0.00    +0.000 A 
ATOM      8  C   UNL     1       1.166   8.999  20.214  0.00  0.00    +0.000 A 
ATOM      9  C   UNL     1       1.183   7.777  20.899  0.00  0.00    +0.000 A 
ATOM     10  C   UNL     1       1.768   6.671  20.299  0.00  0.00    +0.000 A 
ATOM     11  C   UNL     1       2.375   6.792  19.042  0.00  0.00    +0.000 A 
ATOM     12  C   UNL     1       2.366   8.024  18.366  0.00  0.00    +0.000 A 
BRANCH   7  14
ATOM     13  C   UNL     1       0.804  11.319  19.077  0.00  0.00    +0.000 C 
ATOM     14  O   UNL     1       1.615  10.373  18.390  0.00  0.00    +0.000 OA
ENDBRANCH   7  14
ENDBRANCH   6  10
ENDBRANCH   2   6
ENDBRANCH   1   4
BRANCH   1  15
ATOM     15  C   UNL     1       3.875   2.629  17.799  0.00  0.00    +0.000 C 
BRANCH  15  16
ATOM     16  C   UNL     1       4.627   3.867  17.413  0.00  0.00    +0.000 A 
ATOM     17  C   UNL     1       4.302   4.557  16.264  0.00  0.00    +0.000 A 
ATOM     18  N   UNL     1       5.456   5.147  15.867  0.00  0.00    +0.000 N 
ATOM     19  C   UNL     1       6.186   5.461  16.985  0.00  0.00    +0.000 A 
ATOM     20  C   UNL     1       7.212   6.398  17.132  0.00  0.00    +0.000 A 
ATOM     21  C   UNL     1       7.806   6.498  18.384  0.00  0.00    +0.000 A 
ATOM     22  C   UNL     1       7.448   5.596  19.387  0.00  0.00    +0.000 A 
ATOM     23  C   UNL     1       6.476   4.604  19.201  0.00  0.00    +0.000 A 
ATOM     24  C   UNL     1       5.747   4.580  17.985  0.00  0.00    +0.000 A 
ATOM     25  H   UNL     1       5.723   5.348  14.915  0.00  0.00    +0.000 HD
BRANCH  22  26
ATOM     26  O   UNL     1       8.044   5.692  20.615  0.00  0.00    +0.000 OA
ATOM     27  H   UNL     1       8.374   6.601  20.725  0.00  0.00    +0.000 HD
ENDBRANCH  22  26
ENDBRANCH  15  16
ENDBRANCH   1  15
TORSDOF 7
ENDMDL
MODEL 9
REMARK VINA RESULT:      -7.4      3.030      7.968
REMARK  Name = 
REMARK  8 active torsions:
REMARK  status: ('A' for Active; 'I' for Inactive)
REMARK    1  A    between atoms: C_1  and  O_2
REMARK    2  A    between atoms: O_2  and  C_3
REMARK    3  A    between atoms: C_6  and  O_7
REMARK    4  A    between atoms: O_7  and  C_8
REMARK    5  A    between atoms: N_10  and  C_11
REMARK    6  A    between atoms: C_11  and  C_12
REMARK    7  A    between atoms: C_12  and  C_13
REMARK    8  A    between atoms: C_19  and  O_20
REMARK                            x       y       z     vdW  Elec       q    Type
REMARK                         _______ _______ _______ _____ _____    ______ ____
ROOT
ATOM      1  C   UNL     1       4.785   4.227  18.365  0.00  0.00    +0.000 C 
ENDROOT
BRANCH   1   4
ATOM      2  C   UNL     1       2.840   5.454  19.345  0.00  0.00    +0.000 C 
ATOM      3  O   UNL     1       1.970   4.708  18.891  0.00  0.00    +0.000 OA
ATOM      4  N   UNL     1       4.177   5.287  19.147  0.00  0.00    +0.000 N 
ATOM      5  H   UNL     1       4.780   6.000  19.541  0.00  0.00    +0.000 HD
BRANCH   2   6
ATOM      6  O   UNL     1       2.606   6.584  20.135  0.00  0.00    +0.000 OA
BRANCH   6  10
ATOM      7  C   UNL     1       0.672  10.129  18.867  0.00  0.00    +0.000 A 
ATOM      8  C   UNL     1       0.574   9.727  20.206  0.00  0.00    +0.000 A 
ATOM      9  C   UNL     1       1.225   8.577  20.671  0.00  0.00    +0.000 A 
ATOM     10  C   UNL     1       1.959   7.807  19.781  0.00  0.00    +0.000 A 
ATOM     11  C   UNL     1       2.084   8.205  18.443  0.00  0.00    +0.000 A 
ATOM     12  C   UNL     1       1.439   9.367  17.987  0.00  0.00    +0.000 A 
BRANCH   7  14
ATOM     13  C   UNL     1       0.580  12.509  18.724  0.00  0.00    +0.000 C 
ATOM     14  O   UNL     1      -0.053  11.246  18.558  0.00  0.00    +0.000 OA
ENDBRANCH   7  14
ENDBRANCH   6  10
ENDBRANCH   2   6
ENDBRANCH   1   4
BRANCH   1  15
ATOM     15  C   UNL     1       4.523   4.257  16.856  0.00  0.00    +0.000 C 
BRANCH  15  16
ATOM     16  C   UNL     1       5.677   4.444  15.918  0.00  0.00    +0.000 A 
ATOM     17  C   UNL     1       6.850   5.023  16.356  0.00  0.00    +0.000 A 
ATOM     18  N   UNL     1       7.381   5.619  15.260  0.00  0.00    +0.000 N 
ATOM     19  C   UNL     1       7.047   4.873  14.159  0.00  0.00    +0.000 A 
ATOM     20  C   UNL     1       7.656   4.836  12.902  0.00  0.00    +0.000 A 
ATOM     21  C   UNL     1       7.094   3.999  11.947  0.00  0.00    +0.000 A 
ATOM     22  C   UNL     1       5.899   3.337  12.235  0.00  0.00    +0.000 A 
ATOM     23  C   UNL     1       5.250   3.448  13.472  0.00  0.00    +0.000 A 
ATOM     24  C   UNL     1       5.884   4.172  14.514  0.00  0.00    +0.000 A 
ATOM     25  H   UNL     1       7.949   6.453  15.255  0.00  0.00    +0.000 HD
BRANCH  22  26
ATOM     26  O   UNL     1       5.342   2.522  11.287  0.00  0.00    +0.000 OA
ATOM     27  H   UNL     1       5.575   1.601  11.501  0.00  0.00    +0.000 HD
ENDBRANCH  22  26
ENDBRANCH  15  16
ENDBRANCH   1  15
TORSDOF 7
ENDMDL
