MODEL 1
REMARK VINA RESULT:      -8.8      0.000      0.000
REMARK  Name = 
REMARK  3 active torsions:
REMARK  status: ('A' for Active; 'I' for Inactive)
REMARK    1  A    between atoms: C_4  and  C_5
REMARK    2  A    between atoms: C_12  and  C_13
REMARK    3  A    between atoms: N_18  and  C_19
REMARK                            x       y       z     vdW  Elec       q    Type
REMARK                         _______ _______ _______ _____ _____    ______ ____
ROOT
ATOM      1  O   UNL     1       4.330   6.749  17.572  0.00  0.00    +0.000 OA
ATOM      2  C   UNL     1       3.749   6.091  18.413  0.00  0.00    +0.000 C 
ATOM      3  C   UNL     1       3.893   4.631  18.645  0.00  0.00    +0.000 C 
ATOM      4  C   UNL     1       4.596   3.775  17.894  0.00  0.00    +0.000 C 
ATOM      5  C   UNL     1       3.047   4.359  19.827  0.00  0.00    +0.000 C 
ATOM      6  N   UNL     1       2.424   5.442  20.234  0.00  0.00    +0.000 NA
ATOM      7  N   UNL     1       2.801   6.467  19.374  0.00  0.00    +0.000 N 
ENDROOT
BRANCH   4   8
ATOM      8  C   UNL     1       5.389   4.178  16.727  0.00  0.00    +0.000 A 
ATOM      9  C   UNL     1       4.821   4.103  15.450  0.00  0.00    +0.000 A 
ATOM     10  C   UNL     1       5.582   4.415  14.321  0.00  0.00    +0.000 A 
ATOM     11  C   UNL     1       6.911   4.807  14.473  0.00  0.00    +0.000 A 
ATOM     12 CL   UNL     1       7.856   5.167  13.080  0.00  0.00    +0.000 Cl
ATOM     13  C   UNL     1       7.483   4.896  15.740  0.00  0.00    +0.000 A 
ATOM     14  C   UNL     1       6.722   4.585  16.870  0.00  0.00    +0.000 A 
ENDBRANCH   4   8
BRANCH   7  15
ATOM     15  C   UNL     1       2.090   7.691  19.422  0.00  0.00    +0.000 A 
ATOM     16  C   UNL     1       1.887   8.457  18.263  0.00  0.00    +0.000 A 
ATOM     17  C   UNL     1       1.102   9.612  18.291  0.00  0.00    +0.000 A 
ATOM     18  C   UNL     1       0.530  10.038  19.485  0.00  0.00    +0.000 A 
ATOM     19  C   UNL     1       0.744   9.306  20.650  0.00  0.00    +0.000 A 
ATOM     20  C   UNL     1       1.513   8.138  20.619  0.00  0.00    +0.000 A 
ENDBRANCH   7  15
BRANCH   5  21
ATOM     21  C   UNL     1       2.900   3.013  20.487  0.00  0.00    +0.000 C 
ATOM     22  F   UNL     1       4.080   2.428  20.830  0.00  0.00    +0.000 F 
ATOM     23  F   UNL     1       2.172   3.084  21.634  0.00  0.00    +0.000 F 
ATOM     24  F   UNL     1       2.264   2.119  19.681  0.00  0.00    +0.000 F 
ENDBRANCH   5  21
TORSDOF 3
ENDMDL
MODEL 2
REMARK VINA RESULT:      -8.7      0.163      1.001
REMARK  Name = 
REMARK  3 active torsions:
REMARK  status: ('A' for Active; 'I' for Inactive)
REMARK    1  A    between atoms: C_4  and  C_5
REMARK    2  A    between atoms: C_12  and  C_13
REMARK    3  A    between atoms: N_18  and  C_19
REMARK                            x       y       z     vdW  Elec       q    Type
REMARK                         _______ _______ _______ _____ _____    ______ ____
ROOT
ATOM      1  O   UNL     1       4.344   6.645  17.599  0.00  0.00    +0.000 OA
ATOM      2  C   UNL     1       3.734   6.030  18.453  0.00  0.00    +0.000 C 
ATOM      3  C   UNL     1       3.836   4.574  18.733  0.00  0.00    +0.000 C 
ATOM      4  C   UNL     1       4.524   3.676  18.019  0.00  0.00    +0.000 C 
ATOM      5  C   UNL     1       2.968   4.363  19.911  0.00  0.00    +0.000 C 
ATOM      6  N   UNL     1       2.369   5.475  20.275  0.00  0.00    +0.000 NA
ATOM      7  N   UNL     1       2.785   6.461  19.389  0.00  0.00    +0.000 N 
ENDROOT
BRANCH   4   8
ATOM      8  C   UNL     1       5.343   4.020  16.851  0.00  0.00    +0.000 A 
ATOM      9  C   UNL     1       6.667   4.433  17.035  0.00  0.00    +0.000 A 
ATOM     10  C   UNL     1       7.440   4.833  15.942  0.00  0.00    +0.000 A 
ATOM     11  C   UNL     1       6.886   4.815  14.664  0.00  0.00    +0.000 A 
ATOM     12 CL   UNL     1       7.830   5.332  13.321  0.00  0.00    +0.000 Cl
ATOM     13  C   UNL     1       5.572   4.396  14.467  0.00  0.00    +0.000 A 
ATOM     14  C   UNL     1       4.799   3.994  15.560  0.00  0.00    +0.000 A 
ENDBRANCH   4   8
BRANCH   7  15
ATOM     15  C   UNL     1       2.106   7.705  19.388  0.00  0.00    +0.000 A 
ATOM     16  C   UNL     1       1.965   8.452  18.208  0.00  0.00    +0.000 A 
ATOM     17  C   UNL     1       1.211   9.628  18.186  0.00  0.00    +0.000 A 
ATOM     18  C   UNL     1       0.611  10.093  19.351  0.00  0.00    +0.000 A 
ATOM     19  C   UNL     1       0.764   9.380  20.537  0.00  0.00    +0.000 A 
ATOM     20  C   UNL     1       1.501   8.190  20.555  0.00  0.00    +0.000 A 
ENDBRANCH   7  15
BRANCH   5  21
ATOM     21  C   UNL     1       2.776   3.042  20.611  0.00  0.00    +0.000 C 
ATOM     22  F   UNL     1       3.935   2.429  20.972  0.00  0.00    +0.000 F 
ATOM     23  F   UNL     1       2.052   3.172  21.756  0.00  0.00    +0.000 F 
ATOM     24  F   UNL     1       2.109   2.147  19.833  0.00  0.00    +0.000 F 
ENDBRANCH   5  21
TORSDOF 3
ENDMDL
MODEL 3
REMARK VINA RESULT:      -8.7      0.131      1.259
REMARK  Name = 
REMARK  3 active torsions:
REMARK  status: ('A' for Active; 'I' for Inactive)
REMARK    1  A    between atoms: C_4  and  C_5
REMARK    2  A    between atoms: C_12  and  C_13
REMARK    3  A    between atoms: N_18  and  C_19
REMARK                            x       y       z     vdW  Elec       q    Type
REMARK                         _______ _______ _______ _____ _____    ______ ____
ROOT
ATOM      1  O   UNL     1       4.289   6.740  17.664  0.00  0.00    +0.000 OA
ATOM      2  C   UNL     1       3.704   6.077  18.499  0.00  0.00    +0.000 C 
ATOM      3  C   UNL     1       3.851   4.615  18.726  0.00  0.00    +0.000 C 
ATOM      4  C   UNL     1       4.559   3.764  17.974  0.00  0.00    +0.000 C 
ATOM      5  C   UNL     1       2.999   4.336  19.901  0.00  0.00    +0.000 C 
ATOM      6  N   UNL     1       2.371   5.416  20.310  0.00  0.00    +0.000 NA
ATOM      7  N   UNL     1       2.751   6.445  19.457  0.00  0.00    +0.000 N 
ENDROOT
BRANCH   4   8
ATOM      8  C   UNL     1       5.358   4.175  16.814  0.00  0.00    +0.000 A 
ATOM      9  C   UNL     1       4.792   4.121  15.535  0.00  0.00    +0.000 A 
ATOM     10  C   UNL     1       5.558   4.440  14.411  0.00  0.00    +0.000 A 
ATOM     11  C   UNL     1       6.890   4.817  14.570  0.00  0.00    +0.000 A 
ATOM     12 CL   UNL     1       7.840   5.185  13.183  0.00  0.00    +0.000 Cl
ATOM     13  C   UNL     1       7.461   4.884  15.839  0.00  0.00    +0.000 A 
ATOM     14  C   UNL     1       6.694   4.567  16.964  0.00  0.00    +0.000 A 
ENDBRANCH   4   8
BRANCH   7  15
ATOM     15  C   UNL     1       2.037   7.668  19.506  0.00  0.00    +0.000 A 
ATOM     16  C   UNL     1       1.476   8.132  20.706  0.00  0.00    +0.000 A 
ATOM     17  C   UNL     1       0.859   9.383  20.777  0.00  0.00    +0.000 A 
ATOM     18  C   UNL     1       0.765  10.179  19.641  0.00  0.00    +0.000 A 
ATOM     19  C   UNL     1       1.291   9.724  18.435  0.00  0.00    +0.000 A 
ATOM     20  C   UNL     1       1.928   8.480  18.368  0.00  0.00    +0.000 A 
ENDBRANCH   7  15
BRANCH   5  21
ATOM     21  C   UNL     1       2.851   2.986  20.554  0.00  0.00    +0.000 C 
ATOM     22  F   UNL     1       2.182   2.073  19.801  0.00  0.00    +0.000 F 
ATOM     23  F   UNL     1       4.057   2.423  20.838  0.00  0.00    +0.000 F 
ATOM     24  F   UNL     1       2.175   3.064  21.733  0.00  0.00    +0.000 F 
ENDBRANCH   5  21
TORSDOF 3
ENDMDL
MODEL 4
REMARK VINA RESULT:      -8.6      0.220      1.619
REMARK  Name = 
REMARK  3 active torsions:
REMARK  status: ('A' for Active; 'I' for Inactive)
REMARK    1  A    between atoms: C_4  and  C_5
REMARK    2  A    between atoms: C_12  and  C_13
REMARK    3  A    between atoms: N_18  and  C_19
REMARK                            x       y       z     vdW  Elec       q    Type
REMARK                         _______ _______ _______ _____ _____    ______ ____
ROOT
ATOM      1  O   UNL     1       4.309   6.661  17.606  0.00  0.00    +0.000 OA
ATOM      2  C   UNL     1       3.705   6.047  18.465  0.00  0.00    +0.000 C 
ATOM      3  C   UNL     1       3.827   4.596  18.763  0.00  0.00    +0.000 C 
ATOM      4  C   UNL     1       4.530   3.700  18.061  0.00  0.00    +0.000 C 
ATOM      5  C   UNL     1       2.957   4.387  19.940  0.00  0.00    +0.000 C 
ATOM      6  N   UNL     1       2.342   5.495  20.289  0.00  0.00    +0.000 NA
ATOM      7  N   UNL     1       2.747   6.476  19.393  0.00  0.00    +0.000 N 
ENDROOT
BRANCH   4   8
ATOM      8  C   UNL     1       5.347   4.042  16.892  0.00  0.00    +0.000 A 
ATOM      9  C   UNL     1       6.669   4.462  17.075  0.00  0.00    +0.000 A 
ATOM     10  C   UNL     1       7.441   4.860  15.981  0.00  0.00    +0.000 A 
ATOM     11  C   UNL     1       6.889   4.832  14.702  0.00  0.00    +0.000 A 
ATOM     12 CL   UNL     1       7.831   5.347  13.357  0.00  0.00    +0.000 Cl
ATOM     13  C   UNL     1       5.577   4.406  14.506  0.00  0.00    +0.000 A 
ATOM     14  C   UNL     1       4.804   4.006  15.601  0.00  0.00    +0.000 A 
ENDBRANCH   4   8
BRANCH   7  15
ATOM     15  C   UNL     1       2.051   7.710  19.375  0.00  0.00    +0.000 A 
ATOM     16  C   UNL     1       1.480   8.236  20.543  0.00  0.00    +0.000 A 
ATOM     17  C   UNL     1       0.881   9.499  20.548  0.00  0.00    +0.000 A 
ATOM     18  C   UNL     1       0.817  10.244  19.375  0.00  0.00    +0.000 A 
ATOM     19  C   UNL     1       1.354   9.726  18.199  0.00  0.00    +0.000 A 
ATOM     20  C   UNL     1       1.973   8.471  18.199  0.00  0.00    +0.000 A 
ENDBRANCH   7  15
BRANCH   5  21
ATOM     21  C   UNL     1       2.781   3.073  20.655  0.00  0.00    +0.000 C 
ATOM     22  F   UNL     1       1.983   2.185  20.003  0.00  0.00    +0.000 F 
ATOM     23  F   UNL     1       3.968   2.434  20.848  0.00  0.00    +0.000 F 
ATOM     24  F   UNL     1       2.227   3.235  21.888  0.00  0.00    +0.000 F 
ENDBRANCH   5  21
TORSDOF 3
ENDMDL
MODEL 5
REMARK VINA RESULT:      -8.2      4.460      7.329
REMARK  Name = 
REMARK  3 active torsions:
REMARK  status: ('A' for Active; 'I' for Inactive)
REMARK    1  A    between atoms: C_4  and  C_5
REMARK    2  A    between atoms: C_12  and  C_13
REMARK    3  A    between atoms: N_18  and  C_19
REMARK                            x       y       z     vdW  Elec       q    Type
REMARK                         _______ _______ _______ _____ _____    ______ ____
ROOT
ATOM      1  O   UNL     1       4.808   3.807  16.310  0.00  0.00    +0.000 OA
ATOM      2  C   UNL     1       5.642   4.693  16.319  0.00  0.00    +0.000 C 
ATOM      3  C   UNL     1       5.832   5.714  17.382  0.00  0.00    +0.000 C 
ATOM      4  C   UNL     1       5.046   5.905  18.447  0.00  0.00    +0.000 C 
ATOM      5  C   UNL     1       7.021   6.479  16.950  0.00  0.00    +0.000 C 
ATOM      6  N   UNL     1       7.469   6.061  15.787  0.00  0.00    +0.000 NA
ATOM      7  N   UNL     1       6.630   5.028  15.385  0.00  0.00    +0.000 N 
ENDROOT
BRANCH   4   8
ATOM      8  C   UNL     1       3.876   5.073  18.753  0.00  0.00    +0.000 A 
ATOM      9  C   UNL     1       4.024   3.953  19.579  0.00  0.00    +0.000 A 
ATOM     10  C   UNL     1       2.938   3.109  19.825  0.00  0.00    +0.000 A 
ATOM     11  C   UNL     1       1.702   3.392  19.247  0.00  0.00    +0.000 A 
ATOM     12 CL   UNL     1       0.371   2.339  19.529  0.00  0.00    +0.000 Cl
ATOM     13  C   UNL     1       1.540   4.510  18.431  0.00  0.00    +0.000 A 
ATOM     14  C   UNL     1       2.626   5.355  18.186  0.00  0.00    +0.000 A 
ENDBRANCH   4   8
BRANCH   7  15
ATOM     15  C   UNL     1       6.724   4.557  14.052  0.00  0.00    +0.000 A 
ATOM     16  C   UNL     1       5.844   3.577  13.567  0.00  0.00    +0.000 A 
ATOM     17  C   UNL     1       5.871   3.184  12.227  0.00  0.00    +0.000 A 
ATOM     18  C   UNL     1       6.799   3.743  11.355  0.00  0.00    +0.000 A 
ATOM     19  C   UNL     1       7.699   4.696  11.825  0.00  0.00    +0.000 A 
ATOM     20  C   UNL     1       7.658   5.106  13.162  0.00  0.00    +0.000 A 
ENDBRANCH   7  15
BRANCH   5  21
ATOM     21  C   UNL     1       7.647   7.606  17.730  0.00  0.00    +0.000 C 
ATOM     22  F   UNL     1       6.772   8.576  18.109  0.00  0.00    +0.000 F 
ATOM     23  F   UNL     1       8.235   7.167  18.877  0.00  0.00    +0.000 F 
ATOM     24  F   UNL     1       8.619   8.239  17.017  0.00  0.00    +0.000 F 
ENDBRANCH   5  21
TORSDOF 3
ENDMDL
MODEL 6
REMARK VINA RESULT:      -8.1      4.489      7.306
REMARK  Name = 
REMARK  3 active torsions:
REMARK  status: ('A' for Active; 'I' for Inactive)
REMARK    1  A    between atoms: C_4  and  C_5
REMARK    2  A    between atoms: C_12  and  C_13
REMARK    3  A    between atoms: N_18  and  C_19
REMARK                            x       y       z     vdW  Elec       q    Type
REMARK                         _______ _______ _______ _____ _____    ______ ____
ROOT
ATOM      1  O   UNL     1       4.887   3.769  16.363  0.00  0.00    +0.000 OA
ATOM      2  C   UNL     1       5.702   4.672  16.355  0.00  0.00    +0.000 C 
ATOM      3  C   UNL     1       5.894   5.696  17.414  0.00  0.00    +0.000 C 
ATOM      4  C   UNL     1       5.128   5.870  18.497  0.00  0.00    +0.000 C 
ATOM      5  C   UNL     1       7.057   6.486  16.957  0.00  0.00    +0.000 C 
ATOM      6  N   UNL     1       7.487   6.078  15.784  0.00  0.00    +0.000 NA
ATOM      7  N   UNL     1       6.662   5.029  15.399  0.00  0.00    +0.000 N 
ENDROOT
BRANCH   4   8
ATOM      8  C   UNL     1       3.982   5.014  18.828  0.00  0.00    +0.000 A 
ATOM      9  C   UNL     1       2.710   5.353  18.354  0.00  0.00    +0.000 A 
ATOM     10  C   UNL     1       1.596   4.591  18.716  0.00  0.00    +0.000 A 
ATOM     11  C   UNL     1       1.760   3.487  19.551  0.00  0.00    +0.000 A 
ATOM     12 CL   UNL     1       0.385   2.563  20.018  0.00  0.00    +0.000 Cl
ATOM     13  C   UNL     1       3.023   3.134  20.021  0.00  0.00    +0.000 A 
ATOM     14  C   UNL     1       4.138   3.895  19.657  0.00  0.00    +0.000 A 
ENDBRANCH   4   8
BRANCH   7  15
ATOM     15  C   UNL     1       6.735   4.560  14.064  0.00  0.00    +0.000 A 
ATOM     16  C   UNL     1       5.851   3.578  13.591  0.00  0.00    +0.000 A 
ATOM     17  C   UNL     1       5.858   3.188  12.250  0.00  0.00    +0.000 A 
ATOM     18  C   UNL     1       6.770   3.751  11.365  0.00  0.00    +0.000 A 
ATOM     19  C   UNL     1       7.674   4.707  11.822  0.00  0.00    +0.000 A 
ATOM     20  C   UNL     1       7.654   5.114  13.160  0.00  0.00    +0.000 A 
ENDBRANCH   7  15
BRANCH   5  21
ATOM     21  C   UNL     1       7.677   7.625  17.724  0.00  0.00    +0.000 C 
ATOM     22  F   UNL     1       8.648   8.293  17.045  0.00  0.00    +0.000 F 
ATOM     23  F   UNL     1       6.756   8.564  18.076  0.00  0.00    +0.000 F 
ATOM     24  F   UNL     1       8.257   7.202  18.881  0.00  0.00    +0.000 F 
ENDBRANCH   5  21
TORSDOF 3
ENDMDL
MODEL 7
REMARK VINA RESULT:      -8.0      4.447      7.301
REMARK  Name = 
REMARK  3 active torsions:
REMARK  status: ('A' for Active; 'I' for Inactive)
REMARK    1  A    between atoms: C_4  and  C_5
REMARK    2  A    between atoms: C_12  and  C_13
REMARK    3  A    between atoms: N_18  and  C_19
REMARK                            x       y       z     vdW  Elec       q    Type
REMARK                         _______ _______ _______ _____ _____    ______ ____
ROOT
ATOM      1  O   UNL     1       4.754   3.837  16.323  0.00  0.00    +0.000 OA
ATOM      2  C   UNL     1       5.597   4.713  16.325  0.00  0.00    +0.000 C 
ATOM      3  C   UNL     1       5.831   5.709  17.403  0.00  0.00    +0.000 C 
ATOM      4  C   UNL     1       5.081   5.884  18.497  0.00  0.00    +0.000 C 
ATOM      5  C   UNL     1       7.015   6.472  16.951  0.00  0.00    +0.000 C 
ATOM      6  N   UNL     1       7.421   6.074  15.766  0.00  0.00    +0.000 NA
ATOM      7  N   UNL     1       6.559   5.060  15.368  0.00  0.00    +0.000 N 
ENDROOT
BRANCH   4   8
ATOM      8  C   UNL     1       3.912   5.058  18.822  0.00  0.00    +0.000 A 
ATOM      9  C   UNL     1       4.079   3.902  19.592  0.00  0.00    +0.000 A 
ATOM     10  C   UNL     1       2.991   3.065  19.853  0.00  0.00    +0.000 A 
ATOM     11  C   UNL     1       1.735   3.390  19.344  0.00  0.00    +0.000 A 
ATOM     12 CL   UNL     1       0.400   2.346  19.643  0.00  0.00    +0.000 Cl
ATOM     13  C   UNL     1       1.555   4.544  18.585  0.00  0.00    +0.000 A 
ATOM     14  C   UNL     1       2.642   5.383  18.326  0.00  0.00    +0.000 A 
ENDBRANCH   4   8
BRANCH   7  15
ATOM     15  C   UNL     1       6.606   4.616  14.023  0.00  0.00    +0.000 A 
ATOM     16  C   UNL     1       7.558   5.123  13.126  0.00  0.00    +0.000 A 
ATOM     17  C   UNL     1       7.669   4.615  11.829  0.00  0.00    +0.000 A 
ATOM     18  C   UNL     1       6.809   3.612  11.398  0.00  0.00    +0.000 A 
ATOM     19  C   UNL     1       5.838   3.116  12.265  0.00  0.00    +0.000 A 
ATOM     20  C   UNL     1       5.741   3.609  13.570  0.00  0.00    +0.000 A 
ENDBRANCH   7  15
BRANCH   5  21
ATOM     21  C   UNL     1       7.677   7.574  17.735  0.00  0.00    +0.000 C 
ATOM     22  F   UNL     1       8.244   7.166  18.902  0.00  0.00    +0.000 F 
ATOM     23  F   UNL     1       8.672   8.176  17.029  0.00  0.00    +0.000 F 
ATOM     24  F   UNL     1       6.796   8.556  18.074  0.00  0.00    +0.000 F 
ENDBRANCH   5  21
TORSDOF 3
ENDMDL
MODEL 8
REMARK VINA RESULT:      -7.9      4.488      7.288
REMARK  Name = 
REMARK  3 active torsions:
REMARK  status: ('A' for Active; 'I' for Inactive)
REMARK    1  A    between atoms: C_4  and  C_5
REMARK    2  A    between atoms: C_12  and  C_13
REMARK    3  A    between atoms: N_18  and  C_19
REMARK                            x       y       z     vdW  Elec       q    Type
REMARK                         _______ _______ _______ _____ _____    ______ ____
ROOT
ATOM      1  O   UNL     1       4.932   3.826  16.521  0.00  0.00    +0.000 OA
ATOM      2  C   UNL     1       5.735   4.738  16.466  0.00  0.00    +0.000 C 
ATOM      3  C   UNL     1       5.983   5.758  17.518  0.00  0.00    +0.000 C 
ATOM      4  C   UNL     1       5.286   5.916  18.649  0.00  0.00    +0.000 C 
ATOM      5  C   UNL     1       7.106   6.565  16.992  0.00  0.00    +0.000 C 
ATOM      6  N   UNL     1       7.464   6.169  15.791  0.00  0.00    +0.000 NA
ATOM      7  N   UNL     1       6.627   5.112  15.453  0.00  0.00    +0.000 N 
ENDROOT
BRANCH   4   8
ATOM      8  C   UNL     1       4.175   5.045  19.047  0.00  0.00    +0.000 A 
ATOM      9  C   UNL     1       2.858   5.462  18.821  0.00  0.00    +0.000 A 
ATOM     10  C   UNL     1       1.786   4.679  19.256  0.00  0.00    +0.000 A 
ATOM     11  C   UNL     1       2.034   3.477  19.916  0.00  0.00    +0.000 A 
ATOM     12 CL   UNL     1       0.713   2.526  20.475  0.00  0.00    +0.000 Cl
ATOM     13  C   UNL     1       3.340   3.047  20.137  0.00  0.00    +0.000 A 
ATOM     14  C   UNL     1       4.414   3.829  19.700  0.00  0.00    +0.000 A 
ENDBRANCH   4   8
BRANCH   7  15
ATOM     15  C   UNL     1       6.620   4.652  14.113  0.00  0.00    +0.000 A 
ATOM     16  C   UNL     1       7.585   5.087  13.192  0.00  0.00    +0.000 A 
ATOM     17  C   UNL     1       7.639   4.559  11.900  0.00  0.00    +0.000 A 
ATOM     18  C   UNL     1       6.708   3.608  11.497  0.00  0.00    +0.000 A 
ATOM     19  C   UNL     1       5.725   3.185  12.387  0.00  0.00    +0.000 A 
ATOM     20  C   UNL     1       5.684   3.698  13.688  0.00  0.00    +0.000 A 
ENDBRANCH   7  15
BRANCH   5  21
ATOM     21  C   UNL     1       7.760   7.706  17.726  0.00  0.00    +0.000 C 
ATOM     22  F   UNL     1       8.716   8.355  17.008  0.00  0.00    +0.000 F 
ATOM     23  F   UNL     1       6.861   8.658  18.094  0.00  0.00    +0.000 F 
ATOM     24  F   UNL     1       8.372   7.291  18.869  0.00  0.00    +0.000 F 
ENDBRANCH   5  21
TORSDOF 3
ENDMDL
MODEL 9
REMARK VINA RESULT:      -7.7      4.731      6.284
REMARK  Name = 
REMARK  3 active torsions:
REMARK  status: ('A' for Active; 'I' for Inactive)
REMARK    1  A    between atoms: C_4  and  C_5
REMARK    2  A    between atoms: C_12  and  C_13
REMARK    3  A    between atoms: N_18  and  C_19
REMARK                            x       y       z     vdW  Elec       q    Type
REMARK                         _______ _______ _______ _____ _____    ______ ____
ROOT
ATOM      1  O   UNL     1       4.855   5.780  18.573  0.00  0.00    +0.000 OA
ATOM      2  C   UNL     1       5.396   5.652  17.491  0.00  0.00    +0.000 C 
ATOM      3  C   UNL     1       5.110   4.600  16.482  0.00  0.00    +0.000 C 
ATOM      4  C   UNL     1       4.298   3.548  16.641  0.00  0.00    +0.000 C 
ATOM      5  C   UNL     1       5.966   4.953  15.329  0.00  0.00    +0.000 C 
ATOM      6  N   UNL     1       6.711   6.005  15.584  0.00  0.00    +0.000 NA
ATOM      7  N   UNL     1       6.410   6.401  16.882  0.00  0.00    +0.000 N 
ENDROOT
BRANCH   4   8
ATOM      8  C   UNL     1       3.509   3.307  17.854  0.00  0.00    +0.000 A 
ATOM      9  C   UNL     1       2.200   3.794  17.933  0.00  0.00    +0.000 A 
ATOM     10  C   UNL     1       1.458   3.636  19.106  0.00  0.00    +0.000 A 
ATOM     11  C   UNL     1       2.027   2.984  20.199  0.00  0.00    +0.000 A 
ATOM     12 CL   UNL     1       1.123   2.812  21.652  0.00  0.00    +0.000 Cl
ATOM     13  C   UNL     1       3.326   2.485  20.128  0.00  0.00    +0.000 A 
ATOM     14  C   UNL     1       4.069   2.642  18.954  0.00  0.00    +0.000 A 
ENDBRANCH   4   8
BRANCH   7  15
ATOM     15  C   UNL     1       7.244   7.358  17.511  0.00  0.00    +0.000 A 
ATOM     16  C   UNL     1       7.203   8.711  17.141  0.00  0.00    +0.000 A 
ATOM     17  C   UNL     1       7.951   9.670  17.828  0.00  0.00    +0.000 A 
ATOM     18  C   UNL     1       8.778   9.287  18.879  0.00  0.00    +0.000 A 
ATOM     19  C   UNL     1       8.854   7.945  19.242  0.00  0.00    +0.000 A 
ATOM     20  C   UNL     1       8.088   6.987  18.568  0.00  0.00    +0.000 A 
ENDBRANCH   7  15
BRANCH   5  21
ATOM     21  C   UNL     1       5.998   4.204  14.022  0.00  0.00    +0.000 C 
ATOM     22  F   UNL     1       6.329   2.890  14.140  0.00  0.00    +0.000 F 
ATOM     23  F   UNL     1       4.792   4.228  13.391  0.00  0.00    +0.000 F 
ATOM     24  F   UNL     1       6.899   4.737  13.152  0.00  0.00    +0.000 F 
ENDBRANCH   5  21
TORSDOF 3
ENDMDL
