MODEL 1
REMARK VINA RESULT:      -8.9      0.000      0.000
REMARK  Name = 
REMARK  10 active torsions:
REMARK  status: ('A' for Active; 'I' for Inactive)
REMARK    1  A    between atoms: C_1  and  O_2
REMARK    2  A    between atoms: O_2  and  C_3
REMARK    3  A    between atoms: C_7  and  C_8
REMARK    4  A    between atoms: C_10  and  C_11
REMARK    5  A    between atoms: C_18  and  N_19
REMARK    6  A    between atoms: C_20  and  O_22
REMARK    7  A    between atoms: O_22  and  C_23
REMARK    8  A    between atoms: C_23  and  C_24
REMARK    9  A    between atoms: C_23  and  C_25
REMARK   10  A    between atoms: C_23  and  C_26
REMARK                            x       y       z     vdW  Elec       q    Type
REMARK                         _______ _______ _______ _____ _____    ______ ____
ROOT
ATOM      1  C   UNL     1       3.899   5.684  17.902  0.00  0.00    +0.000 A 
ATOM      2  C   UNL     1       3.441   4.773  18.876  0.00  0.00    +0.000 A 
ATOM      3  C   UNL     1       2.486   5.127  19.826  0.00  0.00    +0.000 A 
ATOM      4  C   UNL     1       2.093   6.456  19.857  0.00  0.00    +0.000 A 
ATOM      5  N   UNL     1       1.383   7.085  20.843  0.00  0.00    +0.000 N 
ATOM      6  C   UNL     1       1.221   8.400  20.555  0.00  0.00    +0.000 A 
ATOM      7  C   UNL     1       0.724   9.392  21.394  0.00  0.00    +0.000 A 
ATOM      8  C   UNL     1       0.487  10.658  20.874  0.00  0.00    +0.000 A 
ATOM      9  C   UNL     1       0.642  10.846  19.495  0.00  0.00    +0.000 A 
ATOM     10  C   UNL     1       1.264   9.851  18.675  0.00  0.00    +0.000 A 
ATOM     11  C   UNL     1       1.628   8.600  19.240  0.00  0.00    +0.000 A 
ATOM     12  C   UNL     1       2.386   7.404  18.877  0.00  0.00    +0.000 A 
ATOM     13  C   UNL     1       3.298   6.984  17.860  0.00  0.00    +0.000 A 
ATOM     14  H   UNL     1       1.106   6.633  21.705  0.00  0.00    +0.000 HD
ENDROOT
BRANCH   1  19
ATOM     15  C   UNL     1       5.780   4.295  14.858  0.00  0.00    +0.000 A 
ATOM     16  C   UNL     1       7.087   4.270  15.334  0.00  0.00    +0.000 A 
ATOM     17  C   UNL     1       7.372   4.714  16.624  0.00  0.00    +0.000 A 
ATOM     18  C   UNL     1       6.346   5.189  17.452  0.00  0.00    +0.000 A 
ATOM     19  C   UNL     1       5.017   5.254  17.003  0.00  0.00    +0.000 A 
ATOM     20  C   UNL     1       4.764   4.793  15.685  0.00  0.00    +0.000 A 
BRANCH  15  22
ATOM     21  C   UNL     1       6.718   3.938  12.693  0.00  0.00    +0.000 C 
ATOM     22  O   UNL     1       5.624   3.801  13.591  0.00  0.00    +0.000 OA
ENDBRANCH  15  22
ENDBRANCH   1  19
BRANCH   3  23
ATOM     23  C   UNL     1       1.900   4.184  20.811  0.00  0.00    +0.000 C 
ATOM     24  N   UNL     1       0.707   3.607  20.483  0.00  0.00    +0.000 N 
ATOM     25  O   UNL     1       2.398   4.012  21.919  0.00  0.00    +0.000 OA
ATOM     26  H   UNL     1       0.137   3.966  19.732  0.00  0.00    +0.000 HD
ATOM     27  H   UNL     1       0.224   3.160  21.255  0.00  0.00    +0.000 HD
ENDBRANCH   3  23
BRANCH   8  28
ATOM     28  N   UNL     1       0.087  11.709  21.744  0.00  0.00    +0.000 N 
ATOM     29  C   UNL     1      -0.822  11.537  22.773  0.00  0.00    +0.000 C 
ATOM     30  O   UNL     1      -1.315  10.473  23.116  0.00  0.00    +0.000 OA
ATOM     31  H   UNL     1       0.593  12.581  21.733  0.00  0.00    +0.000 HD
BRANCH  29  32
ATOM     32  O   UNL     1      -1.073  12.713  23.418  0.00  0.00    +0.000 OA
BRANCH  32  33
ATOM     33  C   UNL     1      -2.266  13.472  23.035  0.00  0.00    +0.000 C 
ATOM     34  C   UNL     1      -3.270  13.549  24.196  0.00  0.00    +0.000 C 
ATOM     35  C   UNL     1      -1.783  14.901  22.734  0.00  0.00    +0.000 C 
ATOM     36  C   UNL     1      -2.929  12.931  21.756  0.00  0.00    +0.000 C 
ENDBRANCH  32  33
ENDBRANCH  29  32
ENDBRANCH   8  28
TORSDOF 6
ENDMDL
MODEL 2
REMARK VINA RESULT:      -8.8      1.485      1.977
REMARK  Name = 
REMARK  10 active torsions:
REMARK  status: ('A' for Active; 'I' for Inactive)
REMARK    1  A    between atoms: C_1  and  O_2
REMARK    2  A    between atoms: O_2  and  C_3
REMARK    3  A    between atoms: C_7  and  C_8
REMARK    4  A    between atoms: C_10  and  C_11
REMARK    5  A    between atoms: C_18  and  N_19
REMARK    6  A    between atoms: C_20  and  O_22
REMARK    7  A    between atoms: O_22  and  C_23
REMARK    8  A    between atoms: C_23  and  C_24
REMARK    9  A    between atoms: C_23  and  C_25
REMARK   10  A    between atoms: C_23  and  C_26
REMARK                            x       y       z     vdW  Elec       q    Type
REMARK                         _______ _______ _______ _____ _____    ______ ____
ROOT
ATOM      1  C   UNL     1       4.713   5.097  16.461  0.00  0.00    +0.000 A 
ATOM      2  C   UNL     1       4.733   4.138  17.494  0.00  0.00    +0.000 A 
ATOM      3  C   UNL     1       4.007   4.306  18.671  0.00  0.00    +0.000 A 
ATOM      4  C   UNL     1       3.359   5.519  18.843  0.00  0.00    +0.000 A 
ATOM      5  N   UNL     1       2.815   6.010  19.997  0.00  0.00    +0.000 N 
ATOM      6  C   UNL     1       2.304   7.250  19.800  0.00  0.00    +0.000 A 
ATOM      7  C   UNL     1       1.843   8.136  20.768  0.00  0.00    +0.000 A 
ATOM      8  C   UNL     1       1.212   9.306  20.365  0.00  0.00    +0.000 A 
ATOM      9  C   UNL     1       0.956   9.483  18.999  0.00  0.00    +0.000 A 
ATOM     10  C   UNL     1       1.540   8.621  18.018  0.00  0.00    +0.000 A 
ATOM     11  C   UNL     1       2.300   7.495  18.431  0.00  0.00    +0.000 A 
ATOM     12  C   UNL     1       3.175   6.479  17.847  0.00  0.00    +0.000 A 
ATOM     13  C   UNL     1       3.857   6.236  16.615  0.00  0.00    +0.000 A 
ATOM     14  H   UNL     1       2.877   5.534  20.889  0.00  0.00    +0.000 HD
ENDROOT
BRANCH   1  19
ATOM     15  C   UNL     1       6.097   3.798  13.125  0.00  0.00    +0.000 A 
ATOM     16  C   UNL     1       7.379   4.339  13.133  0.00  0.00    +0.000 A 
ATOM     17  C   UNL     1       7.797   5.134  14.198  0.00  0.00    +0.000 A 
ATOM     18  C   UNL     1       6.931   5.397  15.268  0.00  0.00    +0.000 A 
ATOM     19  C   UNL     1       5.622   4.891  15.288  0.00  0.00    +0.000 A 
ATOM     20  C   UNL     1       5.230   4.084  14.188  0.00  0.00    +0.000 A 
BRANCH  15  22
ATOM     21  C   UNL     1       6.882   2.237  11.499  0.00  0.00    +0.000 C 
ATOM     22  O   UNL     1       5.818   3.007  12.043  0.00  0.00    +0.000 OA
ENDBRANCH  15  22
ENDBRANCH   1  19
BRANCH   3  23
ATOM     23  C   UNL     1       3.916   3.288  19.747  0.00  0.00    +0.000 C 
ATOM     24  N   UNL     1       4.914   2.357  19.807  0.00  0.00    +0.000 N 
ATOM     25  O   UNL     1       2.936   3.206  20.481  0.00  0.00    +0.000 OA
ATOM     26  H   UNL     1       5.552   2.217  19.037  0.00  0.00    +0.000 HD
ATOM     27  H   UNL     1       4.710   1.552  20.388  0.00  0.00    +0.000 HD
ENDBRANCH   3  23
BRANCH   8  28
ATOM     28  N   UNL     1       0.837  10.271  21.340  0.00  0.00    +0.000 N 
ATOM     29  C   UNL     1      -0.157  10.056  22.277  0.00  0.00    +0.000 C 
ATOM     30  O   UNL     1      -0.762   9.007  22.444  0.00  0.00    +0.000 OA
ATOM     31  H   UNL     1       1.415  11.087  21.477  0.00  0.00    +0.000 HD
BRANCH  29  32
ATOM     32  O   UNL     1      -0.356  11.159  23.055  0.00  0.00    +0.000 OA
BRANCH  32  33
ATOM     33  C   UNL     1      -1.390  12.114  22.651  0.00  0.00    +0.000 C 
ATOM     34  C   UNL     1      -2.685  11.902  23.452  0.00  0.00    +0.000 C 
ATOM     35  C   UNL     1      -0.843  13.509  23.000  0.00  0.00    +0.000 C 
ATOM     36  C   UNL     1      -1.659  12.092  21.136  0.00  0.00    +0.000 C 
ENDBRANCH  32  33
ENDBRANCH  29  32
ENDBRANCH   8  28
TORSDOF 6
ENDMDL
MODEL 3
REMARK VINA RESULT:      -8.7      1.008      1.309
REMARK  Name = 
REMARK  10 active torsions:
REMARK  status: ('A' for Active; 'I' for Inactive)
REMARK    1  A    between atoms: C_1  and  O_2
REMARK    2  A    between atoms: O_2  and  C_3
REMARK    3  A    between atoms: C_7  and  C_8
REMARK    4  A    between atoms: C_10  and  C_11
REMARK    5  A    between atoms: C_18  and  N_19
REMARK    6  A    between atoms: C_20  and  O_22
REMARK    7  A    between atoms: O_22  and  C_23
REMARK    8  A    between atoms: C_23  and  C_24
REMARK    9  A    between atoms: C_23  and  C_25
REMARK   10  A    between atoms: C_23  and  C_26
REMARK                            x       y       z     vdW  Elec       q    Type
REMARK                         _______ _______ _______ _____ _____    ______ ____
ROOT
ATOM      1  C   UNL     1       4.021   5.689  18.470  0.00  0.00    +0.000 A 
ATOM      2  C   UNL     1       3.512   4.669  19.299  0.00  0.00    +0.000 A 
ATOM      3  C   UNL     1       2.459   4.893  20.183  0.00  0.00    +0.000 A 
ATOM      4  C   UNL     1       2.010   6.199  20.308  0.00  0.00    +0.000 A 
ATOM      5  N   UNL     1       1.187   6.700  21.278  0.00  0.00    +0.000 N 
ATOM      6  C   UNL     1       1.000   8.032  21.109  0.00  0.00    +0.000 A 
ATOM      7  C   UNL     1       0.387   8.916  21.991  0.00  0.00    +0.000 A 
ATOM      8  C   UNL     1       0.149  10.221  21.580  0.00  0.00    +0.000 A 
ATOM      9  C   UNL     1       0.424  10.556  20.248  0.00  0.00    +0.000 A 
ATOM     10  C   UNL     1       1.158   9.671  19.397  0.00  0.00    +0.000 A 
ATOM     11  C   UNL     1       1.519   8.380  19.867  0.00  0.00    +0.000 A 
ATOM     12  C   UNL     1       2.355   7.252  19.460  0.00  0.00    +0.000 A 
ATOM     13  C   UNL     1       3.374   6.968  18.500  0.00  0.00    +0.000 A 
ATOM     14  H   UNL     1       0.849   6.153  22.060  0.00  0.00    +0.000 HD
ENDROOT
BRANCH   1  19
ATOM     15  C   UNL     1       6.274   5.035  15.432  0.00  0.00    +0.000 A 
ATOM     16  C   UNL     1       7.462   4.659  16.051  0.00  0.00    +0.000 A 
ATOM     17  C   UNL     1       7.550   4.630  17.441  0.00  0.00    +0.000 A 
ATOM     18  C   UNL     1       6.444   4.980  18.228  0.00  0.00    +0.000 A 
ATOM     19  C   UNL     1       5.234   5.389  17.645  0.00  0.00    +0.000 A 
ATOM     20  C   UNL     1       5.180   5.405  16.226  0.00  0.00    +0.000 A 
BRANCH  15  22
ATOM     21  C   UNL     1       6.081   3.729  13.443  0.00  0.00    +0.000 C 
ATOM     22  O   UNL     1       6.303   4.989  14.065  0.00  0.00    +0.000 OA
ENDBRANCH  15  22
ENDBRANCH   1  19
BRANCH   3  23
ATOM     23  C   UNL     1       1.822   3.836  21.006  0.00  0.00    +0.000 C 
ATOM     24  N   UNL     1       0.700   3.245  20.500  0.00  0.00    +0.000 N 
ATOM     25  O   UNL     1       2.210   3.577  22.141  0.00  0.00    +0.000 OA
ATOM     26  H   UNL     1       0.193   3.652  19.727  0.00  0.00    +0.000 HD
ATOM     27  H   UNL     1       0.163   2.707  21.170  0.00  0.00    +0.000 HD
ENDBRANCH   3  23
BRANCH   8  28
ATOM     28  N   UNL     1      -0.373  11.164  22.508  0.00  0.00    +0.000 N 
ATOM     29  C   UNL     1      -1.434  12.004  22.220  0.00  0.00    +0.000 C 
ATOM     30  O   UNL     1      -2.099  11.983  21.195  0.00  0.00    +0.000 OA
ATOM     31  H   UNL     1      -0.082  11.123  23.473  0.00  0.00    +0.000 HD
BRANCH  29  32
ATOM     32  O   UNL     1      -1.700  12.847  23.260  0.00  0.00    +0.000 OA
BRANCH  32  33
ATOM     33  C   UNL     1      -1.314  14.254  23.127  0.00  0.00    +0.000 C 
ATOM     34  C   UNL     1      -0.048  14.402  22.269  0.00  0.00    +0.000 C 
ATOM     35  C   UNL     1      -2.470  14.945  22.385  0.00  0.00    +0.000 C 
ATOM     36  C   UNL     1      -1.155  14.956  24.487  0.00  0.00    +0.000 C 
ENDBRANCH  32  33
ENDBRANCH  29  32
ENDBRANCH   8  28
TORSDOF 6
ENDMDL
MODEL 4
REMARK VINA RESULT:      -8.7      2.695     10.802
REMARK  Name = 
REMARK  10 active torsions:
REMARK  status: ('A' for Active; 'I' for Inactive)
REMARK    1  A    between atoms: C_1  and  O_2
REMARK    2  A    between atoms: O_2  and  C_3
REMARK    3  A    between atoms: C_7  and  C_8
REMARK    4  A    between atoms: C_10  and  C_11
REMARK    5  A    between atoms: C_18  and  N_19
REMARK    6  A    between atoms: C_20  and  O_22
REMARK    7  A    between atoms: O_22  and  C_23
REMARK    8  A    between atoms: C_23  and  C_24
REMARK    9  A    between atoms: C_23  and  C_25
REMARK   10  A    between atoms: C_23  and  C_26
REMARK                            x       y       z     vdW  Elec       q    Type
REMARK                         _______ _______ _______ _____ _____    ______ ____
ROOT
ATOM      1  C   UNL     1      -1.847  12.059  21.050  0.00  0.00    +0.000 A 
ATOM      2  C   UNL     1      -2.458  12.240  19.793  0.00  0.00    +0.000 A 
ATOM      3  C   UNL     1      -2.080  11.501  18.675  0.00  0.00    +0.000 A 
ATOM      4  C   UNL     1      -0.986  10.661  18.817  0.00  0.00    +0.000 A 
ATOM      5  N   UNL     1      -0.281  10.047  17.819  0.00  0.00    +0.000 N 
ATOM      6  C   UNL     1       0.756   9.337  18.329  0.00  0.00    +0.000 A 
ATOM      7  C   UNL     1       1.795   8.739  17.625  0.00  0.00    +0.000 A 
ATOM      8  C   UNL     1       2.688   7.922  18.306  0.00  0.00    +0.000 A 
ATOM      9  C   UNL     1       2.429   7.636  19.653  0.00  0.00    +0.000 A 
ATOM     10  C   UNL     1       1.427   8.351  20.383  0.00  0.00    +0.000 A 
ATOM     11  C   UNL     1       0.599   9.288  19.710  0.00  0.00    +0.000 A 
ATOM     12  C   UNL     1      -0.389  10.317  20.030  0.00  0.00    +0.000 A 
ATOM     13  C   UNL     1      -0.861  11.026  21.177  0.00  0.00    +0.000 A 
ATOM     14  H   UNL     1      -0.468  10.190  16.834  0.00  0.00    +0.000 HD
ENDROOT
BRANCH   1  19
ATOM     15  C   UNL     1      -1.572  14.450  24.040  0.00  0.00    +0.000 A 
ATOM     16  C   UNL     1      -2.911  14.609  24.385  0.00  0.00    +0.000 A 
ATOM     17  C   UNL     1      -3.905  13.965  23.651  0.00  0.00    +0.000 A 
ATOM     18  C   UNL     1      -3.566  13.153  22.560  0.00  0.00    +0.000 A 
ATOM     19  C   UNL     1      -2.230  12.985  22.163  0.00  0.00    +0.000 A 
ATOM     20  C   UNL     1      -1.244  13.655  22.934  0.00  0.00    +0.000 A 
BRANCH  15  22
ATOM     21  C   UNL     1      -1.204  15.682  26.050  0.00  0.00    +0.000 C 
ATOM     22  O   UNL     1      -0.691  15.104  24.857  0.00  0.00    +0.000 OA
ENDBRANCH  15  22
ENDBRANCH   1  19
BRANCH   3  23
ATOM     23  C   UNL     1      -2.753  11.583  17.355  0.00  0.00    +0.000 C 
ATOM     24  N   UNL     1      -4.058  11.983  17.347  0.00  0.00    +0.000 N 
ATOM     25  O   UNL     1      -2.206  11.200  16.324  0.00  0.00    +0.000 OA
ATOM     26  H   UNL     1      -4.609  12.000  18.192  0.00  0.00    +0.000 HD
ATOM     27  H   UNL     1      -4.551  11.808  16.479  0.00  0.00    +0.000 HD
ENDBRANCH   3  23
BRANCH   8  28
ATOM     28  N   UNL     1       3.819   7.396  17.622  0.00  0.00    +0.000 N 
ATOM     29  C   UNL     1       4.021   6.042  17.422  0.00  0.00    +0.000 C 
ATOM     30  O   UNL     1       3.235   5.154  17.717  0.00  0.00    +0.000 OA
ATOM     31  H   UNL     1       4.425   8.021  17.113  0.00  0.00    +0.000 HD
BRANCH  29  32
ATOM     32  O   UNL     1       5.206   5.803  16.789  0.00  0.00    +0.000 OA
BRANCH  32  33
ATOM     33  C   UNL     1       6.405   5.617  17.611  0.00  0.00    +0.000 C 
ATOM     34  C   UNL     1       7.293   4.496  17.049  0.00  0.00    +0.000 C 
ATOM     35  C   UNL     1       7.193   6.935  17.520  0.00  0.00    +0.000 C 
ATOM     36  C   UNL     1       6.076   5.380  19.096  0.00  0.00    +0.000 C 
ENDBRANCH  32  33
ENDBRANCH  29  32
ENDBRANCH   8  28
TORSDOF 6
ENDMDL
MODEL 5
REMARK VINA RESULT:      -8.6      1.071      1.161
REMARK  Name = 
REMARK  10 active torsions:
REMARK  status: ('A' for Active; 'I' for Inactive)
REMARK    1  A    between atoms: C_1  and  O_2
REMARK    2  A    between atoms: O_2  and  C_3
REMARK    3  A    between atoms: C_7  and  C_8
REMARK    4  A    between atoms: C_10  and  C_11
REMARK    5  A    between atoms: C_18  and  N_19
REMARK    6  A    between atoms: C_20  and  O_22
REMARK    7  A    between atoms: O_22  and  C_23
REMARK    8  A    between atoms: C_23  and  C_24
REMARK    9  A    between atoms: C_23  and  C_25
REMARK   10  A    between atoms: C_23  and  C_26
REMARK                            x       y       z     vdW  Elec       q    Type
REMARK                         _______ _______ _______ _____ _____    ______ ____
ROOT
ATOM      1  C   UNL     1       4.127   5.952  17.976  0.00  0.00    +0.000 A 
ATOM      2  C   UNL     1       3.589   5.085  18.949  0.00  0.00    +0.000 A 
ATOM      3  C   UNL     1       2.536   5.468  19.777  0.00  0.00    +0.000 A 
ATOM      4  C   UNL     1       2.117   6.786  19.694  0.00  0.00    +0.000 A 
ATOM      5  N   UNL     1       1.301   7.451  20.566  0.00  0.00    +0.000 N 
ATOM      6  C   UNL     1       1.145   8.744  20.189  0.00  0.00    +0.000 A 
ATOM      7  C   UNL     1       0.548   9.768  20.917  0.00  0.00    +0.000 A 
ATOM      8  C   UNL     1       0.343  10.998  20.306  0.00  0.00    +0.000 A 
ATOM      9  C   UNL     1       0.634  11.115  18.941  0.00  0.00    +0.000 A 
ATOM     10  C   UNL     1       1.352  10.092  18.245  0.00  0.00    +0.000 A 
ATOM     11  C   UNL     1       1.680   8.882  18.913  0.00  0.00    +0.000 A 
ATOM     12  C   UNL     1       2.492   7.686  18.695  0.00  0.00    +0.000 A 
ATOM     13  C   UNL     1       3.510   7.233  17.801  0.00  0.00    +0.000 A 
ATOM     14  H   UNL     1       0.945   7.040  21.421  0.00  0.00    +0.000 HD
ENDROOT
BRANCH   1  19
ATOM     15  C   UNL     1       6.419   4.924  15.075  0.00  0.00    +0.000 A 
ATOM     16  C   UNL     1       7.548   4.487  15.761  0.00  0.00    +0.000 A 
ATOM     17  C   UNL     1       7.584   4.536  17.153  0.00  0.00    +0.000 A 
ATOM     18  C   UNL     1       6.486   5.027  17.873  0.00  0.00    +0.000 A 
ATOM     19  C   UNL     1       5.337   5.500  17.220  0.00  0.00    +0.000 A 
ATOM     20  C   UNL     1       5.335   5.434  15.802  0.00  0.00    +0.000 A 
BRANCH  15  22
ATOM     21  C   UNL     1       5.907   3.635  13.133  0.00  0.00    +0.000 C 
ATOM     22  O   UNL     1       6.492   4.792  13.715  0.00  0.00    +0.000 OA
ENDBRANCH  15  22
ENDBRANCH   1  19
BRANCH   3  23
ATOM     23  C   UNL     1       1.870   4.566  20.749  0.00  0.00    +0.000 C 
ATOM     24  N   UNL     1       0.694   3.991  20.359  0.00  0.00    +0.000 N 
ATOM     25  O   UNL     1       2.287   4.426  21.895  0.00  0.00    +0.000 OA
ATOM     26  H   UNL     1       0.182   4.331  19.558  0.00  0.00    +0.000 HD
ATOM     27  H   UNL     1       0.153   3.577  21.110  0.00  0.00    +0.000 HD
ENDBRANCH   3  23
BRANCH   8  28
ATOM     28  N   UNL     1      -0.163  12.086  21.071  0.00  0.00    +0.000 N 
ATOM     29  C   UNL     1      -1.417  12.634  20.872  0.00  0.00    +0.000 C 
ATOM     30  O   UNL     1      -2.264  12.210  20.100  0.00  0.00    +0.000 OA
ATOM     31  H   UNL     1       0.329  12.378  21.902  0.00  0.00    +0.000 HD
BRANCH  29  32
ATOM     32  O   UNL     1      -1.633  13.698  21.699  0.00  0.00    +0.000 OA
BRANCH  32  33
ATOM     33  C   UNL     1      -2.396  13.475  22.929  0.00  0.00    +0.000 C 
ATOM     34  C   UNL     1      -1.820  14.296  24.094  0.00  0.00    +0.000 C 
ATOM     35  C   UNL     1      -3.818  13.988  22.648  0.00  0.00    +0.000 C 
ATOM     36  C   UNL     1      -2.508  11.985  23.296  0.00  0.00    +0.000 C 
ENDBRANCH  32  33
ENDBRANCH  29  32
ENDBRANCH   8  28
TORSDOF 6
ENDMDL
MODEL 6
REMARK VINA RESULT:      -8.5      1.246      1.562
REMARK  Name = 
REMARK  10 active torsions:
REMARK  status: ('A' for Active; 'I' for Inactive)
REMARK    1  A    between atoms: C_1  and  O_2
REMARK    2  A    between atoms: O_2  and  C_3
REMARK    3  A    between atoms: C_7  and  C_8
REMARK    4  A    between atoms: C_10  and  C_11
REMARK    5  A    between atoms: C_18  and  N_19
REMARK    6  A    between atoms: C_20  and  O_22
REMARK    7  A    between atoms: O_22  and  C_23
REMARK    8  A    between atoms: C_23  and  C_24
REMARK    9  A    between atoms: C_23  and  C_25
REMARK   10  A    between atoms: C_23  and  C_26
REMARK                            x       y       z     vdW  Elec       q    Type
REMARK                         _______ _______ _______ _____ _____    ______ ____
ROOT
ATOM      1  C   UNL     1       4.451   5.295  16.763  0.00  0.00    +0.000 A 
ATOM      2  C   UNL     1       4.175   4.261  17.681  0.00  0.00    +0.000 A 
ATOM      3  C   UNL     1       3.311   4.441  18.759  0.00  0.00    +0.000 A 
ATOM      4  C   UNL     1       2.826   5.723  18.968  0.00  0.00    +0.000 A 
ATOM      5  N   UNL     1       2.189   6.193  20.083  0.00  0.00    +0.000 N 
ATOM      6  C   UNL     1       1.898   7.510  19.951  0.00  0.00    +0.000 A 
ATOM      7  C   UNL     1       1.427   8.373  20.936  0.00  0.00    +0.000 A 
ATOM      8  C   UNL     1       1.040   9.657  20.578  0.00  0.00    +0.000 A 
ATOM      9  C   UNL     1       1.022   9.988  19.217  0.00  0.00    +0.000 A 
ATOM     10  C   UNL     1       1.618   9.131  18.238  0.00  0.00    +0.000 A 
ATOM     11  C   UNL     1       2.137   7.868  18.629  0.00  0.00    +0.000 A 
ATOM     12  C   UNL     1       2.935   6.781  18.065  0.00  0.00    +0.000 A 
ATOM     13  C   UNL     1       3.754   6.538  16.920  0.00  0.00    +0.000 A 
ATOM     14  H   UNL     1       2.046   5.639  20.919  0.00  0.00    +0.000 HD
ENDROOT
BRANCH   1  19
ATOM     15  C   UNL     1       6.150   4.005  13.573  0.00  0.00    +0.000 A 
ATOM     16  C   UNL     1       7.464   4.415  13.779  0.00  0.00    +0.000 A 
ATOM     17  C   UNL     1       7.805   5.120  14.932  0.00  0.00    +0.000 A 
ATOM     18  C   UNL     1       6.829   5.423  15.892  0.00  0.00    +0.000 A 
ATOM     19  C   UNL     1       5.488   5.049  15.712  0.00  0.00    +0.000 A 
ATOM     20  C   UNL     1       5.177   4.332  14.527  0.00  0.00    +0.000 A 
BRANCH  15  22
ATOM     21  C   UNL     1       4.651   3.327  11.844  0.00  0.00    +0.000 C 
ATOM     22  O   UNL     1       5.949   3.291  12.423  0.00  0.00    +0.000 OA
ENDBRANCH  15  22
ENDBRANCH   1  19
BRANCH   3  23
ATOM     23  C   UNL     1       2.912   3.363  19.696  0.00  0.00    +0.000 C 
ATOM     24  N   UNL     1       2.117   2.370  19.200  0.00  0.00    +0.000 N 
ATOM     25  O   UNL     1       3.183   3.411  20.892  0.00  0.00    +0.000 OA
ATOM     26  H   UNL     1       1.634   2.473  18.319  0.00  0.00    +0.000 HD
ATOM     27  H   UNL     1       1.676   1.787  19.901  0.00  0.00    +0.000 HD
ENDBRANCH   3  23
BRANCH   8  28
ATOM     28  N   UNL     1       0.664  10.584  21.590  0.00  0.00    +0.000 N 
ATOM     29  C   UNL     1      -0.329  10.330  22.519  0.00  0.00    +0.000 C 
ATOM     30  O   UNL     1      -0.930   9.274  22.647  0.00  0.00    +0.000 OA
ATOM     31  H   UNL     1       1.239  11.395  21.757  0.00  0.00    +0.000 HD
BRANCH  29  32
ATOM     32  O   UNL     1      -0.529  11.401  23.340  0.00  0.00    +0.000 OA
BRANCH  32  33
ATOM     33  C   UNL     1      -1.552  12.381  22.963  0.00  0.00    +0.000 C 
ATOM     34  C   UNL     1      -1.142  13.800  23.386  0.00  0.00    +0.000 C 
ATOM     35  C   UNL     1      -1.627  12.349  21.427  0.00  0.00    +0.000 C 
ATOM     36  C   UNL     1      -2.948  12.017  23.500  0.00  0.00    +0.000 C 
ENDBRANCH  32  33
ENDBRANCH  29  32
ENDBRANCH   8  28
TORSDOF 6
ENDMDL
MODEL 7
REMARK VINA RESULT:      -8.4      0.932      1.009
REMARK  Name = 
REMARK  10 active torsions:
REMARK  status: ('A' for Active; 'I' for Inactive)
REMARK    1  A    between atoms: C_1  and  O_2
REMARK    2  A    between atoms: O_2  and  C_3
REMARK    3  A    between atoms: C_7  and  C_8
REMARK    4  A    between atoms: C_10  and  C_11
REMARK    5  A    between atoms: C_18  and  N_19
REMARK    6  A    between atoms: C_20  and  O_22
REMARK    7  A    between atoms: O_22  and  C_23
REMARK    8  A    between atoms: C_23  and  C_24
REMARK    9  A    between atoms: C_23  and  C_25
REMARK   10  A    between atoms: C_23  and  C_26
REMARK                            x       y       z     vdW  Elec       q    Type
REMARK                         _______ _______ _______ _____ _____    ______ ____
ROOT
ATOM      1  C   UNL     1       3.792   6.003  18.311  0.00  0.00    +0.000 A 
ATOM      2  C   UNL     1       3.391   4.974  19.187  0.00  0.00    +0.000 A 
ATOM      3  C   UNL     1       2.394   5.164  20.141  0.00  0.00    +0.000 A 
ATOM      4  C   UNL     1       1.894   6.450  20.280  0.00  0.00    +0.000 A 
ATOM      5  N   UNL     1       1.118   6.929  21.300  0.00  0.00    +0.000 N 
ATOM      6  C   UNL     1       0.857   8.247  21.126  0.00  0.00    +0.000 A 
ATOM      7  C   UNL     1       0.266   9.117  22.038  0.00  0.00    +0.000 A 
ATOM      8  C   UNL     1      -0.061  10.403  21.628  0.00  0.00    +0.000 A 
ATOM      9  C   UNL     1       0.104  10.728  20.276  0.00  0.00    +0.000 A 
ATOM     10  C   UNL     1       0.818   9.863  19.387  0.00  0.00    +0.000 A 
ATOM     11  C   UNL     1       1.271   8.598  19.846  0.00  0.00    +0.000 A 
ATOM     12  C   UNL     1       2.128   7.504  19.396  0.00  0.00    +0.000 A 
ATOM     13  C   UNL     1       3.090   7.251  18.370  0.00  0.00    +0.000 A 
ATOM     14  H   UNL     1       0.862   6.379  22.111  0.00  0.00    +0.000 HD
ENDROOT
BRANCH   1  19
ATOM     15  C   UNL     1       6.001   4.429  15.595  0.00  0.00    +0.000 A 
ATOM     16  C   UNL     1       7.198   5.111  15.788  0.00  0.00    +0.000 A 
ATOM     17  C   UNL     1       7.296   6.088  16.777  0.00  0.00    +0.000 A 
ATOM     18  C   UNL     1       6.191   6.392  17.584  0.00  0.00    +0.000 A 
ATOM     19  C   UNL     1       4.957   5.746  17.406  0.00  0.00    +0.000 A 
ATOM     20  C   UNL     1       4.895   4.756  16.390  0.00  0.00    +0.000 A 
BRANCH  15  22
ATOM     21  C   UNL     1       6.333   3.894  13.293  0.00  0.00    +0.000 C 
ATOM     22  O   UNL     1       6.042   3.471  14.618  0.00  0.00    +0.000 OA
ENDBRANCH  15  22
ENDBRANCH   1  19
BRANCH   3  23
ATOM     23  C   UNL     1       1.867   4.092  21.021  0.00  0.00    +0.000 C 
ATOM     24  N   UNL     1       0.753   3.427  20.592  0.00  0.00    +0.000 N 
ATOM     25  O   UNL     1       2.333   3.882  22.136  0.00  0.00    +0.000 OA
ATOM     26  H   UNL     1       0.181   3.787  19.842  0.00  0.00    +0.000 HD
ATOM     27  H   UNL     1       0.287   2.875  21.303  0.00  0.00    +0.000 HD
ENDBRANCH   3  23
BRANCH   8  28
ATOM     28  N   UNL     1      -0.561  11.335  22.578  0.00  0.00    +0.000 N 
ATOM     29  C   UNL     1      -0.686  12.689  22.319  0.00  0.00    +0.000 C 
ATOM     30  O   UNL     1      -0.477  13.229  21.243  0.00  0.00    +0.000 OA
ATOM     31  H   UNL     1      -0.999  10.997  23.422  0.00  0.00    +0.000 HD
BRANCH  29  32
ATOM     32  O   UNL     1      -1.136  13.366  23.414  0.00  0.00    +0.000 OA
BRANCH  32  33
ATOM     33  C   UNL     1      -2.529  13.820  23.423  0.00  0.00    +0.000 C 
ATOM     34  C   UNL     1      -2.956  14.272  24.828  0.00  0.00    +0.000 C 
ATOM     35  C   UNL     1      -2.584  15.047  22.496  0.00  0.00    +0.000 C 
ATOM     36  C   UNL     1      -3.499  12.770  22.854  0.00  0.00    +0.000 C 
ENDBRANCH  32  33
ENDBRANCH  29  32
ENDBRANCH   8  28
TORSDOF 6
ENDMDL
MODEL 8
REMARK VINA RESULT:      -8.3      1.101      1.213
REMARK  Name = 
REMARK  10 active torsions:
REMARK  status: ('A' for Active; 'I' for Inactive)
REMARK    1  A    between atoms: C_1  and  O_2
REMARK    2  A    between atoms: O_2  and  C_3
REMARK    3  A    between atoms: C_7  and  C_8
REMARK    4  A    between atoms: C_10  and  C_11
REMARK    5  A    between atoms: C_18  and  N_19
REMARK    6  A    between atoms: C_20  and  O_22
REMARK    7  A    between atoms: O_22  and  C_23
REMARK    8  A    between atoms: C_23  and  C_24
REMARK    9  A    between atoms: C_23  and  C_25
REMARK   10  A    between atoms: C_23  and  C_26
REMARK                            x       y       z     vdW  Elec       q    Type
REMARK                         _______ _______ _______ _____ _____    ______ ____
ROOT
ATOM      1  C   UNL     1       4.098   5.607  17.522  0.00  0.00    +0.000 A 
ATOM      2  C   UNL     1       3.818   4.644  18.513  0.00  0.00    +0.000 A 
ATOM      3  C   UNL     1       2.938   4.899  19.562  0.00  0.00    +0.000 A 
ATOM      4  C   UNL     1       2.440   6.188  19.666  0.00  0.00    +0.000 A 
ATOM      5  N   UNL     1       1.784   6.737  20.733  0.00  0.00    +0.000 N 
ATOM      6  C   UNL     1       1.485   8.038  20.497  0.00  0.00    +0.000 A 
ATOM      7  C   UNL     1       0.994   8.969  21.406  0.00  0.00    +0.000 A 
ATOM      8  C   UNL     1       0.602  10.219  20.946  0.00  0.00    +0.000 A 
ATOM      9  C   UNL     1       0.601  10.444  19.563  0.00  0.00    +0.000 A 
ATOM     10  C   UNL     1       1.217   9.520  18.661  0.00  0.00    +0.000 A 
ATOM     11  C   UNL     1       1.739   8.295  19.154  0.00  0.00    +0.000 A 
ATOM     12  C   UNL     1       2.553   7.175  18.686  0.00  0.00    +0.000 A 
ATOM     13  C   UNL     1       3.390   6.852  17.574  0.00  0.00    +0.000 A 
ATOM     14  H   UNL     1       1.634   6.248  21.607  0.00  0.00    +0.000 HD
ENDROOT
BRANCH   1  19
ATOM     15  C   UNL     1       5.800   4.254  14.360  0.00  0.00    +0.000 A 
ATOM     16  C   UNL     1       7.138   4.519  14.636  0.00  0.00    +0.000 A 
ATOM     17  C   UNL     1       7.497   5.146  15.827  0.00  0.00    +0.000 A 
ATOM     18  C   UNL     1       6.514   5.516  16.756  0.00  0.00    +0.000 A 
ATOM     19  C   UNL     1       5.151   5.290  16.506  0.00  0.00    +0.000 A 
ATOM     20  C   UNL     1       4.823   4.648  15.283  0.00  0.00    +0.000 A 
BRANCH  15  22
ATOM     21  C   UNL     1       6.637   3.591  12.225  0.00  0.00    +0.000 C 
ATOM     22  O   UNL     1       5.580   3.603  13.176  0.00  0.00    +0.000 OA
ENDBRANCH  15  22
ENDBRANCH   1  19
BRANCH   3  23
ATOM     23  C   UNL     1       2.535   3.892  20.575  0.00  0.00    +0.000 C 
ATOM     24  N   UNL     1       3.368   2.825  20.756  0.00  0.00    +0.000 N 
ATOM     25  O   UNL     1       1.449   3.945  21.145  0.00  0.00    +0.000 OA
ATOM     26  H   UNL     1       4.093   2.603  20.090  0.00  0.00    +0.000 HD
ATOM     27  H   UNL     1       2.962   2.051  21.270  0.00  0.00    +0.000 HD
ENDBRANCH   3  23
BRANCH   8  28
ATOM     28  N   UNL     1       0.206  11.217  21.878  0.00  0.00    +0.000 N 
ATOM     29  C   UNL     1       0.303  12.573  21.625  0.00  0.00    +0.000 C 
ATOM     30  O   UNL     1       0.645  13.076  20.565  0.00  0.00    +0.000 OA
ATOM     31  H   UNL     1      -0.320  10.950  22.697  0.00  0.00    +0.000 HD
BRANCH  29  32
ATOM     32  O   UNL     1      -0.092  13.312  22.702  0.00  0.00    +0.000 OA
BRANCH  32  33
ATOM     33  C   UNL     1      -1.527  13.505  22.920  0.00  0.00    +0.000 C 
ATOM     34  C   UNL     1      -1.785  14.492  24.070  0.00  0.00    +0.000 C 
ATOM     35  C   UNL     1      -2.075  14.133  21.628  0.00  0.00    +0.000 C 
ATOM     36  C   UNL     1      -2.278  12.180  23.142  0.00  0.00    +0.000 C 
ENDBRANCH  32  33
ENDBRANCH  29  32
ENDBRANCH   8  28
TORSDOF 6
ENDMDL
MODEL 9
REMARK VINA RESULT:      -8.3      1.596      2.233
REMARK  Name = 
REMARK  10 active torsions:
REMARK  status: ('A' for Active; 'I' for Inactive)
REMARK    1  A    between atoms: C_1  and  O_2
REMARK    2  A    between atoms: O_2  and  C_3
REMARK    3  A    between atoms: C_7  and  C_8
REMARK    4  A    between atoms: C_10  and  C_11
REMARK    5  A    between atoms: C_18  and  N_19
REMARK    6  A    between atoms: C_20  and  O_22
REMARK    7  A    between atoms: O_22  and  C_23
REMARK    8  A    between atoms: C_23  and  C_24
REMARK    9  A    between atoms: C_23  and  C_25
REMARK   10  A    between atoms: C_23  and  C_26
REMARK                            x       y       z     vdW  Elec       q    Type
REMARK                         _______ _______ _______ _____ _____    ______ ____
ROOT
ATOM      1  C   UNL     1       4.750   5.159  16.546  0.00  0.00    +0.000 A 
ATOM      2  C   UNL     1       4.753   4.207  17.585  0.00  0.00    +0.000 A 
ATOM      3  C   UNL     1       3.993   4.374  18.741  0.00  0.00    +0.000 A 
ATOM      4  C   UNL     1       3.328   5.581  18.887  0.00  0.00    +0.000 A 
ATOM      5  N   UNL     1       2.747   6.073  20.023  0.00  0.00    +0.000 N 
ATOM      6  C   UNL     1       2.228   7.306  19.804  0.00  0.00    +0.000 A 
ATOM      7  C   UNL     1       1.731   8.193  20.754  0.00  0.00    +0.000 A 
ATOM      8  C   UNL     1       1.099   9.353  20.327  0.00  0.00    +0.000 A 
ATOM      9  C   UNL     1       0.878   9.519  18.953  0.00  0.00    +0.000 A 
ATOM     10  C   UNL     1       1.498   8.657  17.993  0.00  0.00    +0.000 A 
ATOM     11  C   UNL     1       2.258   7.542  18.434  0.00  0.00    +0.000 A 
ATOM     12  C   UNL     1       3.160   6.533  17.881  0.00  0.00    +0.000 A 
ATOM     13  C   UNL     1       3.878   6.290  16.669  0.00  0.00    +0.000 A 
ATOM     14  H   UNL     1       2.790   5.603  20.919  0.00  0.00    +0.000 HD
ENDROOT
BRANCH   1  19
ATOM     15  C   UNL     1       6.206   3.914  13.220  0.00  0.00    +0.000 A 
ATOM     16  C   UNL     1       7.506   4.407  13.290  0.00  0.00    +0.000 A 
ATOM     17  C   UNL     1       7.913   5.154  14.394  0.00  0.00    +0.000 A 
ATOM     18  C   UNL     1       7.019   5.415  15.441  0.00  0.00    +0.000 A 
ATOM     19  C   UNL     1       5.692   4.957  15.400  0.00  0.00    +0.000 A 
ATOM     20  C   UNL     1       5.313   4.199  14.261  0.00  0.00    +0.000 A 
BRANCH  15  22
ATOM     21  C   UNL     1       4.597   3.141  11.636  0.00  0.00    +0.000 C 
ATOM     22  O   UNL     1       5.939   3.167  12.105  0.00  0.00    +0.000 OA
ENDBRANCH  15  22
ENDBRANCH   1  19
BRANCH   3  23
ATOM     23  C   UNL     1       3.884   3.362  19.820  0.00  0.00    +0.000 C 
ATOM     24  N   UNL     1       4.874   2.424  19.895  0.00  0.00    +0.000 N 
ATOM     25  O   UNL     1       2.896   3.291  20.544  0.00  0.00    +0.000 OA
ATOM     26  H   UNL     1       5.519   2.276  19.132  0.00  0.00    +0.000 HD
ATOM     27  H   UNL     1       4.659   1.623  20.477  0.00  0.00    +0.000 HD
ENDBRANCH   3  23
BRANCH   8  28
ATOM     28  N   UNL     1       0.687  10.320  21.285  0.00  0.00    +0.000 N 
ATOM     29  C   UNL     1       0.737  11.683  21.055  0.00  0.00    +0.000 C 
ATOM     30  O   UNL     1       1.045  12.216  20.000  0.00  0.00    +0.000 OA
ATOM     31  H   UNL     1       0.184  10.021  22.106  0.00  0.00    +0.000 HD
BRANCH  29  32
ATOM     32  O   UNL     1       0.338  12.389  22.153  0.00  0.00    +0.000 OA
BRANCH  32  33
ATOM     33  C   UNL     1      -1.099  12.532  22.399  0.00  0.00    +0.000 C 
ATOM     34  C   UNL     1      -1.885  12.583  21.079  0.00  0.00    +0.000 C 
ATOM     35  C   UNL     1      -1.531  11.265  23.157  0.00  0.00    +0.000 C 
ATOM     36  C   UNL     1      -1.430  13.739  23.295  0.00  0.00    +0.000 C 
ENDBRANCH  32  33
ENDBRANCH  29  32
ENDBRANCH   8  28
TORSDOF 6
ENDMDL
