MODEL 1
REMARK VINA RESULT:      -6.9      0.000      0.000
REMARK  Name = 
REMARK  8 active torsions:
REMARK  status: ('A' for Active; 'I' for Inactive)
REMARK    1  A    between atoms: C_2  and  C_3
REMARK    2  A    between atoms: C_3  and  S_4
REMARK    3  A    between atoms: S_4  and  C_5
REMARK    4  A    between atoms: N_15  and  C1*_16
REMARK    5  A    between atoms: C4*_18  and  C5*_19
REMARK    6  A    between atoms: C5*_19  and  O5*_20
REMARK    7  A    between atoms: C3*_21  and  O3*_22
REMARK    8  A    between atoms: C2*_23  and  O2*_24
REMARK                            x       y       z     vdW  Elec       q    Type
REMARK                         _______ _______ _______ _____ _____    ______ ____
ROOT
ATOM      1  C   UNL     1       4.656   5.602  16.328  0.00  0.00    +0.000 A 
ATOM      2  N   UNL     1       4.475   6.904  16.343  0.00  0.00    +0.000 NA
ATOM      3  C   UNL     1       3.610   7.142  17.385  0.00  0.00    +0.000 A 
ATOM      4  C   UNL     1       3.048   8.352  17.835  0.00  0.00    +0.000 A 
ATOM      5  C   UNL     1       2.185   8.342  18.941  0.00  0.00    +0.000 A 
ATOM      6 CL   UNL     1       1.503   9.851  19.444  0.00  0.00    +0.000 Cl
ATOM      7  C   UNL     1       1.895   7.149  19.605  0.00  0.00    +0.000 A 
ATOM      8 CL   UNL     1       0.853   7.073  20.987  0.00  0.00    +0.000 Cl
ATOM      9  C   UNL     1       2.449   5.941  19.169  0.00  0.00    +0.000 A 
ATOM     10  C   UNL     1       3.287   5.955  18.045  0.00  0.00    +0.000 A 
ATOM     11  N   UNL     1       3.950   4.971  17.334  0.00  0.00    +0.000 N 
ENDROOT
BRANCH  11  12
ATOM     12  C1* UNL     1       3.862   3.540  17.599  0.00  0.00    +0.000 C 
ATOM     13  O4* UNL     1       2.538   3.081  17.251  0.00  0.00    +0.000 OA
ATOM     14  C4* UNL     1       2.148   2.035  18.164  0.00  0.00    +0.000 C 
ATOM     15  C3* UNL     1       3.260   1.891  19.210  0.00  0.00    +0.000 C 
ATOM     16  C2* UNL     1       4.103   3.151  19.058  0.00  0.00    +0.000 C 
BRANCH  15  17
ATOM     17  O3* UNL     1       4.112   0.760  18.941  0.00  0.00    +0.000 OA
ATOM     18  H3* UNL     1       3.940   0.430  18.042  0.00  0.00    +0.000 HD
ENDBRANCH  15  17
BRANCH  16  19
ATOM     19  O2* UNL     1       5.484   2.913  19.333  0.00  0.00    +0.000 OA
ATOM     20  H2* UNL     1       5.686   2.025  18.970  0.00  0.00    +0.000 HD
ENDBRANCH  16  19
BRANCH  14  21
ATOM     21  C5* UNL     1       0.761   2.354  18.733  0.00  0.00    +0.000 C 
BRANCH  21  22
ATOM     22  O5* UNL     1       0.840   2.790  20.080  0.00  0.00    +0.000 OA
ATOM     23  H5* UNL     1      -0.028   2.637  20.495  0.00  0.00    +0.000 HD
ENDBRANCH  21  22
ENDBRANCH  14  21
ENDBRANCH  11  12
BRANCH   1  24
ATOM     24  S   UNL     1       5.593   4.747  15.143  0.00  0.00    +0.000 S 
BRANCH  24  25
ATOM     25  C   UNL     1       7.326   5.057  15.655  0.00  0.00    +0.000 C 
BRANCH  25  27
ATOM     26  N   UNL     1       7.602   4.545  18.374  0.00  0.00    +0.000 NA
ATOM     27  C   UNL     1       7.477   4.777  17.140  0.00  0.00    +0.000 C 
ENDBRANCH  25  27
ENDBRANCH  24  25
ENDBRANCH   1  24
TORSDOF 8
ENDMDL
MODEL 2
REMARK VINA RESULT:      -6.6      1.237      1.284
REMARK  Name = 
REMARK  8 active torsions:
REMARK  status: ('A' for Active; 'I' for Inactive)
REMARK    1  A    between atoms: C_2  and  C_3
REMARK    2  A    between atoms: C_3  and  S_4
REMARK    3  A    between atoms: S_4  and  C_5
REMARK    4  A    between atoms: N_15  and  C1*_16
REMARK    5  A    between atoms: C4*_18  and  C5*_19
REMARK    6  A    between atoms: C5*_19  and  O5*_20
REMARK    7  A    between atoms: C3*_21  and  O3*_22
REMARK    8  A    between atoms: C2*_23  and  O2*_24
REMARK                            x       y       z     vdW  Elec       q    Type
REMARK                         _______ _______ _______ _____ _____    ______ ____
ROOT
ATOM      1  C   UNL     1       4.438   5.990  16.675  0.00  0.00    +0.000 A 
ATOM      2  N   UNL     1       4.097   7.250  16.526  0.00  0.00    +0.000 NA
ATOM      3  C   UNL     1       3.282   7.538  17.595  0.00  0.00    +0.000 A 
ATOM      4  C   UNL     1       2.604   8.729  17.921  0.00  0.00    +0.000 A 
ATOM      5  C   UNL     1       1.827   8.783  19.087  0.00  0.00    +0.000 A 
ATOM      6 CL   UNL     1       0.997  10.261  19.434  0.00  0.00    +0.000 Cl
ATOM      7  C   UNL     1       1.735   7.675  19.931  0.00  0.00    +0.000 A 
ATOM      8 CL   UNL     1       0.807   7.684  21.394  0.00  0.00    +0.000 Cl
ATOM      9  C   UNL     1       2.404   6.487  19.620  0.00  0.00    +0.000 A 
ATOM     10  C   UNL     1       3.156   6.432  18.437  0.00  0.00    +0.000 A 
ATOM     11  N   UNL     1       3.887   5.436  17.815  0.00  0.00    +0.000 N 
ENDROOT
BRANCH  11  12
ATOM     12  C1* UNL     1       3.997   4.059  18.280  0.00  0.00    +0.000 C 
ATOM     13  O4* UNL     1       2.674   3.553  18.560  0.00  0.00    +0.000 OA
ATOM     14  C4* UNL     1       2.743   2.651  19.682  0.00  0.00    +0.000 C 
ATOM     15  C3* UNL     1       4.186   2.662  20.202  0.00  0.00    +0.000 C 
ATOM     16  C2* UNL     1       4.822   3.887  19.556  0.00  0.00    +0.000 C 
BRANCH  15  17
ATOM     17  O3* UNL     1       4.925   1.505  19.766  0.00  0.00    +0.000 OA
ATOM     18  H3* UNL     1       4.833   0.792  20.421  0.00  0.00    +0.000 HD
ENDBRANCH  15  17
BRANCH  16  19
ATOM     19  O2* UNL     1       6.210   3.693  19.281  0.00  0.00    +0.000 OA
ATOM     20  H2* UNL     1       6.697   4.206  19.961  0.00  0.00    +0.000 HD
ENDBRANCH  16  19
BRANCH  14  21
ATOM     21  C5* UNL     1       1.681   3.048  20.713  0.00  0.00    +0.000 C 
BRANCH  21  22
ATOM     22  O5* UNL     1       2.217   3.079  22.026  0.00  0.00    +0.000 OA
ATOM     23  H5* UNL     1       1.472   3.109  22.653  0.00  0.00    +0.000 HD
ENDBRANCH  21  22
ENDBRANCH  14  21
ENDBRANCH  11  12
BRANCH   1  24
ATOM     24  S   UNL     1       5.392   5.082  15.543  0.00  0.00    +0.000 S 
BRANCH  24  25
ATOM     25  C   UNL     1       7.042   4.995  16.339  0.00  0.00    +0.000 C 
BRANCH  25  27
ATOM     26  N   UNL     1       7.558   7.377  17.678  0.00  0.00    +0.000 NA
ATOM     27  C   UNL     1       7.324   6.296  17.071  0.00  0.00    +0.000 C 
ENDBRANCH  25  27
ENDBRANCH  24  25
ENDBRANCH   1  24
TORSDOF 8
ENDMDL
MODEL 3
REMARK VINA RESULT:      -6.3      1.764      2.674
REMARK  Name = 
REMARK  8 active torsions:
REMARK  status: ('A' for Active; 'I' for Inactive)
REMARK    1  A    between atoms: C_2  and  C_3
REMARK    2  A    between atoms: C_3  and  S_4
REMARK    3  A    between atoms: S_4  and  C_5
REMARK    4  A    between atoms: N_15  and  C1*_16
REMARK    5  A    between atoms: C4*_18  and  C5*_19
REMARK    6  A    between atoms: C5*_19  and  O5*_20
REMARK    7  A    between atoms: C3*_21  and  O3*_22
REMARK    8  A    between atoms: C2*_23  and  O2*_24
REMARK                            x       y       z     vdW  Elec       q    Type
REMARK                         _______ _______ _______ _____ _____    ______ ____
ROOT
ATOM      1  C   UNL     1       3.518   5.977  18.009  0.00  0.00    +0.000 A 
ATOM      2  N   UNL     1       3.375   7.124  17.385  0.00  0.00    +0.000 NA
ATOM      3  C   UNL     1       2.590   7.895  18.210  0.00  0.00    +0.000 A 
ATOM      4  C   UNL     1       2.094   9.200  18.026  0.00  0.00    +0.000 A 
ATOM      5  C   UNL     1       1.309   9.786  19.030  0.00  0.00    +0.000 A 
ATOM      6 CL   UNL     1       0.705  11.383  18.750  0.00  0.00    +0.000 Cl
ATOM      7  C   UNL     1       1.032   9.095  20.211  0.00  0.00    +0.000 A 
ATOM      8 CL   UNL     1       0.085   9.770  21.494  0.00  0.00    +0.000 Cl
ATOM      9  C   UNL     1       1.521   7.799  20.405  0.00  0.00    +0.000 A 
ATOM     10  C   UNL     1       2.280   7.209  19.385  0.00  0.00    +0.000 A 
ATOM     11  N   UNL     1       2.866   5.965  19.226  0.00  0.00    +0.000 N 
ENDROOT
BRANCH  11  12
ATOM     12  C1* UNL     1       2.757   4.859  20.169  0.00  0.00    +0.000 C 
ATOM     13  O4* UNL     1       3.961   4.064  20.099  0.00  0.00    +0.000 OA
ATOM     14  C4* UNL     1       3.623   2.679  20.314  0.00  0.00    +0.000 C 
ATOM     15  C3* UNL     1       2.097   2.585  20.437  0.00  0.00    +0.000 C 
ATOM     16  C2* UNL     1       1.581   3.917  19.907  0.00  0.00    +0.000 C 
BRANCH  15  17
ATOM     17  O3* UNL     1       1.672   2.465  21.808  0.00  0.00    +0.000 OA
ATOM     18  H3* UNL     1       1.183   1.633  21.927  0.00  0.00    +0.000 HD
ENDBRANCH  15  17
BRANCH  16  19
ATOM     19  O2* UNL     1       0.391   4.339  20.574  0.00  0.00    +0.000 OA
ATOM     20  H2* UNL     1      -0.176   4.750  19.887  0.00  0.00    +0.000 HD
ENDBRANCH  16  19
BRANCH  14  21
ATOM     21  C5* UNL     1       4.237   1.831  19.196  0.00  0.00    +0.000 C 
BRANCH  21  22
ATOM     22  O5* UNL     1       3.236   1.204  18.410  0.00  0.00    +0.000 OA
ATOM     23  H5* UNL     1       3.661   0.500  17.889  0.00  0.00    +0.000 HD
ENDBRANCH  21  22
ENDBRANCH  14  21
ENDBRANCH  11  12
BRANCH   1  24
ATOM     24  S   UNL     1       4.348   4.595  17.362  0.00  0.00    +0.000 S 
BRANCH  24  25
ATOM     25  C   UNL     1       6.091   5.153  17.243  0.00  0.00    +0.000 C 
BRANCH  25  27
ATOM     26  N   UNL     1       7.168   5.396  19.795  0.00  0.00    +0.000 NA
ATOM     27  C   UNL     1       6.680   5.285  18.637  0.00  0.00    +0.000 C 
ENDBRANCH  25  27
ENDBRANCH  24  25
ENDBRANCH   1  24
TORSDOF 8
ENDMDL
MODEL 4
REMARK VINA RESULT:      -6.3      1.813      2.709
REMARK  Name = 
REMARK  8 active torsions:
REMARK  status: ('A' for Active; 'I' for Inactive)
REMARK    1  A    between atoms: C_2  and  C_3
REMARK    2  A    between atoms: C_3  and  S_4
REMARK    3  A    between atoms: S_4  and  C_5
REMARK    4  A    between atoms: N_15  and  C1*_16
REMARK    5  A    between atoms: C4*_18  and  C5*_19
REMARK    6  A    between atoms: C5*_19  and  O5*_20
REMARK    7  A    between atoms: C3*_21  and  O3*_22
REMARK    8  A    between atoms: C2*_23  and  O2*_24
REMARK                            x       y       z     vdW  Elec       q    Type
REMARK                         _______ _______ _______ _____ _____    ______ ____
ROOT
ATOM      1  C   UNL     1       3.551   5.972  17.975  0.00  0.00    +0.000 A 
ATOM      2  N   UNL     1       3.402   7.119  17.351  0.00  0.00    +0.000 NA
ATOM      3  C   UNL     1       2.617   7.888  18.177  0.00  0.00    +0.000 A 
ATOM      4  C   UNL     1       2.117   9.191  17.994  0.00  0.00    +0.000 A 
ATOM      5  C   UNL     1       1.333   9.776  19.000  0.00  0.00    +0.000 A 
ATOM      6 CL   UNL     1       0.723  11.371  18.721  0.00  0.00    +0.000 Cl
ATOM      7  C   UNL     1       1.063   9.086  20.183  0.00  0.00    +0.000 A 
ATOM      8 CL   UNL     1       0.119   9.759  21.469  0.00  0.00    +0.000 Cl
ATOM      9  C   UNL     1       1.556   7.791  20.377  0.00  0.00    +0.000 A 
ATOM     10  C   UNL     1       2.314   7.202  19.355  0.00  0.00    +0.000 A 
ATOM     11  N   UNL     1       2.903   5.960  19.195  0.00  0.00    +0.000 N 
ENDROOT
BRANCH  11  12
ATOM     12  C1* UNL     1       2.801   4.855  20.140  0.00  0.00    +0.000 C 
ATOM     13  O4* UNL     1       4.000   4.054  20.054  0.00  0.00    +0.000 OA
ATOM     14  C4* UNL     1       3.658   2.671  20.274  0.00  0.00    +0.000 C 
ATOM     15  C3* UNL     1       2.133   2.584  20.416  0.00  0.00    +0.000 C 
ATOM     16  C2* UNL     1       1.618   3.918  19.893  0.00  0.00    +0.000 C 
BRANCH  15  17
ATOM     17  O3* UNL     1       1.726   2.467  21.793  0.00  0.00    +0.000 OA
ATOM     18  H3* UNL     1       2.483   2.649  22.375  0.00  0.00    +0.000 HD
ENDBRANCH  15  17
BRANCH  16  19
ATOM     19  O2* UNL     1       0.438   4.346  20.575  0.00  0.00    +0.000 OA
ATOM     20  H2* UNL     1       0.625   4.247  21.532  0.00  0.00    +0.000 HD
ENDBRANCH  16  19
BRANCH  14  21
ATOM     21  C5* UNL     1       4.254   1.820  19.148  0.00  0.00    +0.000 C 
BRANCH  21  22
ATOM     22  O5* UNL     1       3.241   1.174  18.394  0.00  0.00    +0.000 OA
ATOM     23  H5* UNL     1       3.672   0.534  17.800  0.00  0.00    +0.000 HD
ENDBRANCH  21  22
ENDBRANCH  14  21
ENDBRANCH  11  12
BRANCH   1  24
ATOM     24  S   UNL     1       4.382   4.593  17.327  0.00  0.00    +0.000 S 
BRANCH  24  25
ATOM     25  C   UNL     1       6.153   4.992  17.587  0.00  0.00    +0.000 C 
BRANCH  25  27
ATOM     26  N   UNL     1       7.410   5.307  15.127  0.00  0.00    +0.000 NA
ATOM     27  C   UNL     1       6.840   5.164  16.243  0.00  0.00    +0.000 C 
ENDBRANCH  25  27
ENDBRANCH  24  25
ENDBRANCH   1  24
TORSDOF 8
ENDMDL
MODEL 5
REMARK VINA RESULT:      -6.2      1.062      1.106
REMARK  Name = 
REMARK  8 active torsions:
REMARK  status: ('A' for Active; 'I' for Inactive)
REMARK    1  A    between atoms: C_2  and  C_3
REMARK    2  A    between atoms: C_3  and  S_4
REMARK    3  A    between atoms: S_4  and  C_5
REMARK    4  A    between atoms: N_15  and  C1*_16
REMARK    5  A    between atoms: C4*_18  and  C5*_19
REMARK    6  A    between atoms: C5*_19  and  O5*_20
REMARK    7  A    between atoms: C3*_21  and  O3*_22
REMARK    8  A    between atoms: C2*_23  and  O2*_24
REMARK                            x       y       z     vdW  Elec       q    Type
REMARK                         _______ _______ _______ _____ _____    ______ ____
ROOT
ATOM      1  C   UNL     1       4.276   6.305  16.728  0.00  0.00    +0.000 A 
ATOM      2  N   UNL     1       3.897   7.558  16.603  0.00  0.00    +0.000 NA
ATOM      3  C   UNL     1       3.082   7.804  17.682  0.00  0.00    +0.000 A 
ATOM      4  C   UNL     1       2.373   8.969  18.033  0.00  0.00    +0.000 A 
ATOM      5  C   UNL     1       1.603   8.980  19.206  0.00  0.00    +0.000 A 
ATOM      6 CL   UNL     1       0.734  10.427  19.584  0.00  0.00    +0.000 Cl
ATOM      7  C   UNL     1       1.550   7.856  20.032  0.00  0.00    +0.000 A 
ATOM      8 CL   UNL     1       0.633   7.813  21.501  0.00  0.00    +0.000 Cl
ATOM      9  C   UNL     1       2.250   6.694  19.695  0.00  0.00    +0.000 A 
ATOM     10  C   UNL     1       2.994   6.681  18.506  0.00  0.00    +0.000 A 
ATOM     11  N   UNL     1       3.749   5.717  17.862  0.00  0.00    +0.000 N 
ENDROOT
BRANCH  11  12
ATOM     12  C1* UNL     1       3.903   4.336  18.303  0.00  0.00    +0.000 C 
ATOM     13  O4* UNL     1       2.601   3.712  18.348  0.00  0.00    +0.000 OA
ATOM     14  C4* UNL     1       2.567   2.775  19.443  0.00  0.00    +0.000 C 
ATOM     15  C3* UNL     1       3.901   2.883  20.192  0.00  0.00    +0.000 C 
ATOM     16  C2* UNL     1       4.523   4.181  19.692  0.00  0.00    +0.000 C 
BRANCH  15  17
ATOM     17  O3* UNL     1       4.799   1.809  19.853  0.00  0.00    +0.000 OA
ATOM     18  H3* UNL     1       5.718   2.095  19.993  0.00  0.00    +0.000 HD
ENDBRANCH  15  17
BRANCH  16  19
ATOM     19  O2* UNL     1       5.949   4.113  19.643  0.00  0.00    +0.000 OA
ATOM     20  H2* UNL     1       6.222   4.653  18.872  0.00  0.00    +0.000 HD
ENDBRANCH  16  19
BRANCH  14  21
ATOM     21  C5* UNL     1       1.322   3.042  20.296  0.00  0.00    +0.000 C 
BRANCH  21  22
ATOM     22  O5* UNL     1       0.131   2.776  19.573  0.00  0.00    +0.000 OA
ATOM     23  H5* UNL     1       0.019   3.481  18.910  0.00  0.00    +0.000 HD
ENDBRANCH  21  22
ENDBRANCH  14  21
ENDBRANCH  11  12
BRANCH   1  24
ATOM     24  S   UNL     1       5.247   5.445  15.574  0.00  0.00    +0.000 S 
BRANCH  24  25
ATOM     25  C   UNL     1       6.958   5.969  15.972  0.00  0.00    +0.000 C 
BRANCH  25  27
ATOM     26  N   UNL     1       8.108   4.146  17.729  0.00  0.00    +0.000 NA
ATOM     27  C   UNL     1       7.586   4.973  16.932  0.00  0.00    +0.000 C 
ENDBRANCH  25  27
ENDBRANCH  24  25
ENDBRANCH   1  24
TORSDOF 8
ENDMDL
MODEL 6
REMARK VINA RESULT:      -6.1      2.582      4.820
REMARK  Name = 
REMARK  8 active torsions:
REMARK  status: ('A' for Active; 'I' for Inactive)
REMARK    1  A    between atoms: C_2  and  C_3
REMARK    2  A    between atoms: C_3  and  S_4
REMARK    3  A    between atoms: S_4  and  C_5
REMARK    4  A    between atoms: N_15  and  C1*_16
REMARK    5  A    between atoms: C4*_18  and  C5*_19
REMARK    6  A    between atoms: C5*_19  and  O5*_20
REMARK    7  A    between atoms: C3*_21  and  O3*_22
REMARK    8  A    between atoms: C2*_23  and  O2*_24
REMARK                            x       y       z     vdW  Elec       q    Type
REMARK                         _______ _______ _______ _____ _____    ______ ____
ROOT
ATOM      1  C   UNL     1       3.499   4.273  19.757  0.00  0.00    +0.000 A 
ATOM      2  N   UNL     1       2.495   4.741  20.464  0.00  0.00    +0.000 NA
ATOM      3  C   UNL     1       2.294   6.024  20.012  0.00  0.00    +0.000 A 
ATOM      4  C   UNL     1       1.373   6.999  20.439  0.00  0.00    +0.000 A 
ATOM      5  C   UNL     1       1.354   8.252  19.808  0.00  0.00    +0.000 A 
ATOM      6 CL   UNL     1       0.218   9.425  20.380  0.00  0.00    +0.000 Cl
ATOM      7  C   UNL     1       2.225   8.530  18.753  0.00  0.00    +0.000 A 
ATOM      8 CL   UNL     1       2.238  10.049  17.922  0.00  0.00    +0.000 Cl
ATOM      9  C   UNL     1       3.144   7.569  18.320  0.00  0.00    +0.000 A 
ATOM     10  C   UNL     1       3.177   6.330  18.975  0.00  0.00    +0.000 A 
ATOM     11  N   UNL     1       3.962   5.198  18.842  0.00  0.00    +0.000 N 
ENDROOT
BRANCH  11  12
ATOM     12  C1* UNL     1       5.088   5.060  17.926  0.00  0.00    +0.000 C 
ATOM     13  O4* UNL     1       6.249   4.635  18.673  0.00  0.00    +0.000 OA
ATOM     14  C4* UNL     1       7.425   5.234  18.093  0.00  0.00    +0.000 C 
ATOM     15  C3* UNL     1       6.967   6.169  16.967  0.00  0.00    +0.000 C 
ATOM     16  C2* UNL     1       5.471   6.347  17.195  0.00  0.00    +0.000 C 
BRANCH  15  17
ATOM     17  O3* UNL     1       7.143   5.575  15.667  0.00  0.00    +0.000 OA
ATOM     18  H3* UNL     1       7.334   6.269  15.013  0.00  0.00    +0.000 HD
ENDBRANCH  15  17
BRANCH  16  19
ATOM     19  O2* UNL     1       4.754   6.508  15.971  0.00  0.00    +0.000 OA
ATOM     20  H2* UNL     1       5.394   6.322  15.252  0.00  0.00    +0.000 HD
ENDBRANCH  16  19
BRANCH  14  21
ATOM     21  C5* UNL     1       8.245   5.906  19.199  0.00  0.00    +0.000 C 
BRANCH  21  22
ATOM     22  O5* UNL     1       7.886   5.418  20.482  0.00  0.00    +0.000 OA
ATOM     23  H5* UNL     1       7.161   5.973  20.821  0.00  0.00    +0.000 HD
ENDBRANCH  21  22
ENDBRANCH  14  21
ENDBRANCH  11  12
BRANCH   1  24
ATOM     24  S   UNL     1       4.231   2.715  19.988  0.00  0.00    +0.000 S 
BRANCH  24  25
ATOM     25  C   UNL     1       3.501   1.691  18.653  0.00  0.00    +0.000 C 
BRANCH  25  27
ATOM     26  N   UNL     1       0.792   2.271  18.408  0.00  0.00    +0.000 NA
ATOM     27  C   UNL     1       2.021   2.008  18.520  0.00  0.00    +0.000 C 
ENDBRANCH  25  27
ENDBRANCH  24  25
ENDBRANCH   1  24
TORSDOF 8
ENDMDL
MODEL 7
REMARK VINA RESULT:      -6.1      2.670      4.829
REMARK  Name = 
REMARK  8 active torsions:
REMARK  status: ('A' for Active; 'I' for Inactive)
REMARK    1  A    between atoms: C_2  and  C_3
REMARK    2  A    between atoms: C_3  and  S_4
REMARK    3  A    between atoms: S_4  and  C_5
REMARK    4  A    between atoms: N_15  and  C1*_16
REMARK    5  A    between atoms: C4*_18  and  C5*_19
REMARK    6  A    between atoms: C5*_19  and  O5*_20
REMARK    7  A    between atoms: C3*_21  and  O3*_22
REMARK    8  A    between atoms: C2*_23  and  O2*_24
REMARK                            x       y       z     vdW  Elec       q    Type
REMARK                         _______ _______ _______ _____ _____    ______ ____
ROOT
ATOM      1  C   UNL     1       2.845   4.324  20.401  0.00  0.00    +0.000 A 
ATOM      2  N   UNL     1       1.924   5.003  21.048  0.00  0.00    +0.000 NA
ATOM      3  C   UNL     1       1.877   6.233  20.434  0.00  0.00    +0.000 A 
ATOM      4  C   UNL     1       1.095   7.364  20.736  0.00  0.00    +0.000 A 
ATOM      5  C   UNL     1       1.220   8.518  19.948  0.00  0.00    +0.000 A 
ATOM      6 CL   UNL     1       0.255   9.890  20.370  0.00  0.00    +0.000 Cl
ATOM      7  C   UNL     1       2.096   8.545  18.861  0.00  0.00    +0.000 A 
ATOM      8 CL   UNL     1       2.281   9.931  17.839  0.00  0.00    +0.000 Cl
ATOM      9  C   UNL     1       2.876   7.427  18.550  0.00  0.00    +0.000 A 
ATOM     10  C   UNL     1       2.767   6.287  19.361  0.00  0.00    +0.000 A 
ATOM     11  N   UNL     1       3.400   5.057  19.371  0.00  0.00    +0.000 N 
ENDROOT
BRANCH  11  12
ATOM     12  C1* UNL     1       4.478   4.660  18.474  0.00  0.00    +0.000 C 
ATOM     13  O4* UNL     1       5.593   5.561  18.655  0.00  0.00    +0.000 OA
ATOM     14  C4* UNL     1       6.252   5.753  17.388  0.00  0.00    +0.000 C 
ATOM     15  C3* UNL     1       5.447   4.998  16.323  0.00  0.00    +0.000 C 
ATOM     16  C2* UNL     1       4.111   4.693  16.990  0.00  0.00    +0.000 C 
BRANCH  15  17
ATOM     17  O3* UNL     1       6.058   3.741  15.973  0.00  0.00    +0.000 OA
ATOM     18  H3* UNL     1       6.637   3.448  16.697  0.00  0.00    +0.000 HD
ENDBRANCH  15  17
BRANCH  16  19
ATOM     19  O2* UNL     1       3.554   3.457  16.542  0.00  0.00    +0.000 OA
ATOM     20  H2* UNL     1       4.022   2.752  17.038  0.00  0.00    +0.000 HD
ENDBRANCH  16  19
BRANCH  14  21
ATOM     21  C5* UNL     1       6.421   7.254  17.130  0.00  0.00    +0.000 C 
BRANCH  21  22
ATOM     22  O5* UNL     1       7.789   7.612  17.024  0.00  0.00    +0.000 OA
ATOM     23  H5* UNL     1       8.130   7.249  16.186  0.00  0.00    +0.000 HD
ENDBRANCH  21  22
ENDBRANCH  14  21
ENDBRANCH  11  12
BRANCH   1  24
ATOM     24  S   UNL     1       3.380   2.728  20.828  0.00  0.00    +0.000 S 
BRANCH  24  25
ATOM     25  C   UNL     1       2.903   1.709  19.380  0.00  0.00    +0.000 C 
BRANCH  25  27
ATOM     26  N   UNL     1       0.329   2.383  18.572  0.00  0.00    +0.000 NA
ATOM     27  C   UNL     1       1.497   2.077  18.938  0.00  0.00    +0.000 C 
ENDBRANCH  25  27
ENDBRANCH  24  25
ENDBRANCH   1  24
TORSDOF 8
ENDMDL
MODEL 8
REMARK VINA RESULT:      -6.1      1.689      1.925
REMARK  Name = 
REMARK  8 active torsions:
REMARK  status: ('A' for Active; 'I' for Inactive)
REMARK    1  A    between atoms: C_2  and  C_3
REMARK    2  A    between atoms: C_3  and  S_4
REMARK    3  A    between atoms: S_4  and  C_5
REMARK    4  A    between atoms: N_15  and  C1*_16
REMARK    5  A    between atoms: C4*_18  and  C5*_19
REMARK    6  A    between atoms: C5*_19  and  O5*_20
REMARK    7  A    between atoms: C3*_21  and  O3*_22
REMARK    8  A    between atoms: C2*_23  and  O2*_24
REMARK                            x       y       z     vdW  Elec       q    Type
REMARK                         _______ _______ _______ _____ _____    ______ ____
ROOT
ATOM      1  C   UNL     1       5.190   5.815  16.487  0.00  0.00    +0.000 A 
ATOM      2  N   UNL     1       4.781   7.050  16.301  0.00  0.00    +0.000 NA
ATOM      3  C   UNL     1       3.854   7.282  17.290  0.00  0.00    +0.000 A 
ATOM      4  C   UNL     1       3.072   8.425  17.546  0.00  0.00    +0.000 A 
ATOM      5  C   UNL     1       2.189   8.425  18.636  0.00  0.00    +0.000 A 
ATOM      6 CL   UNL     1       1.235   9.844  18.899  0.00  0.00    +0.000 Cl
ATOM      7  C   UNL     1       2.094   7.313  19.475  0.00  0.00    +0.000 A 
ATOM      8 CL   UNL     1       1.038   7.259  20.847  0.00  0.00    +0.000 Cl
ATOM      9  C   UNL     1       2.867   6.173  19.231  0.00  0.00    +0.000 A 
ATOM     10  C   UNL     1       3.725   6.169  18.122  0.00  0.00    +0.000 A 
ATOM     11  N   UNL     1       4.575   5.225  17.574  0.00  0.00    +0.000 N 
ENDROOT
BRANCH  11  12
ATOM     12  C1* UNL     1       4.733   3.858  18.055  0.00  0.00    +0.000 C 
ATOM     13  O4* UNL     1       3.696   3.035  17.476  0.00  0.00    +0.000 OA
ATOM     14  C4* UNL     1       3.306   2.030  18.433  0.00  0.00    +0.000 C 
ATOM     15  C3* UNL     1       4.081   2.294  19.731  0.00  0.00    +0.000 C 
ATOM     16  C2* UNL     1       4.633   3.705  19.573  0.00  0.00    +0.000 C 
BRANCH  15  17
ATOM     17  O3* UNL     1       5.201   1.401  19.881  0.00  0.00    +0.000 OA
ATOM     18  H3* UNL     1       4.879   0.503  20.071  0.00  0.00    +0.000 HD
ENDBRANCH  15  17
BRANCH  16  19
ATOM     19  O2* UNL     1       5.897   3.865  20.218  0.00  0.00    +0.000 OA
ATOM     20  H2* UNL     1       6.577   3.672  19.538  0.00  0.00    +0.000 HD
ENDBRANCH  16  19
BRANCH  14  21
ATOM     21  C5* UNL     1       1.780   2.038  18.577  0.00  0.00    +0.000 C 
BRANCH  21  22
ATOM     22  O5* UNL     1       1.203   3.162  17.933  0.00  0.00    +0.000 OA
ATOM     23  H5* UNL     1       1.783   3.412  17.191  0.00  0.00    +0.000 HD
ENDBRANCH  21  22
ENDBRANCH  14  21
ENDBRANCH  11  12
BRANCH   1  24
ATOM     24  S   UNL     1       6.301   4.974  15.451  0.00  0.00    +0.000 S 
BRANCH  24  25
ATOM     25  C   UNL     1       5.213   4.160  14.219  0.00  0.00    +0.000 C 
BRANCH  25  27
ATOM     26  N   UNL     1       6.730   3.321  12.044  0.00  0.00    +0.000 NA
ATOM     27  C   UNL     1       6.042   3.702  13.031  0.00  0.00    +0.000 C 
ENDBRANCH  25  27
ENDBRANCH  24  25
ENDBRANCH   1  24
TORSDOF 8
ENDMDL
MODEL 9
REMARK VINA RESULT:      -6.0      2.093      3.233
REMARK  Name = 
REMARK  8 active torsions:
REMARK  status: ('A' for Active; 'I' for Inactive)
REMARK    1  A    between atoms: C_2  and  C_3
REMARK    2  A    between atoms: C_3  and  S_4
REMARK    3  A    between atoms: S_4  and  C_5
REMARK    4  A    between atoms: N_15  and  C1*_16
REMARK    5  A    between atoms: C4*_18  and  C5*_19
REMARK    6  A    between atoms: C5*_19  and  O5*_20
REMARK    7  A    between atoms: C3*_21  and  O3*_22
REMARK    8  A    between atoms: C2*_23  and  O2*_24
REMARK                            x       y       z     vdW  Elec       q    Type
REMARK                         _______ _______ _______ _____ _____    ______ ____
ROOT
ATOM      1  C   UNL     1       2.930   6.893  18.310  0.00  0.00    +0.000 A 
ATOM      2  N   UNL     1       2.599   8.111  17.945  0.00  0.00    +0.000 NA
ATOM      3  C   UNL     1       1.844   8.612  18.979  0.00  0.00    +0.000 A 
ATOM      4  C   UNL     1       1.201   9.858  19.109  0.00  0.00    +0.000 A 
ATOM      5  C   UNL     1       0.486  10.145  20.281  0.00  0.00    +0.000 A 
ATOM      6 CL   UNL     1      -0.304  11.681  20.386  0.00  0.00    +0.000 Cl
ATOM      7  C   UNL     1       0.422   9.216  21.320  0.00  0.00    +0.000 A 
ATOM      8 CL   UNL     1      -0.430   9.518  22.798  0.00  0.00    +0.000 Cl
ATOM      9  C   UNL     1       1.057   7.976  21.204  0.00  0.00    +0.000 A 
ATOM     10  C   UNL     1       1.746   7.684  20.018  0.00  0.00    +0.000 A 
ATOM     11  N   UNL     1       2.430   6.573  19.557  0.00  0.00    +0.000 N 
ENDROOT
BRANCH  11  12
ATOM     12  C1* UNL     1       2.545   5.305  20.266  0.00  0.00    +0.000 C 
ATOM     13  O4* UNL     1       3.900   4.819  20.139  0.00  0.00    +0.000 OA
ATOM     14  C4* UNL     1       3.877   3.380  20.066  0.00  0.00    +0.000 C 
ATOM     15  C3* UNL     1       2.410   2.935  20.053  0.00  0.00    +0.000 C 
ATOM     16  C2* UNL     1       1.623   4.202  19.745  0.00  0.00    +0.000 C 
BRANCH  15  17
ATOM     17  O3* UNL     1       1.980   2.456  21.342  0.00  0.00    +0.000 OA
ATOM     18  H3* UNL     1       1.097   2.056  21.264  0.00  0.00    +0.000 HD
ENDBRANCH  15  17
BRANCH  16  19
ATOM     19  O2* UNL     1       0.347   4.215  20.387  0.00  0.00    +0.000 OA
ATOM     20  H2* UNL     1      -0.292   3.865  19.732  0.00  0.00    +0.000 HD
ENDBRANCH  16  19
BRANCH  14  21
ATOM     21  C5* UNL     1       4.703   2.924  18.858  0.00  0.00    +0.000 C 
BRANCH  21  22
ATOM     22  O5* UNL     1       5.984   3.532  18.846  0.00  0.00    +0.000 OA
ATOM     23  H5* UNL     1       5.910   4.396  19.288  0.00  0.00    +0.000 HD
ENDBRANCH  21  22
ENDBRANCH  14  21
ENDBRANCH  11  12
BRANCH   1  24
ATOM     24  S   UNL     1       3.811   5.768  17.322  0.00  0.00    +0.000 S 
BRANCH  24  25
ATOM     25  C   UNL     1       5.275   6.728  16.776  0.00  0.00    +0.000 C 
BRANCH  25  27
ATOM     26  N   UNL     1       7.414   5.003  16.347  0.00  0.00    +0.000 NA
ATOM     27  C   UNL     1       6.444   5.785  16.541  0.00  0.00    +0.000 C 
ENDBRANCH  25  27
ENDBRANCH  24  25
ENDBRANCH   1  24
TORSDOF 8
ENDMDL
