MODEL 1
REMARK VINA RESULT:      -9.6      0.000      0.000
REMARK  Name = 
REMARK  4 active torsions:
REMARK  status: ('A' for Active; 'I' for Inactive)
REMARK    1  A    between atoms: C_1  and  C_2
REMARK    2  A    between atoms: C_11  and  C_12
REMARK    3  A    between atoms: C_14  and  C_15
REMARK    4  A    between atoms: C_18  and  C_19
REMARK                            x       y       z     vdW  Elec       q    Type
REMARK                         _______ _______ _______ _____ _____    ______ ____
ROOT
ATOM      1  C   UNL     1       5.580   4.785  15.155  0.00  0.00    +0.000 C 
ATOM      2  C   UNL     1       5.418   4.516  16.609  0.00  0.00    +0.000 C 
ATOM      3  N   UNL     1       4.320   4.244  17.208  0.00  0.00    +0.000 NA
ATOM      4  C   UNL     1       4.712   4.283  18.658  0.00  0.00    +0.000 C 
ATOM      5  C   UNL     1       4.975   2.849  19.189  0.00  0.00    +0.000 C 
ATOM      6  C   UNL     1       3.754   2.011  18.959  0.00  0.00    +0.000 C 
ATOM      7  O   UNL     1       2.625   2.510  19.652  0.00  0.00    +0.000 OA
ATOM      8  C   UNL     1       2.532   3.871  19.786  0.00  0.00    +0.000 A 
ATOM      9  C   UNL     1       1.307   4.269  20.295  0.00  0.00    +0.000 A 
ATOM     10  C   UNL     1       1.030   5.615  20.456  0.00  0.00    +0.000 A 
ATOM     11  C   UNL     1       1.983   6.623  20.201  0.00  0.00    +0.000 A 
ATOM     12  C   UNL     1       3.253   6.185  19.718  0.00  0.00    +0.000 A 
ATOM     13  C   UNL     1       3.530   4.813  19.453  0.00  0.00    +0.000 A 
ATOM     14  N   UNL     1       6.086   4.881  18.758  0.00  0.00    +0.000 NA
ATOM     15  C   UNL     1       6.538   4.604  17.569  0.00  0.00    +0.000 C 
ATOM     16  N   UNL     1       7.823   4.236  17.252  0.00  0.00    +0.000 N 
ATOM     17  H   UNL     1       8.283   3.814  18.056  0.00  0.00    +0.000 HD
ATOM     18  H   UNL     1       7.873   3.592  16.465  0.00  0.00    +0.000 HD
ENDROOT
BRANCH  11  19
ATOM     19  C   UNL     1       1.525   8.047  20.392  0.00  0.00    +0.000 A 
ATOM     20  C   UNL     1       1.015   8.428  21.669  0.00  0.00    +0.000 A 
ATOM     21  C   UNL     1       0.327   9.629  21.908  0.00  0.00    +0.000 A 
ATOM     22  C   UNL     1      -0.373   9.885  23.211  0.00  0.00    +0.000 C 
ATOM     23  C   UNL     1       0.248  10.556  20.878  0.00  0.00    +0.000 A 
ATOM     24  C   UNL     1       0.788  10.257  19.633  0.00  0.00    +0.000 A 
ATOM     25  C   UNL     1       1.393   9.005  19.361  0.00  0.00    +0.000 A 
ATOM     26  C   UNL     1       1.802   8.750  17.936  0.00  0.00    +0.000 C 
ENDBRANCH  11  19
TORSDOF 1
ENDMDL
MODEL 2
REMARK VINA RESULT:      -7.8      2.338      4.187
REMARK  Name = 
REMARK  4 active torsions:
REMARK  status: ('A' for Active; 'I' for Inactive)
REMARK    1  A    between atoms: C_1  and  C_2
REMARK    2  A    between atoms: C_11  and  C_12
REMARK    3  A    between atoms: C_14  and  C_15
REMARK    4  A    between atoms: C_18  and  C_19
REMARK                            x       y       z     vdW  Elec       q    Type
REMARK                         _______ _______ _______ _____ _____    ______ ____
ROOT
ATOM      1  C   UNL     1       2.358   2.398  21.388  0.00  0.00    +0.000 C 
ATOM      2  C   UNL     1       2.304   2.954  20.009  0.00  0.00    +0.000 C 
ATOM      3  N   UNL     1       3.109   3.816  19.512  0.00  0.00    +0.000 NA
ATOM      4  C   UNL     1       2.461   4.158  18.199  0.00  0.00    +0.000 C 
ATOM      5  C   UNL     1       3.122   3.361  17.043  0.00  0.00    +0.000 C 
ATOM      6  C   UNL     1       4.594   3.643  17.034  0.00  0.00    +0.000 C 
ATOM      7  O   UNL     1       4.875   5.012  16.809  0.00  0.00    +0.000 OA
ATOM      8  C   UNL     1       3.985   5.920  17.323  0.00  0.00    +0.000 A 
ATOM      9  C   UNL     1       4.446   7.222  17.226  0.00  0.00    +0.000 A 
ATOM     10  C   UNL     1       3.688   8.262  17.735  0.00  0.00    +0.000 A 
ATOM     11  C   UNL     1       2.404   8.068  18.285  0.00  0.00    +0.000 A 
ATOM     12  C   UNL     1       1.933   6.722  18.335  0.00  0.00    +0.000 A 
ATOM     13  C   UNL     1       2.733   5.625  17.905  0.00  0.00    +0.000 A 
ATOM     14  N   UNL     1       1.077   3.576  18.191  0.00  0.00    +0.000 NA
ATOM     15  C   UNL     1       1.235   2.609  19.049  0.00  0.00    +0.000 C 
ATOM     16  N   UNL     1       0.667   1.361  18.981  0.00  0.00    +0.000 N 
ATOM     17  H   UNL     1       0.440   1.122  18.018  0.00  0.00    +0.000 HD
ATOM     18  H   UNL     1       1.257   0.629  19.374  0.00  0.00    +0.000 HD
ENDROOT
BRANCH  11  19
ATOM     19  C   UNL     1       1.712   9.293  18.829  0.00  0.00    +0.000 A 
ATOM     20  C   UNL     1       1.885  10.531  18.138  0.00  0.00    +0.000 A 
ATOM     21  C   UNL     1       1.516  11.778  18.667  0.00  0.00    +0.000 A 
ATOM     22  C   UNL     1       1.912  13.061  17.997  0.00  0.00    +0.000 C 
ATOM     23  C   UNL     1       0.830  11.802  19.874  0.00  0.00    +0.000 A 
ATOM     24  C   UNL     1       0.580  10.615  20.553  0.00  0.00    +0.000 A 
ATOM     25  C   UNL     1       1.040   9.366  20.071  0.00  0.00    +0.000 A 
ATOM     26  C   UNL     1       0.836   8.179  20.972  0.00  0.00    +0.000 C 
ENDBRANCH  11  19
TORSDOF 1
ENDMDL
MODEL 3
REMARK VINA RESULT:      -7.5      0.848      1.971
REMARK  Name = 
REMARK  4 active torsions:
REMARK  status: ('A' for Active; 'I' for Inactive)
REMARK    1  A    between atoms: C_1  and  C_2
REMARK    2  A    between atoms: C_11  and  C_12
REMARK    3  A    between atoms: C_14  and  C_15
REMARK    4  A    between atoms: C_18  and  C_19
REMARK                            x       y       z     vdW  Elec       q    Type
REMARK                         _______ _______ _______ _____ _____    ______ ____
ROOT
ATOM      1  C   UNL     1       5.360   4.345  15.105  0.00  0.00    +0.000 C 
ATOM      2  C   UNL     1       5.301   4.384  16.591  0.00  0.00    +0.000 C 
ATOM      3  N   UNL     1       4.260   4.191  17.310  0.00  0.00    +0.000 NA
ATOM      4  C   UNL     1       4.734   4.557  18.689  0.00  0.00    +0.000 C 
ATOM      5  C   UNL     1       5.118   3.283  19.487  0.00  0.00    +0.000 C 
ATOM      6  C   UNL     1       3.942   2.356  19.524  0.00  0.00    +0.000 C 
ATOM      7  O   UNL     1       2.826   2.934  20.176  0.00  0.00    +0.000 OA
ATOM      8  C   UNL     1       2.655   4.286  20.030  0.00  0.00    +0.000 A 
ATOM      9  C   UNL     1       1.440   4.722  20.530  0.00  0.00    +0.000 A 
ATOM     10  C   UNL     1       1.088   6.056  20.427  0.00  0.00    +0.000 A 
ATOM     11  C   UNL     1       1.959   7.032  19.899  0.00  0.00    +0.000 A 
ATOM     12  C   UNL     1       3.223   6.566  19.429  0.00  0.00    +0.000 A 
ATOM     13  C   UNL     1       3.569   5.184  19.438  0.00  0.00    +0.000 A 
ATOM     14  N   UNL     1       6.071   5.229  18.563  0.00  0.00    +0.000 NA
ATOM     15  C   UNL     1       6.468   4.729  17.429  0.00  0.00    +0.000 C 
ATOM     16  N   UNL     1       7.753   4.366  17.106  0.00  0.00    +0.000 N 
ATOM     17  H   UNL     1       8.286   4.147  17.945  0.00  0.00    +0.000 HD
ATOM     18  H   UNL     1       7.797   3.573  16.468  0.00  0.00    +0.000 HD
ENDROOT
BRANCH  11  19
ATOM     19  C   UNL     1       1.423   8.440  19.821  0.00  0.00    +0.000 A 
ATOM     20  C   UNL     1       1.886   9.283  18.766  0.00  0.00    +0.000 A 
ATOM     21  C   UNL     1       1.672  10.670  18.723  0.00  0.00    +0.000 A 
ATOM     22  C   UNL     1       2.359  11.538  17.710  0.00  0.00    +0.000 C 
ATOM     23  C   UNL     1       0.857  11.238  19.693  0.00  0.00    +0.000 A 
ATOM     24  C   UNL     1       0.328  10.445  20.705  0.00  0.00    +0.000 A 
ATOM     25  C   UNL     1       0.626   9.065  20.807  0.00  0.00    +0.000 A 
ATOM     26  C   UNL     1       0.115   8.354  22.031  0.00  0.00    +0.000 C 
ENDBRANCH  11  19
TORSDOF 1
ENDMDL
MODEL 4
REMARK VINA RESULT:      -7.4      2.200      4.050
REMARK  Name = 
REMARK  4 active torsions:
REMARK  status: ('A' for Active; 'I' for Inactive)
REMARK    1  A    between atoms: C_1  and  C_2
REMARK    2  A    between atoms: C_11  and  C_12
REMARK    3  A    between atoms: C_14  and  C_15
REMARK    4  A    between atoms: C_18  and  C_19
REMARK                            x       y       z     vdW  Elec       q    Type
REMARK                         _______ _______ _______ _____ _____    ______ ____
ROOT
ATOM      1  C   UNL     1       2.914   2.517  21.356  0.00  0.00    +0.000 C 
ATOM      2  C   UNL     1       2.722   3.120  20.010  0.00  0.00    +0.000 C 
ATOM      3  N   UNL     1       3.319   4.156  19.555  0.00  0.00    +0.000 NA
ATOM      4  C   UNL     1       2.593   4.422  18.267  0.00  0.00    +0.000 C 
ATOM      5  C   UNL     1       3.387   3.843  17.066  0.00  0.00    +0.000 C 
ATOM      6  C   UNL     1       4.766   4.427  17.064  0.00  0.00    +0.000 C 
ATOM      7  O   UNL     1       4.750   5.834  16.912  0.00  0.00    +0.000 OA
ATOM      8  C   UNL     1       3.700   6.507  17.479  0.00  0.00    +0.000 A 
ATOM      9  C   UNL     1       3.876   7.880  17.451  0.00  0.00    +0.000 A 
ATOM     10  C   UNL     1       2.926   8.710  18.019  0.00  0.00    +0.000 A 
ATOM     11  C   UNL     1       1.720   8.223  18.565  0.00  0.00    +0.000 A 
ATOM     12  C   UNL     1       1.542   6.807  18.544  0.00  0.00    +0.000 A 
ATOM     13  C   UNL     1       2.547   5.926  18.051  0.00  0.00    +0.000 A 
ATOM     14  N   UNL     1       1.361   3.563  18.235  0.00  0.00    +0.000 NA
ATOM     15  C   UNL     1       1.733   2.608  19.038  0.00  0.00    +0.000 C 
ATOM     16  N   UNL     1       1.438   1.273  18.906  0.00  0.00    +0.000 N 
ATOM     17  H   UNL     1       1.249   1.043  17.932  0.00  0.00    +0.000 HD
ATOM     18  H   UNL     1       2.174   0.663  19.255  0.00  0.00    +0.000 HD
ENDROOT
BRANCH  11  19
ATOM     19  C   UNL     1       0.796   9.246  19.178  0.00  0.00    +0.000 A 
ATOM     20  C   UNL     1       0.078  10.118  18.306  0.00  0.00    +0.000 A 
ATOM     21  C   UNL     1      -0.607  11.264  18.739  0.00  0.00    +0.000 A 
ATOM     22  C   UNL     1      -1.163  12.260  17.763  0.00  0.00    +0.000 C 
ATOM     23  C   UNL     1      -0.698  11.497  20.105  0.00  0.00    +0.000 A 
ATOM     24  C   UNL     1      -0.070  10.638  20.998  0.00  0.00    +0.000 A 
ATOM     25  C   UNL     1       0.706   9.538  20.558  0.00  0.00    +0.000 A 
ATOM     26  C   UNL     1       1.457   8.778  21.617  0.00  0.00    +0.000 C 
ENDBRANCH  11  19
TORSDOF 1
ENDMDL
MODEL 5
REMARK VINA RESULT:      -7.4      4.895      8.407
REMARK  Name = 
REMARK  4 active torsions:
REMARK  status: ('A' for Active; 'I' for Inactive)
REMARK    1  A    between atoms: C_1  and  C_2
REMARK    2  A    between atoms: C_11  and  C_12
REMARK    3  A    between atoms: C_14  and  C_15
REMARK    4  A    between atoms: C_18  and  C_19
REMARK                            x       y       z     vdW  Elec       q    Type
REMARK                         _______ _______ _______ _____ _____    ______ ____
ROOT
ATOM      1  C   UNL     1       2.246  15.165  19.831  0.00  0.00    +0.000 C 
ATOM      2  C   UNL     1       1.069  14.289  20.078  0.00  0.00    +0.000 C 
ATOM      3  N   UNL     1       0.968  13.403  20.996  0.00  0.00    +0.000 NA
ATOM      4  C   UNL     1      -0.313  12.701  20.641  0.00  0.00    +0.000 C 
ATOM      5  C   UNL     1      -1.486  13.248  21.497  0.00  0.00    +0.000 C 
ATOM      6  C   UNL     1      -1.146  13.097  22.948  0.00  0.00    +0.000 C 
ATOM      7  O   UNL     1      -0.959  11.742  23.315  0.00  0.00    +0.000 OA
ATOM      8  C   UNL     1      -0.409  10.914  22.371  0.00  0.00    +0.000 A 
ATOM      9  C   UNL     1      -0.084   9.671  22.886  0.00  0.00    +0.000 A 
ATOM     10  C   UNL     1       0.520   8.725  22.076  0.00  0.00    +0.000 A 
ATOM     11  C   UNL     1       0.751   8.938  20.701  0.00  0.00    +0.000 A 
ATOM     12  C   UNL     1       0.367  10.212  20.184  0.00  0.00    +0.000 A 
ATOM     13  C   UNL     1      -0.168  11.235  21.017  0.00  0.00    +0.000 A 
ATOM     14  N   UNL     1      -0.729  13.146  19.268  0.00  0.00    +0.000 NA
ATOM     15  C   UNL     1      -0.131  14.301  19.216  0.00  0.00    +0.000 C 
ATOM     16  N   UNL     1      -0.619  15.444  18.631  0.00  0.00    +0.000 N 
ATOM     17  H   UNL     1      -1.636  15.423  18.597  0.00  0.00    +0.000 HD
ATOM     18  H   UNL     1      -0.320  16.296  19.104  0.00  0.00    +0.000 HD
ENDROOT
BRANCH  11  19
ATOM     19  C   UNL     1       1.447   7.827  19.955  0.00  0.00    +0.000 A 
ATOM     20  C   UNL     1       1.552   6.550  20.585  0.00  0.00    +0.000 A 
ATOM     21  C   UNL     1       2.383   5.517  20.123  0.00  0.00    +0.000 A 
ATOM     22  C   UNL     1       2.620   4.279  20.937  0.00  0.00    +0.000 C 
ATOM     23  C   UNL     1       3.044   5.699  18.916  0.00  0.00    +0.000 A 
ATOM     24  C   UNL     1       2.921   6.901  18.231  0.00  0.00    +0.000 A 
ATOM     25  C   UNL     1       2.164   7.981  18.747  0.00  0.00    +0.000 A 
ATOM     26  C   UNL     1       2.234   9.277  17.985  0.00  0.00    +0.000 C 
ENDBRANCH  11  19
TORSDOF 1
ENDMDL
MODEL 6
REMARK VINA RESULT:      -7.3      2.601      4.533
REMARK  Name = 
REMARK  4 active torsions:
REMARK  status: ('A' for Active; 'I' for Inactive)
REMARK    1  A    between atoms: C_1  and  C_2
REMARK    2  A    between atoms: C_11  and  C_12
REMARK    3  A    between atoms: C_14  and  C_15
REMARK    4  A    between atoms: C_18  and  C_19
REMARK                            x       y       z     vdW  Elec       q    Type
REMARK                         _______ _______ _______ _____ _____    ______ ____
ROOT
ATOM      1  C   UNL     1       1.944   3.248  21.369  0.00  0.00    +0.000 C 
ATOM      2  C   UNL     1       2.120   3.795  19.997  0.00  0.00    +0.000 C 
ATOM      3  N   UNL     1       2.722   4.881  19.690  0.00  0.00    +0.000 NA
ATOM      4  C   UNL     1       2.409   5.035  18.228  0.00  0.00    +0.000 C 
ATOM      5  C   UNL     1       3.590   4.521  17.363  0.00  0.00    +0.000 C 
ATOM      6  C   UNL     1       4.837   5.256  17.751  0.00  0.00    +0.000 C 
ATOM      7  O   UNL     1       4.728   6.649  17.522  0.00  0.00    +0.000 OA
ATOM      8  C   UNL     1       3.492   7.212  17.701  0.00  0.00    +0.000 A 
ATOM      9  C   UNL     1       3.530   8.596  17.650  0.00  0.00    +0.000 A 
ATOM     10  C   UNL     1       2.372   9.326  17.853  0.00  0.00    +0.000 A 
ATOM     11  C   UNL     1       1.112   8.719  18.030  0.00  0.00    +0.000 A 
ATOM     12  C   UNL     1       1.091   7.292  18.036  0.00  0.00    +0.000 A 
ATOM     13  C   UNL     1       2.283   6.519  17.925  0.00  0.00    +0.000 A 
ATOM     14  N   UNL     1       1.340   4.042  17.869  0.00  0.00    +0.000 NA
ATOM     15  C   UNL     1       1.538   3.154  18.800  0.00  0.00    +0.000 C 
ATOM     16  N   UNL     1       1.433   1.791  18.659  0.00  0.00    +0.000 N 
ATOM     17  H   UNL     1       1.580   1.519  17.689  0.00  0.00    +0.000 HD
ATOM     18  H   UNL     1       2.082   1.276  19.251  0.00  0.00    +0.000 HD
ENDROOT
BRANCH  11  19
ATOM     19  C   UNL     1      -0.054   9.645  18.272  0.00  0.00    +0.000 A 
ATOM     20  C   UNL     1      -1.048   9.762  17.255  0.00  0.00    +0.000 A 
ATOM     21  C   UNL     1      -2.034  10.762  17.238  0.00  0.00    +0.000 A 
ATOM     22  C   UNL     1      -2.917  10.971  16.042  0.00  0.00    +0.000 C 
ATOM     23  C   UNL     1      -2.128  11.608  18.334  0.00  0.00    +0.000 A 
ATOM     24  C   UNL     1      -1.223  11.490  19.381  0.00  0.00    +0.000 A 
ATOM     25  C   UNL     1      -0.165  10.549  19.354  0.00  0.00    +0.000 A 
ATOM     26  C   UNL     1       0.833  10.624  20.476  0.00  0.00    +0.000 C 
ENDBRANCH  11  19
TORSDOF 1
ENDMDL
MODEL 7
REMARK VINA RESULT:      -7.2      4.737      8.087
REMARK  Name = 
REMARK  4 active torsions:
REMARK  status: ('A' for Active; 'I' for Inactive)
REMARK    1  A    between atoms: C_1  and  C_2
REMARK    2  A    between atoms: C_11  and  C_12
REMARK    3  A    between atoms: C_14  and  C_15
REMARK    4  A    between atoms: C_18  and  C_19
REMARK                            x       y       z     vdW  Elec       q    Type
REMARK                         _______ _______ _______ _____ _____    ______ ____
ROOT
ATOM      1  C   UNL     1       3.955  14.570  20.510  0.00  0.00    +0.000 C 
ATOM      2  C   UNL     1       2.586  13.994  20.425  0.00  0.00    +0.000 C 
ATOM      3  N   UNL     1       2.073  13.149  21.237  0.00  0.00    +0.000 NA
ATOM      4  C   UNL     1       0.787  12.771  20.556  0.00  0.00    +0.000 C 
ATOM      5  C   UNL     1      -0.400  13.571  21.155  0.00  0.00    +0.000 C 
ATOM      6  C   UNL     1      -0.455  13.332  22.633  0.00  0.00    +0.000 C 
ATOM      7  O   UNL     1      -0.673  11.969  22.946  0.00  0.00    +0.000 OA
ATOM      8  C   UNL     1      -0.118  11.043  22.102  0.00  0.00    +0.000 A 
ATOM      9  C   UNL     1      -0.214   9.753  22.596  0.00  0.00    +0.000 A 
ATOM     10  C   UNL     1       0.333   8.698  21.887  0.00  0.00    +0.000 A 
ATOM     11  C   UNL     1       0.925   8.863  20.617  0.00  0.00    +0.000 A 
ATOM     12  C   UNL     1       0.973  10.196  20.108  0.00  0.00    +0.000 A 
ATOM     13  C   UNL     1       0.503  11.309  20.862  0.00  0.00    +0.000 A 
ATOM     14  N   UNL     1       0.820  13.313  19.156  0.00  0.00    +0.000 NA
ATOM     15  C   UNL     1       1.659  14.295  19.315  0.00  0.00    +0.000 C 
ATOM     16  N   UNL     1       1.595  15.526  18.709  0.00  0.00    +0.000 N 
ATOM     17  H   UNL     1       0.637  15.745  18.442  0.00  0.00    +0.000 HD
ATOM     18  H   UNL     1       1.959  16.279  19.290  0.00  0.00    +0.000 HD
ENDROOT
BRANCH  11  19
ATOM     19  C   UNL     1       1.507   7.625  19.980  0.00  0.00    +0.000 A 
ATOM     20  C   UNL     1       1.504   6.412  20.732  0.00  0.00    +0.000 A 
ATOM     21  C   UNL     1       2.231   5.267  20.369  0.00  0.00    +0.000 A 
ATOM     22  C   UNL     1       2.366   4.097  21.299  0.00  0.00    +0.000 C 
ATOM     23  C   UNL     1       2.890   5.269  19.147  0.00  0.00    +0.000 A 
ATOM     24  C   UNL     1       2.867   6.406  18.348  0.00  0.00    +0.000 A 
ATOM     25  C   UNL     1       2.219   7.596  18.759  0.00  0.00    +0.000 A 
ATOM     26  C   UNL     1       2.395   8.799  17.874  0.00  0.00    +0.000 C 
ENDBRANCH  11  19
TORSDOF 1
ENDMDL
MODEL 8
REMARK VINA RESULT:      -7.2      4.274      7.847
REMARK  Name = 
REMARK  4 active torsions:
REMARK  status: ('A' for Active; 'I' for Inactive)
REMARK    1  A    between atoms: C_1  and  C_2
REMARK    2  A    between atoms: C_11  and  C_12
REMARK    3  A    between atoms: C_14  and  C_15
REMARK    4  A    between atoms: C_18  and  C_19
REMARK                            x       y       z     vdW  Elec       q    Type
REMARK                         _______ _______ _______ _____ _____    ______ ____
ROOT
ATOM      1  C   UNL     1       2.269  14.184  18.640  0.00  0.00    +0.000 C 
ATOM      2  C   UNL     1       1.255  13.198  19.100  0.00  0.00    +0.000 C 
ATOM      3  N   UNL     1       1.382  12.389  20.083  0.00  0.00    +0.000 NA
ATOM      4  C   UNL     1       0.170  11.510  19.950  0.00  0.00    +0.000 C 
ATOM      5  C   UNL     1      -0.952  11.984  20.912  0.00  0.00    +0.000 C 
ATOM      6  C   UNL     1      -0.421  12.001  22.312  0.00  0.00    +0.000 C 
ATOM      7  O   UNL     1      -0.017  10.715  22.747  0.00  0.00    +0.000 OA
ATOM      8  C   UNL     1       0.517   9.881  21.800  0.00  0.00    +0.000 A 
ATOM      9  C   UNL     1       1.062   8.735  22.353  0.00  0.00    +0.000 A 
ATOM     10  C   UNL     1       1.681   7.802  21.540  0.00  0.00    +0.000 A 
ATOM     11  C   UNL     1       1.713   7.921  20.135  0.00  0.00    +0.000 A 
ATOM     12  C   UNL     1       1.107   9.090  19.584  0.00  0.00    +0.000 A 
ATOM     13  C   UNL     1       0.549  10.110  20.407  0.00  0.00    +0.000 A 
ATOM     14  N   UNL     1      -0.464  11.781  18.616  0.00  0.00    +0.000 NA
ATOM     15  C   UNL     1      -0.032  12.991  18.404  0.00  0.00    +0.000 C 
ATOM     16  N   UNL     1      -0.733  14.012  17.810  0.00  0.00    +0.000 N 
ATOM     17  H   UNL     1      -1.735  13.866  17.911  0.00  0.00    +0.000 HD
ATOM     18  H   UNL     1      -0.492  14.931  18.177  0.00  0.00    +0.000 HD
ENDROOT
BRANCH  11  19
ATOM     19  C   UNL     1       2.452   6.841  19.384  0.00  0.00    +0.000 A 
ATOM     20  C   UNL     1       3.397   7.234  18.389  0.00  0.00    +0.000 A 
ATOM     21  C   UNL     1       3.958   6.350  17.453  0.00  0.00    +0.000 A 
ATOM     22  C   UNL     1       4.777   6.849  16.298  0.00  0.00    +0.000 C 
ATOM     23  C   UNL     1       3.676   4.997  17.579  0.00  0.00    +0.000 A 
ATOM     24  C   UNL     1       2.812   4.557  18.574  0.00  0.00    +0.000 A 
ATOM     25  C   UNL     1       2.167   5.459  19.455  0.00  0.00    +0.000 A 
ATOM     26  C   UNL     1       1.142   4.871  20.387  0.00  0.00    +0.000 C 
ENDBRANCH  11  19
TORSDOF 1
ENDMDL
MODEL 9
REMARK VINA RESULT:      -7.1      2.096      3.618
REMARK  Name = 
REMARK  4 active torsions:
REMARK  status: ('A' for Active; 'I' for Inactive)
REMARK    1  A    between atoms: C_1  and  C_2
REMARK    2  A    between atoms: C_11  and  C_12
REMARK    3  A    between atoms: C_14  and  C_15
REMARK    4  A    between atoms: C_18  and  C_19
REMARK                            x       y       z     vdW  Elec       q    Type
REMARK                         _______ _______ _______ _____ _____    ______ ____
ROOT
ATOM      1  C   UNL     1       3.330   2.335  21.228  0.00  0.00    +0.000 C 
ATOM      2  C   UNL     1       2.947   3.005  19.956  0.00  0.00    +0.000 C 
ATOM      3  N   UNL     1       3.480   4.062  19.471  0.00  0.00    +0.000 NA
ATOM      4  C   UNL     1       2.575   4.393  18.317  0.00  0.00    +0.000 C 
ATOM      5  C   UNL     1       3.180   3.874  16.986  0.00  0.00    +0.000 C 
ATOM      6  C   UNL     1       4.549   4.456  16.811  0.00  0.00    +0.000 C 
ATOM      7  O   UNL     1       4.522   5.870  16.732  0.00  0.00    +0.000 OA
ATOM      8  C   UNL     1       3.572   6.514  17.480  0.00  0.00    +0.000 A 
ATOM      9  C   UNL     1       3.753   7.887  17.494  0.00  0.00    +0.000 A 
ATOM     10  C   UNL     1       2.903   8.688  18.236  0.00  0.00    +0.000 A 
ATOM     11  C   UNL     1       1.786   8.175  18.929  0.00  0.00    +0.000 A 
ATOM     12  C   UNL     1       1.596   6.762  18.864  0.00  0.00    +0.000 A 
ATOM     13  C   UNL     1       2.510   5.906  18.186  0.00  0.00    +0.000 A 
ATOM     14  N   UNL     1       1.345   3.538  18.425  0.00  0.00    +0.000 NA
ATOM     15  C   UNL     1       1.822   2.544  19.116  0.00  0.00    +0.000 C 
ATOM     16  N   UNL     1       1.500   1.218  18.962  0.00  0.00    +0.000 N 
ATOM     17  H   UNL     1       1.169   1.036  18.017  0.00  0.00    +0.000 HD
ATOM     18  H   UNL     1       2.275   0.590  19.170  0.00  0.00    +0.000 HD
ENDROOT
BRANCH  11  19
ATOM     19  C   UNL     1       0.971   9.167  19.720  0.00  0.00    +0.000 A 
ATOM     20  C   UNL     1       1.051   9.125  21.145  0.00  0.00    +0.000 A 
ATOM     21  C   UNL     1       0.167   9.806  21.997  0.00  0.00    +0.000 A 
ATOM     22  C   UNL     1       0.161   9.561  23.478  0.00  0.00    +0.000 C 
ATOM     23  C   UNL     1      -0.759  10.669  21.427  0.00  0.00    +0.000 A 
ATOM     24  C   UNL     1      -0.832  10.793  20.045  0.00  0.00    +0.000 A 
ATOM     25  C   UNL     1      -0.009  10.030  19.181  0.00  0.00    +0.000 A 
ATOM     26  C   UNL     1      -0.291  10.146  17.707  0.00  0.00    +0.000 C 
ENDBRANCH  11  19
TORSDOF 1
ENDMDL
