MODEL 1
REMARK VINA RESULT:      -6.5      0.000      0.000
REMARK  Name = 
REMARK  6 active torsions:
REMARK  status: ('A' for Active; 'I' for Inactive)
REMARK    1  A    between atoms: C_1  and  C_2
REMARK    2  A    between atoms: C_2  and  C_4
REMARK    3  A    between atoms: C_5  and  O_6
REMARK    4  A    between atoms: C_8  and  O_9
REMARK    5  A    between atoms: C_13  and  C_14
REMARK    6  A    between atoms: C_13  and  C_15
REMARK                            x       y       z     vdW  Elec       q    Type
REMARK                         _______ _______ _______ _____ _____    ______ ____
ROOT
ATOM      1  C   UNL     1       5.379   5.272  17.027  0.00  0.00    +0.000 A 
ATOM      2  C   UNL     1       5.360   6.678  16.987  0.00  0.00    +0.000 A 
ATOM      3  C   UNL     1       4.296   7.407  17.514  0.00  0.00    +0.000 A 
ATOM      4  C   UNL     1       3.210   6.732  18.052  0.00  0.00    +0.000 A 
ATOM      5  C   UNL     1       3.178   5.336  18.098  0.00  0.00    +0.000 A 
ATOM      6  C   UNL     1       4.293   4.606  17.635  0.00  0.00    +0.000 A 
ATOM      7  O   UNL     1       4.359   3.243  17.765  0.00  0.00    +0.000 OA
ATOM      8  C   UNL     1       3.420   2.605  18.650  0.00  0.00    +0.000 C 
ATOM      9  C   UNL     1       3.885   2.774  20.105  0.00  0.00    +0.000 C 
ATOM     10  C   UNL     1       3.456   1.110  18.305  0.00  0.00    +0.000 C 
ATOM     11  C   UNL     1       2.016   3.147  18.385  0.00  0.00    +0.000 C 
ATOM     12  C   UNL     1       1.969   4.639  18.666  0.00  0.00    +0.000 C 
ENDROOT
BRANCH   1  14
ATOM     13  C   UNL     1       6.449   3.863  15.082  0.00  0.00    +0.000 C 
ATOM     14  C   UNL     1       6.552   4.561  16.412  0.00  0.00    +0.000 C 
ATOM     15  O   UNL     1       7.627   4.562  17.024  0.00  0.00    +0.000 OA
ENDBRANCH   1  14
BRANCH   2  16
ATOM     16  O   UNL     1       6.366   7.438  16.446  0.00  0.00    +0.000 OA
ATOM     17  H   UNL     1       6.096   7.698  15.536  0.00  0.00    +0.000 HD
ENDBRANCH   2  16
BRANCH   4  18
ATOM     18  O   UNL     1       2.149   7.430  18.556  0.00  0.00    +0.000 OA
ATOM     19  H   UNL     1       1.685   7.871  17.825  0.00  0.00    +0.000 HD
ENDBRANCH   4  18
TORSDOF 3
ENDMDL
MODEL 2
REMARK VINA RESULT:      -6.4      1.553      4.176
REMARK  Name = 
REMARK  6 active torsions:
REMARK  status: ('A' for Active; 'I' for Inactive)
REMARK    1  A    between atoms: C_1  and  C_2
REMARK    2  A    between atoms: C_2  and  C_4
REMARK    3  A    between atoms: C_5  and  O_6
REMARK    4  A    between atoms: C_8  and  O_9
REMARK    5  A    between atoms: C_13  and  C_14
REMARK    6  A    between atoms: C_13  and  C_15
REMARK                            x       y       z     vdW  Elec       q    Type
REMARK                         _______ _______ _______ _____ _____    ______ ____
ROOT
ATOM      1  C   UNL     1       3.696   3.792  19.224  0.00  0.00    +0.000 A 
ATOM      2  C   UNL     1       2.546   4.258  19.890  0.00  0.00    +0.000 A 
ATOM      3  C   UNL     1       2.097   5.567  19.738  0.00  0.00    +0.000 A 
ATOM      4  C   UNL     1       2.823   6.447  18.947  0.00  0.00    +0.000 A 
ATOM      5  C   UNL     1       3.979   6.033  18.281  0.00  0.00    +0.000 A 
ATOM      6  C   UNL     1       4.384   4.685  18.376  0.00  0.00    +0.000 A 
ATOM      7  O   UNL     1       5.443   4.204  17.650  0.00  0.00    +0.000 OA
ATOM      8  C   UNL     1       5.939   5.012  16.567  0.00  0.00    +0.000 C 
ATOM      9  C   UNL     1       5.021   4.857  15.345  0.00  0.00    +0.000 C 
ATOM     10  C   UNL     1       7.318   4.442  16.207  0.00  0.00    +0.000 C 
ATOM     11  C   UNL     1       6.100   6.457  17.037  0.00  0.00    +0.000 C 
ATOM     12  C   UNL     1       4.754   7.025  17.453  0.00  0.00    +0.000 C 
ENDROOT
BRANCH   1  14
ATOM     13  C   UNL     1       3.711   1.251  18.550  0.00  0.00    +0.000 C 
ATOM     14  C   UNL     1       4.128   2.372  19.464  0.00  0.00    +0.000 C 
ATOM     15  O   UNL     1       4.849   2.134  20.440  0.00  0.00    +0.000 OA
ENDBRANCH   1  14
BRANCH   2  16
ATOM     16  O   UNL     1       1.780   3.479  20.720  0.00  0.00    +0.000 OA
ATOM     17  H   UNL     1       2.321   2.704  20.995  0.00  0.00    +0.000 HD
ENDBRANCH   2  16
BRANCH   4  18
ATOM     18  O   UNL     1       2.408   7.741  18.801  0.00  0.00    +0.000 OA
ATOM     19  H   UNL     1       3.126   8.260  18.400  0.00  0.00    +0.000 HD
ENDBRANCH   4  18
TORSDOF 3
ENDMDL
MODEL 3
REMARK VINA RESULT:      -6.2      1.646      5.070
REMARK  Name = 
REMARK  6 active torsions:
REMARK  status: ('A' for Active; 'I' for Inactive)
REMARK    1  A    between atoms: C_1  and  C_2
REMARK    2  A    between atoms: C_2  and  C_4
REMARK    3  A    between atoms: C_5  and  O_6
REMARK    4  A    between atoms: C_8  and  O_9
REMARK    5  A    between atoms: C_13  and  C_14
REMARK    6  A    between atoms: C_13  and  C_15
REMARK                            x       y       z     vdW  Elec       q    Type
REMARK                         _______ _______ _______ _____ _____    ______ ____
ROOT
ATOM      1  C   UNL     1       3.366   5.817  18.147  0.00  0.00    +0.000 A 
ATOM      2  C   UNL     1       2.542   4.676  18.102  0.00  0.00    +0.000 A 
ATOM      3  C   UNL     1       3.009   3.461  17.608  0.00  0.00    +0.000 A 
ATOM      4  C   UNL     1       4.300   3.381  17.108  0.00  0.00    +0.000 A 
ATOM      5  C   UNL     1       5.148   4.492  17.117  0.00  0.00    +0.000 A 
ATOM      6  C   UNL     1       4.696   5.699  17.691  0.00  0.00    +0.000 A 
ATOM      7  O   UNL     1       5.527   6.780  17.829  0.00  0.00    +0.000 OA
ATOM      8  C   UNL     1       6.941   6.568  17.661  0.00  0.00    +0.000 C 
ATOM      9  C   UNL     1       7.524   5.946  18.940  0.00  0.00    +0.000 C 
ATOM     10  C   UNL     1       7.562   7.959  17.476  0.00  0.00    +0.000 C 
ATOM     11  C   UNL     1       7.189   5.736  16.403  0.00  0.00    +0.000 C 
ATOM     12  C   UNL     1       6.535   4.372  16.540  0.00  0.00    +0.000 C 
ENDROOT
BRANCH   1  14
ATOM     13  C   UNL     1       2.568   8.296  17.784  0.00  0.00    +0.000 C 
ATOM     14  C   UNL     1       2.776   7.097  18.671  0.00  0.00    +0.000 C 
ATOM     15  O   UNL     1       2.453   7.150  19.863  0.00  0.00    +0.000 OA
ENDBRANCH   1  14
BRANCH   2  16
ATOM     16  O   UNL     1       1.241   4.659  18.539  0.00  0.00    +0.000 OA
ATOM     17  H   UNL     1       1.230   4.281  19.447  0.00  0.00    +0.000 HD
ENDBRANCH   2  16
BRANCH   4  18
ATOM     18  O   UNL     1       4.769   2.201  16.602  0.00  0.00    +0.000 OA
ATOM     19  H   UNL     1       5.694   2.084  16.878  0.00  0.00    +0.000 HD
ENDBRANCH   4  18
TORSDOF 3
ENDMDL
MODEL 4
REMARK VINA RESULT:      -6.1      1.380      4.267
REMARK  Name = 
REMARK  6 active torsions:
REMARK  status: ('A' for Active; 'I' for Inactive)
REMARK    1  A    between atoms: C_1  and  C_2
REMARK    2  A    between atoms: C_2  and  C_4
REMARK    3  A    between atoms: C_5  and  O_6
REMARK    4  A    between atoms: C_8  and  O_9
REMARK    5  A    between atoms: C_13  and  C_14
REMARK    6  A    between atoms: C_13  and  C_15
REMARK                            x       y       z     vdW  Elec       q    Type
REMARK                         _______ _______ _______ _____ _____    ______ ____
ROOT
ATOM      1  C   UNL     1       3.358   3.696  18.764  0.00  0.00    +0.000 A 
ATOM      2  C   UNL     1       2.072   4.127  19.139  0.00  0.00    +0.000 A 
ATOM      3  C   UNL     1       1.630   5.420  18.869  0.00  0.00    +0.000 A 
ATOM      4  C   UNL     1       2.491   6.317  18.254  0.00  0.00    +0.000 A 
ATOM      5  C   UNL     1       3.782   5.939  17.879  0.00  0.00    +0.000 A 
ATOM      6  C   UNL     1       4.196   4.606  18.084  0.00  0.00    +0.000 A 
ATOM      7  O   UNL     1       5.407   4.155  17.629  0.00  0.00    +0.000 OA
ATOM      8  C   UNL     1       6.115   4.972  16.678  0.00  0.00    +0.000 C 
ATOM      9  C   UNL     1       5.509   4.778  15.279  0.00  0.00    +0.000 C 
ATOM     10  C   UNL     1       7.557   4.447  16.653  0.00  0.00    +0.000 C 
ATOM     11  C   UNL     1       6.118   6.425  17.151  0.00  0.00    +0.000 C 
ATOM     12  C   UNL     1       4.695   6.951  17.237  0.00  0.00    +0.000 C 
ENDROOT
BRANCH   1  14
ATOM     13  C   UNL     1       4.638   1.997  20.310  0.00  0.00    +0.000 C 
ATOM     14  C   UNL     1       3.767   2.293  19.118  0.00  0.00    +0.000 C 
ATOM     15  O   UNL     1       3.365   1.366  18.405  0.00  0.00    +0.000 OA
ENDBRANCH   1  14
BRANCH   2  16
ATOM     16  O   UNL     1       1.159   3.329  19.783  0.00  0.00    +0.000 OA
ATOM     17  H   UNL     1       0.851   2.646  19.145  0.00  0.00    +0.000 HD
ENDBRANCH   2  16
BRANCH   4  18
ATOM     18  O   UNL     1       2.080   7.596  17.998  0.00  0.00    +0.000 OA
ATOM     19  H   UNL     1       1.478   7.882  18.705  0.00  0.00    +0.000 HD
ENDBRANCH   4  18
TORSDOF 3
ENDMDL
MODEL 5
REMARK VINA RESULT:      -6.1      1.868      5.116
REMARK  Name = 
REMARK  6 active torsions:
REMARK  status: ('A' for Active; 'I' for Inactive)
REMARK    1  A    between atoms: C_1  and  C_2
REMARK    2  A    between atoms: C_2  and  C_4
REMARK    3  A    between atoms: C_5  and  O_6
REMARK    4  A    between atoms: C_8  and  O_9
REMARK    5  A    between atoms: C_13  and  C_14
REMARK    6  A    between atoms: C_13  and  C_15
REMARK                            x       y       z     vdW  Elec       q    Type
REMARK                         _______ _______ _______ _____ _____    ______ ____
ROOT
ATOM      1  C   UNL     1       2.387   5.296  19.270  0.00  0.00    +0.000 A 
ATOM      2  C   UNL     1       1.547   4.218  19.607  0.00  0.00    +0.000 A 
ATOM      3  C   UNL     1       1.779   2.935  19.118  0.00  0.00    +0.000 A 
ATOM      4  C   UNL     1       2.835   2.721  18.245  0.00  0.00    +0.000 A 
ATOM      5  C   UNL     1       3.685   3.764  17.870  0.00  0.00    +0.000 A 
ATOM      6  C   UNL     1       3.492   5.045  18.430  0.00  0.00    +0.000 A 
ATOM      7  O   UNL     1       4.367   6.071  18.184  0.00  0.00    +0.000 OA
ATOM      8  C   UNL     1       5.641   5.745  17.599  0.00  0.00    +0.000 C 
ATOM      9  C   UNL     1       6.580   5.194  18.683  0.00  0.00    +0.000 C 
ATOM     10  C   UNL     1       6.226   7.067  17.084  0.00  0.00    +0.000 C 
ATOM     11  C   UNL     1       5.436   4.794  16.420  0.00  0.00    +0.000 C 
ATOM     12  C   UNL     1       4.805   3.497  16.898  0.00  0.00    +0.000 C 
ENDROOT
BRANCH   1  14
ATOM     13  C   UNL     1       2.135   7.897  18.970  0.00  0.00    +0.000 C 
ATOM     14  C   UNL     1       2.051   6.655  19.818  0.00  0.00    +0.000 C 
ATOM     15  O   UNL     1       1.691   6.740  20.998  0.00  0.00    +0.000 OA
ENDBRANCH   1  14
BRANCH   2  16
ATOM     16  O   UNL     1       0.457   4.332  20.433  0.00  0.00    +0.000 OA
ATOM     17  H   UNL     1      -0.123   3.552  20.280  0.00  0.00    +0.000 HD
ENDBRANCH   2  16
BRANCH   4  18
ATOM     18  O   UNL     1       3.067   1.472  17.741  0.00  0.00    +0.000 OA
ATOM     19  H   UNL     1       2.220   1.081  17.465  0.00  0.00    +0.000 HD
ENDBRANCH   4  18
TORSDOF 3
ENDMDL
MODEL 6
REMARK VINA RESULT:      -6.0      1.837      2.813
REMARK  Name = 
REMARK  6 active torsions:
REMARK  status: ('A' for Active; 'I' for Inactive)
REMARK    1  A    between atoms: C_1  and  C_2
REMARK    2  A    between atoms: C_2  and  C_4
REMARK    3  A    between atoms: C_5  and  O_6
REMARK    4  A    between atoms: C_8  and  O_9
REMARK    5  A    between atoms: C_13  and  C_14
REMARK    6  A    between atoms: C_13  and  C_15
REMARK                            x       y       z     vdW  Elec       q    Type
REMARK                         _______ _______ _______ _____ _____    ______ ____
ROOT
ATOM      1  C   UNL     1       5.799   5.583  16.558  0.00  0.00    +0.000 A 
ATOM      2  C   UNL     1       7.104   5.995  16.886  0.00  0.00    +0.000 A 
ATOM      3  C   UNL     1       7.608   5.860  18.177  0.00  0.00    +0.000 A 
ATOM      4  C   UNL     1       6.790   5.348  19.175  0.00  0.00    +0.000 A 
ATOM      5  C   UNL     1       5.483   4.941  18.899  0.00  0.00    +0.000 A 
ATOM      6  C   UNL     1       5.005   5.007  17.573  0.00  0.00    +0.000 A 
ATOM      7  O   UNL     1       3.773   4.513  17.232  0.00  0.00    +0.000 OA
ATOM      8  C   UNL     1       3.105   3.657  18.177  0.00  0.00    +0.000 C 
ATOM      9  C   UNL     1       3.701   2.243  18.104  0.00  0.00    +0.000 C 
ATOM     10  C   UNL     1       1.640   3.585  17.727  0.00  0.00    +0.000 C 
ATOM     11  C   UNL     1       3.172   4.282  19.570  0.00  0.00    +0.000 C 
ATOM     12  C   UNL     1       4.618   4.415  20.016  0.00  0.00    +0.000 C 
ENDROOT
BRANCH   1  14
ATOM     13  C   UNL     1       5.245   4.652  14.162  0.00  0.00    +0.000 C 
ATOM     14  C   UNL     1       5.323   5.788  15.147  0.00  0.00    +0.000 C 
ATOM     15  O   UNL     1       4.985   6.926  14.800  0.00  0.00    +0.000 OA
ENDBRANCH   1  14
BRANCH   2  16
ATOM     16  O   UNL     1       7.978   6.545  15.981  0.00  0.00    +0.000 OA
ATOM     17  H   UNL     1       8.829   6.055  16.044  0.00  0.00    +0.000 HD
ENDBRANCH   2  16
BRANCH   4  18
ATOM     18  O   UNL     1       7.262   5.226  20.452  0.00  0.00    +0.000 OA
ATOM     19  H   UNL     1       6.508   5.134  21.059  0.00  0.00    +0.000 HD
ENDBRANCH   4  18
TORSDOF 3
ENDMDL
MODEL 7
REMARK VINA RESULT:      -5.9      1.571      3.869
REMARK  Name = 
REMARK  6 active torsions:
REMARK  status: ('A' for Active; 'I' for Inactive)
REMARK    1  A    between atoms: C_1  and  C_2
REMARK    2  A    between atoms: C_2  and  C_4
REMARK    3  A    between atoms: C_5  and  O_6
REMARK    4  A    between atoms: C_8  and  O_9
REMARK    5  A    between atoms: C_13  and  C_14
REMARK    6  A    between atoms: C_13  and  C_15
REMARK                            x       y       z     vdW  Elec       q    Type
REMARK                         _______ _______ _______ _____ _____    ______ ____
ROOT
ATOM      1  C   UNL     1       3.207   6.169  18.063  0.00  0.00    +0.000 A 
ATOM      2  C   UNL     1       4.104   6.456  17.016  0.00  0.00    +0.000 A 
ATOM      3  C   UNL     1       4.923   5.471  16.470  0.00  0.00    +0.000 A 
ATOM      4  C   UNL     1       4.887   4.188  16.996  0.00  0.00    +0.000 A 
ATOM      5  C   UNL     1       4.025   3.862  18.046  0.00  0.00    +0.000 A 
ATOM      6  C   UNL     1       3.142   4.844  18.542  0.00  0.00    +0.000 A 
ATOM      7  O   UNL     1       2.198   4.543  19.489  0.00  0.00    +0.000 OA
ATOM      8  C   UNL     1       1.920   3.154  19.745  0.00  0.00    +0.000 C 
ATOM      9  C   UNL     1       1.002   2.600  18.644  0.00  0.00    +0.000 C 
ATOM     10  C   UNL     1       1.155   3.109  21.075  0.00  0.00    +0.000 C 
ATOM     11  C   UNL     1       3.233   2.387  19.896  0.00  0.00    +0.000 C 
ATOM     12  C   UNL     1       4.034   2.464  18.607  0.00  0.00    +0.000 C 
ENDROOT
BRANCH   1  14
ATOM     13  C   UNL     1       2.110   7.435  20.089  0.00  0.00    +0.000 C 
ATOM     14  C   UNL     1       2.378   7.296  18.614  0.00  0.00    +0.000 C 
ATOM     15  O   UNL     1       1.915   8.126  17.824  0.00  0.00    +0.000 OA
ENDBRANCH   1  14
BRANCH   2  16
ATOM     16  O   UNL     1       4.241   7.699  16.451  0.00  0.00    +0.000 OA
ATOM     17  H   UNL     1       4.488   8.331  17.163  0.00  0.00    +0.000 HD
ENDBRANCH   2  16
BRANCH   4  18
ATOM     18  O   UNL     1       5.697   3.214  16.484  0.00  0.00    +0.000 OA
ATOM     19  H   UNL     1       5.967   3.467  15.585  0.00  0.00    +0.000 HD
ENDBRANCH   4  18
TORSDOF 3
ENDMDL
MODEL 8
REMARK VINA RESULT:      -5.8      2.239      4.729
REMARK  Name = 
REMARK  6 active torsions:
REMARK  status: ('A' for Active; 'I' for Inactive)
REMARK    1  A    between atoms: C_1  and  C_2
REMARK    2  A    between atoms: C_2  and  C_4
REMARK    3  A    between atoms: C_5  and  O_6
REMARK    4  A    between atoms: C_8  and  O_9
REMARK    5  A    between atoms: C_13  and  C_14
REMARK    6  A    between atoms: C_13  and  C_15
REMARK                            x       y       z     vdW  Elec       q    Type
REMARK                         _______ _______ _______ _____ _____    ______ ____
ROOT
ATOM      1  C   UNL     1       3.657   3.915  18.113  0.00  0.00    +0.000 A 
ATOM      2  C   UNL     1       3.738   4.164  19.496  0.00  0.00    +0.000 A 
ATOM      3  C   UNL     1       4.894   4.678  20.076  0.00  0.00    +0.000 A 
ATOM      4  C   UNL     1       6.008   4.911  19.282  0.00  0.00    +0.000 A 
ATOM      5  C   UNL     1       5.979   4.663  17.907  0.00  0.00    +0.000 A 
ATOM      6  C   UNL     1       4.780   4.217  17.313  0.00  0.00    +0.000 A 
ATOM      7  O   UNL     1       4.666   4.071  15.955  0.00  0.00    +0.000 OA
ATOM      8  C   UNL     1       5.681   4.667  15.126  0.00  0.00    +0.000 C 
ATOM      9  C   UNL     1       5.418   6.175  14.994  0.00  0.00    +0.000 C 
ATOM     10  C   UNL     1       5.529   4.029  13.739  0.00  0.00    +0.000 C 
ATOM     11  C   UNL     1       7.063   4.329  15.685  0.00  0.00    +0.000 C 
ATOM     12  C   UNL     1       7.217   4.904  17.083  0.00  0.00    +0.000 C 
ENDROOT
BRANCH   1  14
ATOM     13  C   UNL     1       1.157   4.180  17.341  0.00  0.00    +0.000 C 
ATOM     14  C   UNL     1       2.381   3.333  17.571  0.00  0.00    +0.000 C 
ATOM     15  O   UNL     1       2.352   2.126  17.305  0.00  0.00    +0.000 OA
ENDBRANCH   1  14
BRANCH   2  16
ATOM     16  O   UNL     1       2.707   3.935  20.372  0.00  0.00    +0.000 OA
ATOM     17  H   UNL     1       2.311   4.804  20.609  0.00  0.00    +0.000 HD
ENDBRANCH   2  16
BRANCH   4  18
ATOM     18  O   UNL     1       7.157   5.398  19.837  0.00  0.00    +0.000 OA
ATOM     19  H   UNL     1       7.812   5.544  19.133  0.00  0.00    +0.000 HD
ENDBRANCH   4  18
TORSDOF 3
ENDMDL
MODEL 9
REMARK VINA RESULT:      -5.8      8.697     11.281
REMARK  Name = 
REMARK  6 active torsions:
REMARK  status: ('A' for Active; 'I' for Inactive)
REMARK    1  A    between atoms: C_1  and  C_2
REMARK    2  A    between atoms: C_2  and  C_4
REMARK    3  A    between atoms: C_5  and  O_6
REMARK    4  A    between atoms: C_8  and  O_9
REMARK    5  A    between atoms: C_13  and  C_14
REMARK    6  A    between atoms: C_13  and  C_15
REMARK                            x       y       z     vdW  Elec       q    Type
REMARK                         _______ _______ _______ _____ _____    ______ ____
ROOT
ATOM      1  C   UNL     1      10.468  12.736  18.712  0.00  0.00    +0.000 A 
ATOM      2  C   UNL     1      11.456  12.708  17.710  0.00  0.00    +0.000 A 
ATOM      3  C   UNL     1      11.614  13.762  16.814  0.00  0.00    +0.000 A 
ATOM      4  C   UNL     1      10.752  14.847  16.882  0.00  0.00    +0.000 A 
ATOM      5  C   UNL     1       9.747  14.911  17.850  0.00  0.00    +0.000 A 
ATOM      6  C   UNL     1       9.642  13.877  18.804  0.00  0.00    +0.000 A 
ATOM      7  O   UNL     1       8.750  13.949  19.842  0.00  0.00    +0.000 OA
ATOM      8  C   UNL     1       8.141  15.224  20.118  0.00  0.00    +0.000 C 
ATOM      9  C   UNL     1       9.128  16.110  20.894  0.00  0.00    +0.000 C 
ATOM     10  C   UNL     1       6.938  14.935  21.026  0.00  0.00    +0.000 C 
ATOM     11  C   UNL     1       7.646  15.849  18.814  0.00  0.00    +0.000 C 
ATOM     12  C   UNL     1       8.814  16.094  17.875  0.00  0.00    +0.000 C 
ENDROOT
BRANCH   1  14
ATOM     13  C   UNL     1       9.337  10.456  19.371  0.00  0.00    +0.000 C 
ATOM     14  C   UNL     1      10.346  11.545  19.621  0.00  0.00    +0.000 C 
ATOM     15  O   UNL     1      11.105  11.468  20.594  0.00  0.00    +0.000 OA
ENDBRANCH   1  14
BRANCH   2  16
ATOM     16  O   UNL     1      12.333  11.667  17.536  0.00  0.00    +0.000 OA
ATOM     17  H   UNL     1      12.567  11.623  16.580  0.00  0.00    +0.000 HD
ENDBRANCH   2  16
BRANCH   4  18
ATOM     18  O   UNL     1      10.882  15.882  15.999  0.00  0.00    +0.000 OA
ATOM     19  H   UNL     1      10.594  16.704  16.432  0.00  0.00    +0.000 HD
ENDBRANCH   4  18
TORSDOF 3
ENDMDL
