MODEL 1
REMARK VINA RESULT:      -7.1      0.000      0.000
REMARK  Name = 
REMARK  4 active torsions:
REMARK  status: ('A' for Active; 'I' for Inactive)
REMARK    1  A    between atoms: N_5  and  C_6
REMARK    2  A    between atoms: C_6  and  C_7
REMARK    3  A    between atoms: C_7  and  C_8
REMARK    4  A    between atoms: C_8  and  O_9
REMARK                            x       y       z     vdW  Elec       q    Type
REMARK                         _______ _______ _______ _____ _____    ______ ____
ROOT
ATOM      1  N   UNL     1       7.502   5.135  15.296  0.00  0.00    +0.000 N 
ATOM      2  C   UNL     1       6.601   4.919  16.304  0.00  0.00    +0.000 A 
ATOM      3  C   UNL     1       5.214   4.554  15.969  0.00  0.00    +0.000 A 
ATOM      4  C   UNL     1       4.410   4.306  16.999  0.00  0.00    +0.000 A 
ATOM      5  N   UNL     1       4.850   4.420  18.296  0.00  0.00    +0.000 N 
ATOM      6  C   UNL     1       6.155   4.863  18.574  0.00  0.00    +0.000 A 
ATOM      7  O   UNL     1       6.516   5.090  19.729  0.00  0.00    +0.000 OA
ATOM      8  N   UNL     1       7.026   5.046  17.522  0.00  0.00    +0.000 NA
ATOM      9  H   UNL     1       7.368   4.634  14.433  0.00  0.00    +0.000 HD
ATOM     10  H   UNL     1       8.464   5.133  15.623  0.00  0.00    +0.000 HD
ENDROOT
BRANCH   5  11
ATOM     11  C   UNL     1       3.872   4.349  19.391  0.00  0.00    +0.000 C 
BRANCH  11  12
ATOM     12  C   UNL     1       3.291   2.954  19.793  0.00  0.00    +0.000 C 
ATOM     13  C   UNL     1       2.665   3.144  21.214  0.00  0.00    +0.000 C 
ATOM     14  C   UNL     1       1.198   3.259  20.953  0.00  0.00    +0.000 C 
ATOM     15  C   UNL     1       0.886   2.917  19.701  0.00  0.00    +0.000 C 
ATOM     16  C   UNL     1       2.091   2.506  18.917  0.00  0.00    +0.000 C 
BRANCH  12  17
ATOM     17  C   UNL     1       4.397   1.882  19.799  0.00  0.00    +0.000 C 
BRANCH  17  18
ATOM     18  O   UNL     1       5.105   1.821  21.038  0.00  0.00    +0.000 OA
ATOM     19  H   UNL     1       4.469   1.848  21.771  0.00  0.00    +0.000 HD
ENDBRANCH  17  18
ENDBRANCH  12  17
ENDBRANCH  11  12
ENDBRANCH   5  11
TORSDOF 4
ENDMDL
MODEL 2
REMARK VINA RESULT:      -6.8      1.345      2.189
REMARK  Name = 
REMARK  4 active torsions:
REMARK  status: ('A' for Active; 'I' for Inactive)
REMARK    1  A    between atoms: N_5  and  C_6
REMARK    2  A    between atoms: C_6  and  C_7
REMARK    3  A    between atoms: C_7  and  C_8
REMARK    4  A    between atoms: C_8  and  O_9
REMARK                            x       y       z     vdW  Elec       q    Type
REMARK                         _______ _______ _______ _____ _____    ______ ____
ROOT
ATOM      1  N   UNL     1       7.471   5.361  15.249  0.00  0.00    +0.000 N 
ATOM      2  C   UNL     1       6.664   4.950  16.275  0.00  0.00    +0.000 A 
ATOM      3  C   UNL     1       5.433   4.201  15.972  0.00  0.00    +0.000 A 
ATOM      4  C   UNL     1       4.727   3.786  17.021  0.00  0.00    +0.000 A 
ATOM      5  N   UNL     1       5.118   4.075  18.307  0.00  0.00    +0.000 N 
ATOM      6  C   UNL     1       6.249   4.872  18.551  0.00  0.00    +0.000 A 
ATOM      7  O   UNL     1       6.533   5.240  19.691  0.00  0.00    +0.000 OA
ATOM      8  N   UNL     1       7.037   5.242  17.482  0.00  0.00    +0.000 NA
ATOM      9  H   UNL     1       7.481   4.806  14.409  0.00  0.00    +0.000 HD
ATOM     10  H   UNL     1       8.396   5.639  15.564  0.00  0.00    +0.000 HD
ENDROOT
BRANCH   5  11
ATOM     11  C   UNL     1       4.196   3.784  19.415  0.00  0.00    +0.000 C 
BRANCH  11  12
ATOM     12  C   UNL     1       2.837   4.553  19.485  0.00  0.00    +0.000 C 
ATOM     13  C   UNL     1       1.866   3.794  18.520  0.00  0.00    +0.000 C 
ATOM     14  C   UNL     1       1.016   2.971  19.433  0.00  0.00    +0.000 C 
ATOM     15  C   UNL     1       1.168   3.325  20.710  0.00  0.00    +0.000 C 
ATOM     16  C   UNL     1       2.137   4.452  20.867  0.00  0.00    +0.000 C 
BRANCH  12  17
ATOM     17  C   UNL     1       3.017   6.024  19.066  0.00  0.00    +0.000 C 
BRANCH  17  18
ATOM     18  O   UNL     1       2.618   6.944  20.083  0.00  0.00    +0.000 OA
ATOM     19  H   UNL     1       1.668   6.840  20.254  0.00  0.00    +0.000 HD
ENDBRANCH  17  18
ENDBRANCH  12  17
ENDBRANCH  11  12
ENDBRANCH   5  11
TORSDOF 4
ENDMDL
MODEL 3
REMARK VINA RESULT:      -6.8      1.585      1.661
REMARK  Name = 
REMARK  4 active torsions:
REMARK  status: ('A' for Active; 'I' for Inactive)
REMARK    1  A    between atoms: N_5  and  C_6
REMARK    2  A    between atoms: C_6  and  C_7
REMARK    3  A    between atoms: C_7  and  C_8
REMARK    4  A    between atoms: C_8  and  O_9
REMARK                            x       y       z     vdW  Elec       q    Type
REMARK                         _______ _______ _______ _____ _____    ______ ____
ROOT
ATOM      1  N   UNL     1       7.662   5.425  14.277  0.00  0.00    +0.000 N 
ATOM      2  C   UNL     1       6.876   5.228  15.379  0.00  0.00    +0.000 A 
ATOM      3  C   UNL     1       5.423   5.446  15.281  0.00  0.00    +0.000 A 
ATOM      4  C   UNL     1       4.716   5.183  16.377  0.00  0.00    +0.000 A 
ATOM      5  N   UNL     1       5.323   4.765  17.537  0.00  0.00    +0.000 N 
ATOM      6  C   UNL     1       6.722   4.660  17.618  0.00  0.00    +0.000 A 
ATOM      7  O   UNL     1       7.279   4.410  18.687  0.00  0.00    +0.000 OA
ATOM      8  N   UNL     1       7.463   4.849  16.471  0.00  0.00    +0.000 NA
ATOM      9  H   UNL     1       7.247   5.269  13.372  0.00  0.00    +0.000 HD
ATOM     10  H   UNL     1       8.586   5.016  14.375  0.00  0.00    +0.000 HD
ENDROOT
BRANCH   5  11
ATOM     11  C   UNL     1       4.530   4.699  18.773  0.00  0.00    +0.000 C 
BRANCH  11  12
ATOM     12  C   UNL     1       3.372   3.652  18.870  0.00  0.00    +0.000 C 
ATOM     13  C   UNL     1       3.350   3.175  20.360  0.00  0.00    +0.000 C 
ATOM     14  C   UNL     1       2.212   3.929  20.967  0.00  0.00    +0.000 C 
ATOM     15  C   UNL     1       1.460   4.528  20.041  0.00  0.00    +0.000 C 
ATOM     16  C   UNL     1       1.962   4.266  18.658  0.00  0.00    +0.000 C 
BRANCH  12  17
ATOM     17  C   UNL     1       3.612   2.479  17.902  0.00  0.00    +0.000 C 
BRANCH  17  18
ATOM     18  O   UNL     1       2.456   1.659  17.725  0.00  0.00    +0.000 OA
ATOM     19  H   UNL     1       2.568   1.116  16.928  0.00  0.00    +0.000 HD
ENDBRANCH  17  18
ENDBRANCH  12  17
ENDBRANCH  11  12
ENDBRANCH   5  11
TORSDOF 4
ENDMDL
MODEL 4
REMARK VINA RESULT:      -6.8      2.064      5.075
REMARK  Name = 
REMARK  4 active torsions:
REMARK  status: ('A' for Active; 'I' for Inactive)
REMARK    1  A    between atoms: N_5  and  C_6
REMARK    2  A    between atoms: C_6  and  C_7
REMARK    3  A    between atoms: C_7  and  C_8
REMARK    4  A    between atoms: C_8  and  O_9
REMARK                            x       y       z     vdW  Elec       q    Type
REMARK                         _______ _______ _______ _____ _____    ______ ____
ROOT
ATOM      1  N   UNL     1       0.648   3.391  20.435  0.00  0.00    +0.000 N 
ATOM      2  C   UNL     1       1.702   3.484  19.568  0.00  0.00    +0.000 A 
ATOM      3  C   UNL     1       1.450   3.804  18.153  0.00  0.00    +0.000 A 
ATOM      4  C   UNL     1       2.525   3.932  17.381  0.00  0.00    +0.000 A 
ATOM      5  N   UNL     1       3.792   3.740  17.879  0.00  0.00    +0.000 N 
ATOM      6  C   UNL     1       3.985   3.344  19.214  0.00  0.00    +0.000 A 
ATOM      7  O   UNL     1       5.105   3.049  19.633  0.00  0.00    +0.000 OA
ATOM      8  N   UNL     1       2.890   3.287  20.048  0.00  0.00    +0.000 NA
ATOM      9  H   UNL     1      -0.168   3.949  20.242  0.00  0.00    +0.000 HD
ATOM     10  H   UNL     1       0.937   3.418  21.409  0.00  0.00    +0.000 HD
ENDROOT
BRANCH   5  11
ATOM     11  C   UNL     1       4.925   3.678  16.945  0.00  0.00    +0.000 C 
BRANCH  11  12
ATOM     12  C   UNL     1       5.864   4.922  16.816  0.00  0.00    +0.000 C 
ATOM     13  C   UNL     1       5.589   5.520  15.396  0.00  0.00    +0.000 C 
ATOM     14  C   UNL     1       4.699   6.691  15.661  0.00  0.00    +0.000 C 
ATOM     15  C   UNL     1       4.644   6.992  16.960  0.00  0.00    +0.000 C 
ATOM     16  C   UNL     1       5.496   6.080  17.782  0.00  0.00    +0.000 C 
BRANCH  12  17
ATOM     17  C   UNL     1       7.340   4.514  16.984  0.00  0.00    +0.000 C 
BRANCH  17  18
ATOM     18  O   UNL     1       7.665   4.146  18.325  0.00  0.00    +0.000 OA
ATOM     19  H   UNL     1       8.571   3.798  18.350  0.00  0.00    +0.000 HD
ENDBRANCH  17  18
ENDBRANCH  12  17
ENDBRANCH  11  12
ENDBRANCH   5  11
TORSDOF 4
ENDMDL
MODEL 5
REMARK VINA RESULT:      -6.8      1.555      1.717
REMARK  Name = 
REMARK  4 active torsions:
REMARK  status: ('A' for Active; 'I' for Inactive)
REMARK    1  A    between atoms: N_5  and  C_6
REMARK    2  A    between atoms: C_6  and  C_7
REMARK    3  A    between atoms: C_7  and  C_8
REMARK    4  A    between atoms: C_8  and  O_9
REMARK                            x       y       z     vdW  Elec       q    Type
REMARK                         _______ _______ _______ _____ _____    ______ ____
ROOT
ATOM      1  N   UNL     1       7.528   5.490  14.562  0.00  0.00    +0.000 N 
ATOM      2  C   UNL     1       6.449   5.249  15.367  0.00  0.00    +0.000 A 
ATOM      3  C   UNL     1       5.904   3.884  15.458  0.00  0.00    +0.000 A 
ATOM      4  C   UNL     1       4.890   3.714  16.302  0.00  0.00    +0.000 A 
ATOM      5  N   UNL     1       4.368   4.766  17.017  0.00  0.00    +0.000 N 
ATOM      6  C   UNL     1       4.856   6.071  16.832  0.00  0.00    +0.000 A 
ATOM      7  O   UNL     1       4.312   7.034  17.371  0.00  0.00    +0.000 OA
ATOM      8  N   UNL     1       5.958   6.253  16.024  0.00  0.00    +0.000 NA
ATOM      9  H   UNL     1       8.182   4.737  14.416  0.00  0.00    +0.000 HD
ATOM     10  H   UNL     1       7.973   6.382  14.758  0.00  0.00    +0.000 HD
ENDROOT
BRANCH   5  11
ATOM     11  C   UNL     1       3.118   4.570  17.764  0.00  0.00    +0.000 C 
BRANCH  11  12
ATOM     12  C   UNL     1       3.182   3.911  19.181  0.00  0.00    +0.000 C 
ATOM     13  C   UNL     1       2.487   4.919  20.155  0.00  0.00    +0.000 C 
ATOM     14  C   UNL     1       1.124   4.343  20.362  0.00  0.00    +0.000 C 
ATOM     15  C   UNL     1       1.033   3.096  19.895  0.00  0.00    +0.000 C 
ATOM     16  C   UNL     1       2.322   2.624  19.305  0.00  0.00    +0.000 C 
BRANCH  12  17
ATOM     17  C   UNL     1       4.641   3.639  19.592  0.00  0.00    +0.000 C 
BRANCH  17  18
ATOM     18  O   UNL     1       4.950   2.246  19.654  0.00  0.00    +0.000 OA
ATOM     19  H   UNL     1       5.075   1.905  18.754  0.00  0.00    +0.000 HD
ENDBRANCH  17  18
ENDBRANCH  12  17
ENDBRANCH  11  12
ENDBRANCH   5  11
TORSDOF 4
ENDMDL
MODEL 6
REMARK VINA RESULT:      -6.7      1.051      1.805
REMARK  Name = 
REMARK  4 active torsions:
REMARK  status: ('A' for Active; 'I' for Inactive)
REMARK    1  A    between atoms: N_5  and  C_6
REMARK    2  A    between atoms: C_6  and  C_7
REMARK    3  A    between atoms: C_7  and  C_8
REMARK    4  A    between atoms: C_8  and  O_9
REMARK                            x       y       z     vdW  Elec       q    Type
REMARK                         _______ _______ _______ _____ _____    ______ ____
ROOT
ATOM      1  N   UNL     1       7.497   5.291  15.365  0.00  0.00    +0.000 N 
ATOM      2  C   UNL     1       6.537   5.222  16.337  0.00  0.00    +0.000 A 
ATOM      3  C   UNL     1       5.118   5.343  15.963  0.00  0.00    +0.000 A 
ATOM      4  C   UNL     1       4.239   5.212  16.953  0.00  0.00    +0.000 A 
ATOM      5  N   UNL     1       4.645   5.008  18.250  0.00  0.00    +0.000 N 
ATOM      6  C   UNL     1       6.012   4.992  18.580  0.00  0.00    +0.000 A 
ATOM      7  O   UNL     1       6.381   4.937  19.753  0.00  0.00    +0.000 OA
ATOM      8  N   UNL     1       6.935   5.045  17.558  0.00  0.00    +0.000 NA
ATOM      9  H   UNL     1       7.250   4.978  14.439  0.00  0.00    +0.000 HD
ATOM     10  H   UNL     1       8.401   4.952  15.681  0.00  0.00    +0.000 HD
ENDROOT
BRANCH   5  11
ATOM     11  C   UNL     1       3.651   5.088  19.331  0.00  0.00    +0.000 C 
BRANCH  11  12
ATOM     12  C   UNL     1       2.960   3.772  19.816  0.00  0.00    +0.000 C 
ATOM     13  C   UNL     1       1.775   3.521  18.826  0.00  0.00    +0.000 C 
ATOM     14  C   UNL     1       2.290   2.465  17.903  0.00  0.00    +0.000 C 
ATOM     15  C   UNL     1       3.421   1.918  18.352  0.00  0.00    +0.000 C 
ATOM     16  C   UNL     1       3.848   2.509  19.656  0.00  0.00    +0.000 C 
BRANCH  12  17
ATOM     17  C   UNL     1       2.466   3.916  21.267  0.00  0.00    +0.000 C 
BRANCH  17  18
ATOM     18  O   UNL     1       2.613   2.715  22.026  0.00  0.00    +0.000 OA
ATOM     19  H   UNL     1       1.946   2.699  22.732  0.00  0.00    +0.000 HD
ENDBRANCH  17  18
ENDBRANCH  12  17
ENDBRANCH  11  12
ENDBRANCH   5  11
TORSDOF 4
ENDMDL
MODEL 7
REMARK VINA RESULT:      -6.5      1.729      1.917
REMARK  Name = 
REMARK  4 active torsions:
REMARK  status: ('A' for Active; 'I' for Inactive)
REMARK    1  A    between atoms: N_5  and  C_6
REMARK    2  A    between atoms: C_6  and  C_7
REMARK    3  A    between atoms: C_7  and  C_8
REMARK    4  A    between atoms: C_8  and  O_9
REMARK                            x       y       z     vdW  Elec       q    Type
REMARK                         _______ _______ _______ _____ _____    ______ ____
ROOT
ATOM      1  N   UNL     1       7.503   6.733  16.487  0.00  0.00    +0.000 N 
ATOM      2  C   UNL     1       6.336   6.071  16.755  0.00  0.00    +0.000 A 
ATOM      3  C   UNL     1       6.208   4.651  16.386  0.00  0.00    +0.000 A 
ATOM      4  C   UNL     1       5.066   4.059  16.727  0.00  0.00    +0.000 A 
ATOM      5  N   UNL     1       4.060   4.751  17.357  0.00  0.00    +0.000 N 
ATOM      6  C   UNL     1       4.185   6.129  17.608  0.00  0.00    +0.000 A 
ATOM      7  O   UNL     1       3.241   6.780  18.055  0.00  0.00    +0.000 OA
ATOM      8  N   UNL     1       5.390   6.740  17.336  0.00  0.00    +0.000 NA
ATOM      9  H   UNL     1       8.355   6.195  16.476  0.00  0.00    +0.000 HD
ATOM     10  H   UNL     1       7.582   7.610  16.994  0.00  0.00    +0.000 HD
ENDROOT
BRANCH   5  11
ATOM     11  C   UNL     1       2.745   4.113  17.515  0.00  0.00    +0.000 C 
BRANCH  11  12
ATOM     12  C   UNL     1       2.537   3.096  18.684  0.00  0.00    +0.000 C 
ATOM     13  C   UNL     1       3.208   3.744  19.940  0.00  0.00    +0.000 C 
ATOM     14  C   UNL     1       2.061   4.298  20.720  0.00  0.00    +0.000 C 
ATOM     15  C   UNL     1       0.887   3.860  20.261  0.00  0.00    +0.000 C 
ATOM     16  C   UNL     1       1.052   2.929  19.104  0.00  0.00    +0.000 C 
BRANCH  12  17
ATOM     17  C   UNL     1       3.168   1.733  18.342  0.00  0.00    +0.000 C 
BRANCH  17  18
ATOM     18  O   UNL     1       4.367   1.477  19.074  0.00  0.00    +0.000 OA
ATOM     19  H   UNL     1       4.322   1.930  19.932  0.00  0.00    +0.000 HD
ENDBRANCH  17  18
ENDBRANCH  12  17
ENDBRANCH  11  12
ENDBRANCH   5  11
TORSDOF 4
ENDMDL
MODEL 8
REMARK VINA RESULT:      -6.5      1.624      2.019
REMARK  Name = 
REMARK  4 active torsions:
REMARK  status: ('A' for Active; 'I' for Inactive)
REMARK    1  A    between atoms: N_5  and  C_6
REMARK    2  A    between atoms: C_6  and  C_7
REMARK    3  A    between atoms: C_7  and  C_8
REMARK    4  A    between atoms: C_8  and  O_9
REMARK                            x       y       z     vdW  Elec       q    Type
REMARK                         _______ _______ _______ _____ _____    ______ ____
ROOT
ATOM      1  N   UNL     1       7.448   5.637  15.423  0.00  0.00    +0.000 N 
ATOM      2  C   UNL     1       6.584   5.059  16.313  0.00  0.00    +0.000 A 
ATOM      3  C   UNL     1       5.470   4.236  15.811  0.00  0.00    +0.000 A 
ATOM      4  C   UNL     1       4.705   3.662  16.735  0.00  0.00    +0.000 A 
ATOM      5  N   UNL     1       4.929   3.861  18.076  0.00  0.00    +0.000 N 
ATOM      6  C   UNL     1       5.945   4.729  18.513  0.00  0.00    +0.000 A 
ATOM      7  O   UNL     1       6.071   5.010  19.705  0.00  0.00    +0.000 OA
ATOM      8  N   UNL     1       6.799   5.267  17.574  0.00  0.00    +0.000 NA
ATOM      9  H   UNL     1       7.600   5.167  14.545  0.00  0.00    +0.000 HD
ATOM     10  H   UNL     1       8.303   5.965  15.862  0.00  0.00    +0.000 HD
ENDROOT
BRANCH   5  11
ATOM     11  C   UNL     1       3.931   3.385  19.045  0.00  0.00    +0.000 C 
BRANCH  11  12
ATOM     12  C   UNL     1       2.472   3.940  18.957  0.00  0.00    +0.000 C 
ATOM     13  C   UNL     1       1.981   4.089  20.435  0.00  0.00    +0.000 C 
ATOM     14  C   UNL     1       2.117   5.549  20.718  0.00  0.00    +0.000 C 
ATOM     15  C   UNL     1       2.346   6.254  19.608  0.00  0.00    +0.000 C 
ATOM     16  C   UNL     1       2.391   5.384  18.394  0.00  0.00    +0.000 C 
BRANCH  12  17
ATOM     17  C   UNL     1       1.570   2.985  18.152  0.00  0.00    +0.000 C 
BRANCH  17  18
ATOM     18  O   UNL     1       1.588   1.649  18.656  0.00  0.00    +0.000 OA
ATOM     19  H   UNL     1       1.618   1.026  17.911  0.00  0.00    +0.000 HD
ENDBRANCH  17  18
ENDBRANCH  12  17
ENDBRANCH  11  12
ENDBRANCH   5  11
TORSDOF 4
ENDMDL
MODEL 9
REMARK VINA RESULT:      -6.5      2.258      5.487
REMARK  Name = 
REMARK  4 active torsions:
REMARK  status: ('A' for Active; 'I' for Inactive)
REMARK    1  A    between atoms: N_5  and  C_6
REMARK    2  A    between atoms: C_6  and  C_7
REMARK    3  A    between atoms: C_7  and  C_8
REMARK    4  A    between atoms: C_8  and  O_9
REMARK                            x       y       z     vdW  Elec       q    Type
REMARK                         _______ _______ _______ _____ _____    ______ ____
ROOT
ATOM      1  N   UNL     1       1.494   2.715  22.242  0.00  0.00    +0.000 N 
ATOM      2  C   UNL     1       2.043   3.120  21.056  0.00  0.00    +0.000 A 
ATOM      3  C   UNL     1       2.135   4.559  20.755  0.00  0.00    +0.000 A 
ATOM      4  C   UNL     1       2.729   4.879  19.609  0.00  0.00    +0.000 A 
ATOM      5  N   UNL     1       3.196   3.914  18.748  0.00  0.00    +0.000 N 
ATOM      6  C   UNL     1       3.005   2.550  19.029  0.00  0.00    +0.000 A 
ATOM      7  O   UNL     1       3.305   1.685  18.207  0.00  0.00    +0.000 OA
ATOM      8  N   UNL     1       2.465   2.199  20.248  0.00  0.00    +0.000 NA
ATOM      9  H   UNL     1       1.580   3.332  23.033  0.00  0.00    +0.000 HD
ATOM     10  H   UNL     1       1.701   1.745  22.460  0.00  0.00    +0.000 HD
ENDROOT
BRANCH   5  11
ATOM     11  C   UNL     1       3.644   4.311  17.406  0.00  0.00    +0.000 C 
BRANCH  11  12
ATOM     12  C   UNL     1       5.096   4.863  17.229  0.00  0.00    +0.000 C 
ATOM     13  C   UNL     1       5.640   4.225  15.908  0.00  0.00    +0.000 C 
ATOM     14  C   UNL     1       5.505   5.315  14.895  0.00  0.00    +0.000 C 
ATOM     15  C   UNL     1       5.233   6.492  15.462  0.00  0.00    +0.000 C 
ATOM     16  C   UNL     1       5.149   6.390  16.951  0.00  0.00    +0.000 C 
BRANCH  12  17
ATOM     17  C   UNL     1       5.973   4.495  18.440  0.00  0.00    +0.000 C 
BRANCH  17  18
ATOM     18  O   UNL     1       7.315   4.168  18.076  0.00  0.00    +0.000 OA
ATOM     19  H   UNL     1       7.790   3.847  18.859  0.00  0.00    +0.000 HD
ENDBRANCH  17  18
ENDBRANCH  12  17
ENDBRANCH  11  12
ENDBRANCH   5  11
TORSDOF 4
ENDMDL
