MODEL 1
REMARK VINA RESULT:      -7.3      0.000      0.000
REMARK  Name = 
REMARK  7 active torsions:
REMARK  status: ('A' for Active; 'I' for Inactive)
REMARK    1  A    between atoms: C_1  and  C_2
REMARK    2  A    between atoms: C_6  and  C_7
REMARK    3  A    between atoms: C_8  and  O_9
REMARK    4  A    between atoms: O_9  and  C_10
REMARK    5  A    between atoms: C_10  and  C_11
REMARK    6  A    between atoms: N_13  and  C_14
REMARK    7  A    between atoms: C_19  and  O_20
REMARK                            x       y       z     vdW  Elec       q    Type
REMARK                         _______ _______ _______ _____ _____    ______ ____
ROOT
ATOM      1  C   UNL     1       6.198   4.335  17.184  0.00  0.00    +0.000 C 
ATOM      2  O   UNL     1       7.413   4.146  17.247  0.00  0.00    +0.000 OA
ATOM      3  N   UNL     1       5.503   4.317  15.976  0.00  0.00    +0.000 N 
ATOM      4  H   UNL     1       4.570   4.702  15.944  0.00  0.00    +0.000 HD
ENDROOT
BRANCH   3   5
ATOM      5  C   UNL     1       6.256   4.166  14.741  0.00  0.00    +0.000 C 
ATOM      6  C   UNL     1       5.392   3.677  13.580  0.00  0.00    +0.000 C 
ATOM      7  C   UNL     1       6.294   3.320  12.398  0.00  0.00    +0.000 C 
ATOM      8  C   UNL     1       7.211   4.473  11.980  0.00  0.00    +0.000 C 
ATOM      9  C   UNL     1       7.940   5.128  13.154  0.00  0.00    +0.000 C 
ATOM     10  C   UNL     1       6.992   5.458  14.310  0.00  0.00    +0.000 C 
BRANCH  10  11
ATOM     11  O   UNL     1       7.742   6.044  15.375  0.00  0.00    +0.000 OA
ATOM     12  H   UNL     1       8.676   6.087  15.081  0.00  0.00    +0.000 HD
ENDBRANCH  10  11
ENDBRANCH   3   5
BRANCH   1  13
ATOM     13  C   UNL     1       5.373   4.685  18.422  0.00  0.00    +0.000 C 
BRANCH  13  14
ATOM     14  O   UNL     1       4.001   4.868  18.143  0.00  0.00    +0.000 OA
BRANCH  14  22
ATOM     15  C   UNL     1       3.371   1.769  18.069  0.00  0.00    +0.000 C 
ATOM     16  C   UNL     1       2.759   2.836  18.936  0.00  0.00    +0.000 A 
ATOM     17  C   UNL     1       1.769   2.380  19.837  0.00  0.00    +0.000 A 
ATOM     18  C   UNL     1       1.072   3.249  20.667  0.00  0.00    +0.000 A 
ATOM     19  C   UNL     1       1.313   4.608  20.583  0.00  0.00    +0.000 A 
ATOM     20  C   UNL     1       2.277   5.104  19.690  0.00  0.00    +0.000 A 
ATOM     21  C   UNL     1       2.449   6.599  19.595  0.00  0.00    +0.000 C 
ATOM     22  C   UNL     1       3.045   4.218  18.889  0.00  0.00    +0.000 A 
ENDBRANCH  14  22
ENDBRANCH  13  14
ENDBRANCH   1  13
TORSDOF 5
ENDMDL
MODEL 2
REMARK VINA RESULT:      -7.1      0.289      1.975
REMARK  Name = 
REMARK  7 active torsions:
REMARK  status: ('A' for Active; 'I' for Inactive)
REMARK    1  A    between atoms: C_1  and  C_2
REMARK    2  A    between atoms: C_6  and  C_7
REMARK    3  A    between atoms: C_8  and  O_9
REMARK    4  A    between atoms: O_9  and  C_10
REMARK    5  A    between atoms: C_10  and  C_11
REMARK    6  A    between atoms: N_13  and  C_14
REMARK    7  A    between atoms: C_19  and  O_20
REMARK                            x       y       z     vdW  Elec       q    Type
REMARK                         _______ _______ _______ _____ _____    ______ ____
ROOT
ATOM      1  C   UNL     1       6.019   4.264  16.891  0.00  0.00    +0.000 C 
ATOM      2  O   UNL     1       7.227   4.078  17.037  0.00  0.00    +0.000 OA
ATOM      3  N   UNL     1       5.409   4.242  15.638  0.00  0.00    +0.000 N 
ATOM      4  H   UNL     1       4.480   4.625  15.541  0.00  0.00    +0.000 HD
ENDROOT
BRANCH   3   5
ATOM      5  C   UNL     1       6.245   4.089  14.458  0.00  0.00    +0.000 C 
ATOM      6  C   UNL     1       5.466   3.588  13.244  0.00  0.00    +0.000 C 
ATOM      7  C   UNL     1       6.450   3.230  12.128  0.00  0.00    +0.000 C 
ATOM      8  C   UNL     1       7.385   4.388  11.767  0.00  0.00    +0.000 C 
ATOM      9  C   UNL     1       8.027   5.054  12.984  0.00  0.00    +0.000 C 
ATOM     10  C   UNL     1       7.000   5.384  14.070  0.00  0.00    +0.000 C 
BRANCH  10  11
ATOM     11  O   UNL     1       7.671   5.981  15.180  0.00  0.00    +0.000 OA
ATOM     12  H   UNL     1       7.317   6.889  15.279  0.00  0.00    +0.000 HD
ENDBRANCH  10  11
ENDBRANCH   3   5
BRANCH   1  13
ATOM     13  C   UNL     1       5.110   4.615  18.068  0.00  0.00    +0.000 C 
BRANCH  13  14
ATOM     14  O   UNL     1       3.741   4.393  17.800  0.00  0.00    +0.000 OA
BRANCH  14  22
ATOM     15  C   UNL     1       2.477   6.555  19.733  0.00  0.00    +0.000 C 
ATOM     16  C   UNL     1       2.226   5.072  19.683  0.00  0.00    +0.000 A 
ATOM     17  C   UNL     1       1.296   4.590  20.632  0.00  0.00    +0.000 A 
ATOM     18  C   UNL     1       0.996   3.239  20.750  0.00  0.00    +0.000 A 
ATOM     19  C   UNL     1       1.658   2.324  19.950  0.00  0.00    +0.000 A 
ATOM     20  C   UNL     1       2.600   2.760  19.005  0.00  0.00    +0.000 A 
ATOM     21  C   UNL     1       3.337   1.713  18.207  0.00  0.00    +0.000 C 
ATOM     22  C   UNL     1       2.861   4.145  18.827  0.00  0.00    +0.000 A 
ENDBRANCH  14  22
ENDBRANCH  13  14
ENDBRANCH   1  13
TORSDOF 5
ENDMDL
MODEL 3
REMARK VINA RESULT:      -7.1      2.938      3.646
REMARK  Name = 
REMARK  7 active torsions:
REMARK  status: ('A' for Active; 'I' for Inactive)
REMARK    1  A    between atoms: C_1  and  C_2
REMARK    2  A    between atoms: C_6  and  C_7
REMARK    3  A    between atoms: C_8  and  O_9
REMARK    4  A    between atoms: O_9  and  C_10
REMARK    5  A    between atoms: C_10  and  C_11
REMARK    6  A    between atoms: N_13  and  C_14
REMARK    7  A    between atoms: C_19  and  O_20
REMARK                            x       y       z     vdW  Elec       q    Type
REMARK                         _______ _______ _______ _____ _____    ______ ____
ROOT
ATOM      1  C   UNL     1       3.982   4.140  16.956  0.00  0.00    +0.000 C 
ATOM      2  O   UNL     1       4.816   3.236  16.882  0.00  0.00    +0.000 OA
ATOM      3  N   UNL     1       4.338   5.458  17.235  0.00  0.00    +0.000 N 
ATOM      4  H   UNL     1       3.618   6.109  17.515  0.00  0.00    +0.000 HD
ENDROOT
BRANCH   3   5
ATOM      5  C   UNL     1       5.727   5.756  17.544  0.00  0.00    +0.000 C 
ATOM      6  C   UNL     1       6.117   7.189  17.187  0.00  0.00    +0.000 C 
ATOM      7  C   UNL     1       7.633   7.345  17.318  0.00  0.00    +0.000 C 
ATOM      8  C   UNL     1       8.155   6.939  18.699  0.00  0.00    +0.000 C 
ATOM      9  C   UNL     1       7.616   5.593  19.183  0.00  0.00    +0.000 C 
ATOM     10  C   UNL     1       6.097   5.489  19.024  0.00  0.00    +0.000 C 
BRANCH  10  11
ATOM     11  O   UNL     1       5.668   4.203  19.473  0.00  0.00    +0.000 OA
ATOM     12  H   UNL     1       6.083   4.049  20.347  0.00  0.00    +0.000 HD
ENDBRANCH  10  11
ENDBRANCH   3   5
BRANCH   1  13
ATOM     13  C   UNL     1       2.485   3.867  16.827  0.00  0.00    +0.000 C 
BRANCH  13  14
ATOM     14  O   UNL     1       1.715   4.502  17.827  0.00  0.00    +0.000 OA
BRANCH  14  22
ATOM     15  C   UNL     1       0.783   1.631  18.774  0.00  0.00    +0.000 C 
ATOM     16  C   UNL     1       1.374   2.748  19.590  0.00  0.00    +0.000 A 
ATOM     17  C   UNL     1       1.532   2.465  20.966  0.00  0.00    +0.000 A 
ATOM     18  C   UNL     1       2.014   3.410  21.863  0.00  0.00    +0.000 A 
ATOM     19  C   UNL     1       2.307   4.685  21.413  0.00  0.00    +0.000 A 
ATOM     20  C   UNL     1       2.150   5.012  20.056  0.00  0.00    +0.000 A 
ATOM     21  C   UNL     1       2.422   6.435  19.637  0.00  0.00    +0.000 C 
ATOM     22  C   UNL     1       1.726   4.033  19.120  0.00  0.00    +0.000 A 
ENDBRANCH  14  22
ENDBRANCH  13  14
ENDBRANCH   1  13
TORSDOF 5
ENDMDL
MODEL 4
REMARK VINA RESULT:      -6.9      1.073      1.825
REMARK  Name = 
REMARK  7 active torsions:
REMARK  status: ('A' for Active; 'I' for Inactive)
REMARK    1  A    between atoms: C_1  and  C_2
REMARK    2  A    between atoms: C_6  and  C_7
REMARK    3  A    between atoms: C_8  and  O_9
REMARK    4  A    between atoms: O_9  and  C_10
REMARK    5  A    between atoms: C_10  and  C_11
REMARK    6  A    between atoms: N_13  and  C_14
REMARK    7  A    between atoms: C_19  and  O_20
REMARK                            x       y       z     vdW  Elec       q    Type
REMARK                         _______ _______ _______ _____ _____    ______ ____
ROOT
ATOM      1  C   UNL     1       6.170   4.061  16.976  0.00  0.00    +0.000 C 
ATOM      2  O   UNL     1       7.394   3.972  17.084  0.00  0.00    +0.000 OA
ATOM      3  N   UNL     1       5.531   4.066  15.737  0.00  0.00    +0.000 N 
ATOM      4  H   UNL     1       4.570   4.371  15.685  0.00  0.00    +0.000 HD
ENDROOT
BRANCH   3   5
ATOM      5  C   UNL     1       6.346   4.063  14.532  0.00  0.00    +0.000 C 
ATOM      6  C   UNL     1       5.576   3.590  13.301  0.00  0.00    +0.000 C 
ATOM      7  C   UNL     1       6.555   3.391  12.142  0.00  0.00    +0.000 C 
ATOM      8  C   UNL     1       7.388   4.642  11.847  0.00  0.00    +0.000 C 
ATOM      9  C   UNL     1       8.009   5.269  13.097  0.00  0.00    +0.000 C 
ATOM     10  C   UNL     1       6.988   5.439  14.225  0.00  0.00    +0.000 C 
BRANCH  10  11
ATOM     11  O   UNL     1       7.640   6.006  15.361  0.00  0.00    +0.000 OA
ATOM     12  H   UNL     1       7.995   5.263  15.892  0.00  0.00    +0.000 HD
ENDBRANCH  10  11
ENDBRANCH   3   5
BRANCH   1  13
ATOM     13  C   UNL     1       5.266   4.254  18.192  0.00  0.00    +0.000 C 
BRANCH  13  14
ATOM     14  O   UNL     1       4.324   3.216  18.356  0.00  0.00    +0.000 OA
BRANCH  14  22
ATOM     15  C   UNL     1       1.798   5.070  17.920  0.00  0.00    +0.000 C 
ATOM     16  C   UNL     1       2.094   4.131  19.058  0.00  0.00    +0.000 A 
ATOM     17  C   UNL     1       1.101   4.077  20.062  0.00  0.00    +0.000 A 
ATOM     18  C   UNL     1       1.249   3.300  21.204  0.00  0.00    +0.000 A 
ATOM     19  C   UNL     1       2.421   2.590  21.395  0.00  0.00    +0.000 A 
ATOM     20  C   UNL     1       3.438   2.629  20.428  0.00  0.00    +0.000 A 
ATOM     21  C   UNL     1       4.719   1.888  20.721  0.00  0.00    +0.000 C 
ATOM     22  C   UNL     1       3.267   3.363  19.225  0.00  0.00    +0.000 A 
ENDBRANCH  14  22
ENDBRANCH  13  14
ENDBRANCH   1  13
TORSDOF 5
ENDMDL
MODEL 5
REMARK VINA RESULT:      -6.8      3.357      5.416
REMARK  Name = 
REMARK  7 active torsions:
REMARK  status: ('A' for Active; 'I' for Inactive)
REMARK    1  A    between atoms: C_1  and  C_2
REMARK    2  A    between atoms: C_6  and  C_7
REMARK    3  A    between atoms: C_8  and  O_9
REMARK    4  A    between atoms: O_9  and  C_10
REMARK    5  A    between atoms: C_10  and  C_11
REMARK    6  A    between atoms: N_13  and  C_14
REMARK    7  A    between atoms: C_19  and  O_20
REMARK                            x       y       z     vdW  Elec       q    Type
REMARK                         _______ _______ _______ _____ _____    ______ ____
ROOT
ATOM      1  C   UNL     1       4.434   5.465  18.475  0.00  0.00    +0.000 C 
ATOM      2  O   UNL     1       5.043   5.920  19.444  0.00  0.00    +0.000 OA
ATOM      3  N   UNL     1       3.338   6.118  17.913  0.00  0.00    +0.000 N 
ATOM      4  H   UNL     1       2.735   5.607  17.284  0.00  0.00    +0.000 HD
ENDROOT
BRANCH   3   5
ATOM      5  C   UNL     1       2.842   7.326  18.553  0.00  0.00    +0.000 C 
ATOM      6  C   UNL     1       2.087   8.237  17.587  0.00  0.00    +0.000 C 
ATOM      7  C   UNL     1       1.811   9.577  18.272  0.00  0.00    +0.000 C 
ATOM      8  C   UNL     1       1.073   9.422  19.605  0.00  0.00    +0.000 C 
ATOM      9  C   UNL     1       1.684   8.360  20.520  0.00  0.00    +0.000 C 
ATOM     10  C   UNL     1       1.945   7.044  19.782  0.00  0.00    +0.000 C 
BRANCH  10  11
ATOM     11  O   UNL     1       2.533   6.111  20.689  0.00  0.00    +0.000 OA
ATOM     12  H   UNL     1       2.241   6.359  21.590  0.00  0.00    +0.000 HD
ENDBRANCH  10  11
ENDBRANCH   3   5
BRANCH   1  13
ATOM     13  C   UNL     1       4.783   4.108  17.868  0.00  0.00    +0.000 C 
BRANCH  13  14
ATOM     14  O   UNL     1       3.722   3.179  17.931  0.00  0.00    +0.000 OA
BRANCH  14  22
ATOM     15  C   UNL     1       4.890   1.913  20.584  0.00  0.00    +0.000 C 
ATOM     16  C   UNL     1       3.518   2.476  20.332  0.00  0.00    +0.000 A 
ATOM     17  C   UNL     1       2.639   2.429  21.438  0.00  0.00    +0.000 A 
ATOM     18  C   UNL     1       1.321   2.859  21.352  0.00  0.00    +0.000 A 
ATOM     19  C   UNL     1       0.831   3.306  20.138  0.00  0.00    +0.000 A 
ATOM     20  C   UNL     1       1.667   3.354  19.011  0.00  0.00    +0.000 A 
ATOM     21  C   UNL     1       1.059   3.787  17.700  0.00  0.00    +0.000 C 
ATOM     22  C   UNL     1       3.034   2.984  19.106  0.00  0.00    +0.000 A 
ENDBRANCH  14  22
ENDBRANCH  13  14
ENDBRANCH   1  13
TORSDOF 5
ENDMDL
MODEL 6
REMARK VINA RESULT:      -6.8      3.022      5.194
REMARK  Name = 
REMARK  7 active torsions:
REMARK  status: ('A' for Active; 'I' for Inactive)
REMARK    1  A    between atoms: C_1  and  C_2
REMARK    2  A    between atoms: C_6  and  C_7
REMARK    3  A    between atoms: C_8  and  O_9
REMARK    4  A    between atoms: O_9  and  C_10
REMARK    5  A    between atoms: C_10  and  C_11
REMARK    6  A    between atoms: N_13  and  C_14
REMARK    7  A    between atoms: C_19  and  O_20
REMARK                            x       y       z     vdW  Elec       q    Type
REMARK                         _______ _______ _______ _____ _____    ______ ____
ROOT
ATOM      1  C   UNL     1       2.691   5.773  19.134  0.00  0.00    +0.000 C 
ATOM      2  O   UNL     1       2.233   4.879  18.420  0.00  0.00    +0.000 OA
ATOM      3  N   UNL     1       4.001   6.232  19.002  0.00  0.00    +0.000 N 
ATOM      4  H   UNL     1       4.400   6.786  19.745  0.00  0.00    +0.000 HD
ENDROOT
BRANCH   3   5
ATOM      5  C   UNL     1       4.881   5.566  18.055  0.00  0.00    +0.000 C 
ATOM      6  C   UNL     1       4.766   6.133  16.642  0.00  0.00    +0.000 C 
ATOM      7  C   UNL     1       5.535   5.233  15.674  0.00  0.00    +0.000 C 
ATOM      8  C   UNL     1       6.995   5.027  16.088  0.00  0.00    +0.000 C 
ATOM      9  C   UNL     1       7.165   4.659  17.563  0.00  0.00    +0.000 C 
ATOM     10  C   UNL     1       6.369   5.586  18.484  0.00  0.00    +0.000 C 
BRANCH  10  11
ATOM     11  O   UNL     1       6.556   5.171  19.837  0.00  0.00    +0.000 OA
ATOM     12  H   UNL     1       5.816   4.569  20.060  0.00  0.00    +0.000 HD
ENDBRANCH  10  11
ENDBRANCH   3   5
BRANCH   1  13
ATOM     13  C   UNL     1       1.881   6.389  20.273  0.00  0.00    +0.000 C 
BRANCH  13  14
ATOM     14  O   UNL     1       2.182   7.750  20.497  0.00  0.00    +0.000 OA
BRANCH  14  22
ATOM     15  C   UNL     1       2.110   8.819  17.520  0.00  0.00    +0.000 C 
ATOM     16  C   UNL     1       1.243   9.213  18.686  0.00  0.00    +0.000 A 
ATOM     17  C   UNL     1       0.266  10.194  18.400  0.00  0.00    +0.000 A 
ATOM     18  C   UNL     1      -0.577  10.703  19.380  0.00  0.00    +0.000 A 
ATOM     19  C   UNL     1      -0.431  10.277  20.688  0.00  0.00    +0.000 A 
ATOM     20  C   UNL     1       0.537   9.315  21.017  0.00  0.00    +0.000 A 
ATOM     21  C   UNL     1       0.694   8.938  22.469  0.00  0.00    +0.000 C 
ATOM     22  C   UNL     1       1.355   8.736  20.010  0.00  0.00    +0.000 A 
ENDBRANCH  14  22
ENDBRANCH  13  14
ENDBRANCH   1  13
TORSDOF 5
ENDMDL
MODEL 7
REMARK VINA RESULT:      -6.7      4.139      7.249
REMARK  Name = 
REMARK  7 active torsions:
REMARK  status: ('A' for Active; 'I' for Inactive)
REMARK    1  A    between atoms: C_1  and  C_2
REMARK    2  A    between atoms: C_6  and  C_7
REMARK    3  A    between atoms: C_8  and  O_9
REMARK    4  A    between atoms: O_9  and  C_10
REMARK    5  A    between atoms: C_10  and  C_11
REMARK    6  A    between atoms: N_13  and  C_14
REMARK    7  A    between atoms: C_19  and  O_20
REMARK                            x       y       z     vdW  Elec       q    Type
REMARK                         _______ _______ _______ _____ _____    ______ ____
ROOT
ATOM      1  C   UNL     1       2.169   6.980  19.919  0.00  0.00    +0.000 C 
ATOM      2  O   UNL     1       2.261   7.205  18.712  0.00  0.00    +0.000 OA
ATOM      3  N   UNL     1       2.322   5.701  20.451  0.00  0.00    +0.000 N 
ATOM      4  H   UNL     1       2.012   5.525  21.396  0.00  0.00    +0.000 HD
ENDROOT
BRANCH   3   5
ATOM      5  C   UNL     1       2.501   4.583  19.538  0.00  0.00    +0.000 C 
ATOM      6  C   UNL     1       3.971   4.244  19.301  0.00  0.00    +0.000 C 
ATOM      7  C   UNL     1       4.075   3.228  18.161  0.00  0.00    +0.000 C 
ATOM      8  C   UNL     1       3.233   1.973  18.406  0.00  0.00    +0.000 C 
ATOM      9  C   UNL     1       1.802   2.276  18.851  0.00  0.00    +0.000 C 
ATOM     10  C   UNL     1       1.756   3.301  19.987  0.00  0.00    +0.000 C 
BRANCH  10  11
ATOM     11  O   UNL     1       0.394   3.551  20.335  0.00  0.00    +0.000 OA
ATOM     12  H   UNL     1       0.387   3.883  21.257  0.00  0.00    +0.000 HD
ENDBRANCH  10  11
ENDBRANCH   3   5
BRANCH   1  13
ATOM     13  C   UNL     1       1.799   8.076  20.917  0.00  0.00    +0.000 C 
BRANCH  13  14
ATOM     14  O   UNL     1       0.408   8.306  21.000  0.00  0.00    +0.000 OA
BRANCH  14  22
ATOM     15  C   UNL     1       0.068   9.908  18.294  0.00  0.00    +0.000 C 
ATOM     16  C   UNL     1      -0.321  10.318  19.689  0.00  0.00    +0.000 A 
ATOM     17  C   UNL     1      -0.921  11.594  19.792  0.00  0.00    +0.000 A 
ATOM     18  C   UNL     1      -1.289  12.139  21.016  0.00  0.00    +0.000 A 
ATOM     19  C   UNL     1      -1.020  11.439  22.179  0.00  0.00    +0.000 A 
ATOM     20  C   UNL     1      -0.411  10.175  22.121  0.00  0.00    +0.000 A 
ATOM     21  C   UNL     1      -0.084   9.489  23.423  0.00  0.00    +0.000 C 
ATOM     22  C   UNL     1      -0.097   9.578  20.871  0.00  0.00    +0.000 A 
ENDBRANCH  14  22
ENDBRANCH  13  14
ENDBRANCH   1  13
TORSDOF 5
ENDMDL
MODEL 8
REMARK VINA RESULT:      -6.7      1.044      2.110
REMARK  Name = 
REMARK  7 active torsions:
REMARK  status: ('A' for Active; 'I' for Inactive)
REMARK    1  A    between atoms: C_1  and  C_2
REMARK    2  A    between atoms: C_6  and  C_7
REMARK    3  A    between atoms: C_8  and  O_9
REMARK    4  A    between atoms: O_9  and  C_10
REMARK    5  A    between atoms: C_10  and  C_11
REMARK    6  A    between atoms: N_13  and  C_14
REMARK    7  A    between atoms: C_19  and  O_20
REMARK                            x       y       z     vdW  Elec       q    Type
REMARK                         _______ _______ _______ _____ _____    ______ ____
ROOT
ATOM      1  C   UNL     1       6.672   4.226  16.966  0.00  0.00    +0.000 C 
ATOM      2  O   UNL     1       7.899   4.131  16.910  0.00  0.00    +0.000 OA
ATOM      3  N   UNL     1       5.869   4.165  15.829  0.00  0.00    +0.000 N 
ATOM      4  H   UNL     1       4.911   4.476  15.891  0.00  0.00    +0.000 HD
ENDROOT
BRANCH   3   5
ATOM      5  C   UNL     1       6.510   4.082  14.526  0.00  0.00    +0.000 C 
ATOM      6  C   UNL     1       5.582   3.527  13.447  0.00  0.00    +0.000 C 
ATOM      7  C   UNL     1       6.394   3.252  12.179  0.00  0.00    +0.000 C 
ATOM      8  C   UNL     1       7.166   4.480  11.690  0.00  0.00    +0.000 C 
ATOM      9  C   UNL     1       7.947   5.189  12.798  0.00  0.00    +0.000 C 
ATOM     10  C   UNL     1       7.090   5.434  14.042  0.00  0.00    +0.000 C 
BRANCH  10  11
ATOM     11  O   UNL     1       7.887   6.076  15.037  0.00  0.00    +0.000 OA
ATOM     12  H   UNL     1       8.240   6.899  14.639  0.00  0.00    +0.000 HD
ENDBRANCH  10  11
ENDBRANCH   3   5
BRANCH   1  13
ATOM     13  C   UNL     1       5.945   4.500  18.281  0.00  0.00    +0.000 C 
BRANCH  13  14
ATOM     14  O   UNL     1       4.585   4.120  18.256  0.00  0.00    +0.000 OA
BRANCH  14  22
ATOM     15  C   UNL     1       3.746   7.138  17.814  0.00  0.00    +0.000 C 
ATOM     16  C   UNL     1       3.202   6.142  18.801  0.00  0.00    +0.000 A 
ATOM     17  C   UNL     1       2.174   6.632  19.640  0.00  0.00    +0.000 A 
ATOM     18  C   UNL     1       1.604   5.853  20.639  0.00  0.00    +0.000 A 
ATOM     19  C   UNL     1       2.083   4.574  20.859  0.00  0.00    +0.000 A 
ATOM     20  C   UNL     1       3.113   4.055  20.058  0.00  0.00    +0.000 A 
ATOM     21  C   UNL     1       3.638   2.680  20.386  0.00  0.00    +0.000 C 
ATOM     22  C   UNL     1       3.652   4.817  18.988  0.00  0.00    +0.000 A 
ENDBRANCH  14  22
ENDBRANCH  13  14
ENDBRANCH   1  13
TORSDOF 5
ENDMDL
MODEL 9
REMARK VINA RESULT:      -6.7      2.888      4.042
REMARK  Name = 
REMARK  7 active torsions:
REMARK  status: ('A' for Active; 'I' for Inactive)
REMARK    1  A    between atoms: C_1  and  C_2
REMARK    2  A    between atoms: C_6  and  C_7
REMARK    3  A    between atoms: C_8  and  O_9
REMARK    4  A    between atoms: O_9  and  C_10
REMARK    5  A    between atoms: C_10  and  C_11
REMARK    6  A    between atoms: N_13  and  C_14
REMARK    7  A    between atoms: C_19  and  O_20
REMARK                            x       y       z     vdW  Elec       q    Type
REMARK                         _______ _______ _______ _____ _____    ______ ____
ROOT
ATOM      1  C   UNL     1       3.950   3.937  16.940  0.00  0.00    +0.000 C 
ATOM      2  O   UNL     1       4.809   3.054  16.911  0.00  0.00    +0.000 OA
ATOM      3  N   UNL     1       4.266   5.274  17.176  0.00  0.00    +0.000 N 
ATOM      4  H   UNL     1       3.525   5.914  17.421  0.00  0.00    +0.000 HD
ENDROOT
BRANCH   3   5
ATOM      5  C   UNL     1       5.642   5.620  17.492  0.00  0.00    +0.000 C 
ATOM      6  C   UNL     1       6.001   7.047  17.080  0.00  0.00    +0.000 C 
ATOM      7  C   UNL     1       7.510   7.248  17.226  0.00  0.00    +0.000 C 
ATOM      8  C   UNL     1       8.021   6.915  18.631  0.00  0.00    +0.000 C 
ATOM      9  C   UNL     1       7.508   5.576  19.164  0.00  0.00    +0.000 C 
ATOM     10  C   UNL     1       5.995   5.426  18.987  0.00  0.00    +0.000 C 
BRANCH  10  11
ATOM     11  O   UNL     1       5.593   4.149  19.484  0.00  0.00    +0.000 OA
ATOM     12  H   UNL     1       4.710   3.956  19.105  0.00  0.00    +0.000 HD
ENDBRANCH  10  11
ENDBRANCH   3   5
BRANCH   1  13
ATOM     13  C   UNL     1       2.463   3.618  16.802  0.00  0.00    +0.000 C 
BRANCH  13  14
ATOM     14  O   UNL     1       1.654   4.324  17.720  0.00  0.00    +0.000 OA
BRANCH  14  22
ATOM     15  C   UNL     1       2.582   6.560  19.756  0.00  0.00    +0.000 C 
ATOM     16  C   UNL     1       2.190   5.135  20.034  0.00  0.00    +0.000 A 
ATOM     17  C   UNL     1       2.246   4.753  21.394  0.00  0.00    +0.000 A 
ATOM     18  C   UNL     1       1.967   3.457  21.809  0.00  0.00    +0.000 A 
ATOM     19  C   UNL     1       1.670   2.492  20.864  0.00  0.00    +0.000 A 
ATOM     20  C   UNL     1       1.618   2.825  19.501  0.00  0.00    +0.000 A 
ATOM     21  C   UNL     1       1.354   1.718  18.512  0.00  0.00    +0.000 C 
ATOM     22  C   UNL     1       1.832   4.163  19.074  0.00  0.00    +0.000 A 
ENDBRANCH  14  22
ENDBRANCH  13  14
ENDBRANCH   1  13
TORSDOF 5
ENDMDL
