MODEL 1
REMARK VINA RESULT:      -6.7      0.000      0.000
REMARK  Name = 
REMARK  7 active torsions:
REMARK  status: ('A' for Active; 'I' for Inactive)
REMARK    1  A    between atoms: C_1  and  C_2
REMARK    2  A    between atoms: C_2  and  O_3
REMARK    3  A    between atoms: O_3  and  C_4
REMARK    4  A    between atoms: N_12  and  C_13
REMARK    5  A    between atoms: C_13  and  O_14
REMARK    6  A    between atoms: O_14  and  C_15
REMARK    7  A    between atoms: C_15  and  C_17
REMARK                            x       y       z     vdW  Elec       q    Type
REMARK                         _______ _______ _______ _____ _____    ______ ____
ROOT
ATOM      1  C   UNL     1       2.716   6.129  19.950  0.00  0.00    +0.000 A 
ATOM      2  C   UNL     1       3.602   5.561  19.020  0.00  0.00    +0.000 A 
ATOM      3  C   UNL     1       3.907   6.205  17.805  0.00  0.00    +0.000 A 
ATOM      4  C   UNL     1       3.309   7.421  17.480  0.00  0.00    +0.000 A 
ATOM      5  C   UNL     1       2.463   7.975  18.423  0.00  0.00    +0.000 A 
ATOM      6  C   UNL     1       2.211   7.388  19.661  0.00  0.00    +0.000 A 
ATOM      7  C   UNL     1       1.391   8.266  20.515  0.00  0.00    +0.000 C 
ATOM      8  O   UNL     1       1.281   8.188  21.725  0.00  0.00    +0.000 OA
ATOM      9  N   UNL     1       0.765   9.229  19.711  0.00  0.00    +0.000 N 
ATOM     10  S   UNL     1       1.540   9.447  18.241  0.00  0.00    +0.000 S 
ATOM     11  O   UNL     1       0.595   9.281  17.172  0.00  0.00    +0.000 OA
ATOM     12  O   UNL     1       2.446  10.565  18.351  0.00  0.00    +0.000 OA
ENDROOT
BRANCH   1  13
ATOM     13  O   UNL     1       2.461   5.355  21.044  0.00  0.00    +0.000 OA
BRANCH  13  15
ATOM     14  C   UNL     1       0.940   3.580  20.458  0.00  0.00    +0.000 C 
ATOM     15  C   UNL     1       2.358   3.940  20.840  0.00  0.00    +0.000 C 
ENDBRANCH  13  15
ENDBRANCH   1  13
BRANCH   9  16
ATOM     16  C   UNL     1      -0.133  10.265  20.178  0.00  0.00    +0.000 C 
BRANCH  16  17
ATOM     17  O   UNL     1      -1.226  10.335  19.252  0.00  0.00    +0.000 OA
BRANCH  17  18
ATOM     18  C   UNL     1      -1.499  11.547  18.721  0.00  0.00    +0.000 C 
ATOM     19  O   UNL     1      -0.671  12.410  18.489  0.00  0.00    +0.000 OA
BRANCH  18  20
ATOM     20  C   UNL     1      -2.960  11.691  18.456  0.00  0.00    +0.000 A 
ATOM     21  C   UNL     1      -3.852  12.208  19.418  0.00  0.00    +0.000 A 
ATOM     22 CL   UNL     1      -3.393  12.751  20.999  0.00  0.00    +0.000 Cl
ATOM     23  C   UNL     1      -5.228  12.285  19.150  0.00  0.00    +0.000 A 
ATOM     24  C   UNL     1      -5.740  11.863  17.929  0.00  0.00    +0.000 A 
ATOM     25  C   UNL     1      -4.875  11.352  16.969  0.00  0.00    +0.000 A 
ATOM     26  C   UNL     1      -3.497  11.257  17.226  0.00  0.00    +0.000 A 
ATOM     27 CL   UNL     1      -2.549  10.607  15.930  0.00  0.00    +0.000 Cl
ENDBRANCH  18  20
ENDBRANCH  17  18
ENDBRANCH  16  17
ENDBRANCH   9  16
TORSDOF 6
ENDMDL
MODEL 2
REMARK VINA RESULT:      -6.7      0.353      1.808
REMARK  Name = 
REMARK  7 active torsions:
REMARK  status: ('A' for Active; 'I' for Inactive)
REMARK    1  A    between atoms: C_1  and  C_2
REMARK    2  A    between atoms: C_2  and  O_3
REMARK    3  A    between atoms: O_3  and  C_4
REMARK    4  A    between atoms: N_12  and  C_13
REMARK    5  A    between atoms: C_13  and  O_14
REMARK    6  A    between atoms: O_14  and  C_15
REMARK    7  A    between atoms: C_15  and  C_17
REMARK                            x       y       z     vdW  Elec       q    Type
REMARK                         _______ _______ _______ _____ _____    ______ ____
ROOT
ATOM      1  C   UNL     1       2.469   6.316  19.998  0.00  0.00    +0.000 A 
ATOM      2  C   UNL     1       3.317   5.743  19.035  0.00  0.00    +0.000 A 
ATOM      3  C   UNL     1       3.608   6.402  17.824  0.00  0.00    +0.000 A 
ATOM      4  C   UNL     1       3.033   7.638  17.536  0.00  0.00    +0.000 A 
ATOM      5  C   UNL     1       2.225   8.196  18.510  0.00  0.00    +0.000 A 
ATOM      6  C   UNL     1       1.989   7.592  19.744  0.00  0.00    +0.000 A 
ATOM      7  C   UNL     1       1.214   8.475  20.633  0.00  0.00    +0.000 C 
ATOM      8  O   UNL     1       1.132   8.378  21.844  0.00  0.00    +0.000 OA
ATOM      9  N   UNL     1       0.593   9.468  19.863  0.00  0.00    +0.000 N 
ATOM     10  S   UNL     1       1.336   9.693  18.378  0.00  0.00    +0.000 S 
ATOM     11  O   UNL     1       0.360   9.571  17.331  0.00  0.00    +0.000 OA
ATOM     12  O   UNL     1       2.272  10.785  18.484  0.00  0.00    +0.000 OA
ENDROOT
BRANCH   1  13
ATOM     13  O   UNL     1       2.222   5.529  21.084  0.00  0.00    +0.000 OA
BRANCH  13  15
ATOM     14  C   UNL     1       1.153   3.388  20.802  0.00  0.00    +0.000 C 
ATOM     15  C   UNL     1       2.466   4.123  20.948  0.00  0.00    +0.000 C 
ENDBRANCH  13  15
ENDBRANCH   1  13
BRANCH   9  16
ATOM     16  C   UNL     1      -0.267  10.517  20.370  0.00  0.00    +0.000 C 
BRANCH  16  17
ATOM     17  O   UNL     1      -1.422  10.573  19.523  0.00  0.00    +0.000 OA
BRANCH  17  18
ATOM     18  C   UNL     1      -1.762  11.786  19.034  0.00  0.00    +0.000 C 
ATOM     19  O   UNL     1      -1.004  12.735  18.934  0.00  0.00    +0.000 OA
BRANCH  18  20
ATOM     20  C   UNL     1      -3.199  11.812  18.632  0.00  0.00    +0.000 A 
ATOM     21  C   UNL     1      -3.627  11.419  17.347  0.00  0.00    +0.000 A 
ATOM     22 CL   UNL     1      -2.580  10.849  16.089  0.00  0.00    +0.000 Cl
ATOM     23  C   UNL     1      -4.982  11.502  16.989  0.00  0.00    +0.000 A 
ATOM     24  C   UNL     1      -5.931  11.963  17.893  0.00  0.00    +0.000 A 
ATOM     25  C   UNL     1      -5.526  12.353  19.165  0.00  0.00    +0.000 A 
ATOM     26  C   UNL     1      -4.172  12.288  19.535  0.00  0.00    +0.000 A 
ATOM     27 CL   UNL     1      -3.826  12.801  21.153  0.00  0.00    +0.000 Cl
ENDBRANCH  18  20
ENDBRANCH  17  18
ENDBRANCH  16  17
ENDBRANCH   9  16
TORSDOF 6
ENDMDL
MODEL 3
REMARK VINA RESULT:      -6.7      5.162      7.655
REMARK  Name = 
REMARK  7 active torsions:
REMARK  status: ('A' for Active; 'I' for Inactive)
REMARK    1  A    between atoms: C_1  and  C_2
REMARK    2  A    between atoms: C_2  and  O_3
REMARK    3  A    between atoms: O_3  and  C_4
REMARK    4  A    between atoms: N_12  and  C_13
REMARK    5  A    between atoms: C_13  and  O_14
REMARK    6  A    between atoms: O_14  and  C_15
REMARK    7  A    between atoms: C_15  and  C_17
REMARK                            x       y       z     vdW  Elec       q    Type
REMARK                         _______ _______ _______ _____ _____    ______ ____
ROOT
ATOM      1  C   UNL     1       5.624   4.011  13.312  0.00  0.00    +0.000 A 
ATOM      2  C   UNL     1       6.642   4.212  12.365  0.00  0.00    +0.000 A 
ATOM      3  C   UNL     1       7.859   4.831  12.712  0.00  0.00    +0.000 A 
ATOM      4  C   UNL     1       8.073   5.290  14.011  0.00  0.00    +0.000 A 
ATOM      5  C   UNL     1       7.070   5.055  14.932  0.00  0.00    +0.000 A 
ATOM      6  C   UNL     1       5.893   4.376  14.622  0.00  0.00    +0.000 A 
ATOM      7  C   UNL     1       5.074   4.145  15.826  0.00  0.00    +0.000 C 
ATOM      8  O   UNL     1       4.183   3.323  15.938  0.00  0.00    +0.000 OA
ATOM      9  N   UNL     1       5.498   5.015  16.840  0.00  0.00    +0.000 N 
ATOM     10  S   UNL     1       7.057   5.581  16.598  0.00  0.00    +0.000 S 
ATOM     11  O   UNL     1       7.057   7.016  16.639  0.00  0.00    +0.000 OA
ATOM     12  O   UNL     1       7.975   4.752  17.340  0.00  0.00    +0.000 OA
ENDROOT
BRANCH   1  13
ATOM     13  O   UNL     1       4.476   3.469  12.812  0.00  0.00    +0.000 OA
BRANCH  13  15
ATOM     14  C   UNL     1       3.412   3.621  10.655  0.00  0.00    +0.000 C 
ATOM     15  C   UNL     1       4.512   2.975  11.467  0.00  0.00    +0.000 C 
ENDBRANCH  13  15
ENDBRANCH   1  13
BRANCH   9  16
ATOM     16  C   UNL     1       4.932   5.102  18.170  0.00  0.00    +0.000 C 
BRANCH  16  17
ATOM     17  O   UNL     1       4.045   6.229  18.187  0.00  0.00    +0.000 OA
BRANCH  17  18
ATOM     18  C   UNL     1       2.726   5.966  18.312  0.00  0.00    +0.000 C 
ATOM     19  O   UNL     1       2.137   5.065  17.741  0.00  0.00    +0.000 OA
BRANCH  18  20
ATOM     20  C   UNL     1       2.080   6.932  19.248  0.00  0.00    +0.000 A 
ATOM     21  C   UNL     1       1.858   8.281  18.903  0.00  0.00    +0.000 A 
ATOM     22 CL   UNL     1       2.276   8.990  17.377  0.00  0.00    +0.000 Cl
ATOM     23  C   UNL     1       1.290   9.172  19.827  0.00  0.00    +0.000 A 
ATOM     24  C   UNL     1       0.926   8.744  21.097  0.00  0.00    +0.000 A 
ATOM     25  C   UNL     1       1.137   7.417  21.455  0.00  0.00    +0.000 A 
ATOM     26  C   UNL     1       1.716   6.516  20.546  0.00  0.00    +0.000 A 
ATOM     27 CL   UNL     1       1.906   4.898  21.135  0.00  0.00    +0.000 Cl
ENDBRANCH  18  20
ENDBRANCH  17  18
ENDBRANCH  16  17
ENDBRANCH   9  16
TORSDOF 6
ENDMDL
MODEL 4
REMARK VINA RESULT:      -6.7      3.111      7.734
REMARK  Name = 
REMARK  7 active torsions:
REMARK  status: ('A' for Active; 'I' for Inactive)
REMARK    1  A    between atoms: C_1  and  C_2
REMARK    2  A    between atoms: C_2  and  O_3
REMARK    3  A    between atoms: O_3  and  C_4
REMARK    4  A    between atoms: N_12  and  C_13
REMARK    5  A    between atoms: C_13  and  O_14
REMARK    6  A    between atoms: O_14  and  C_15
REMARK    7  A    between atoms: C_15  and  C_17
REMARK                            x       y       z     vdW  Elec       q    Type
REMARK                         _______ _______ _______ _____ _____    ______ ____
ROOT
ATOM      1  C   UNL     1      -1.680  10.655  17.877  0.00  0.00    +0.000 A 
ATOM      2  C   UNL     1      -2.653  11.619  18.190  0.00  0.00    +0.000 A 
ATOM      3  C   UNL     1      -2.739  12.188  19.476  0.00  0.00    +0.000 A 
ATOM      4  C   UNL     1      -1.870  11.784  20.488  0.00  0.00    +0.000 A 
ATOM      5  C   UNL     1      -0.902  10.856  20.149  0.00  0.00    +0.000 A 
ATOM      6  C   UNL     1      -0.755  10.342  18.862  0.00  0.00    +0.000 A 
ATOM      7  C   UNL     1       0.443   9.489  18.758  0.00  0.00    +0.000 C 
ATOM      8  O   UNL     1       1.008   9.172  17.728  0.00  0.00    +0.000 OA
ATOM      9  N   UNL     1       0.847   9.111  20.047  0.00  0.00    +0.000 N 
ATOM     10  S   UNL     1       0.262  10.138  21.235  0.00  0.00    +0.000 S 
ATOM     11  O   UNL     1      -0.434   9.371  22.231  0.00  0.00    +0.000 OA
ATOM     12  O   UNL     1       1.269  11.127  21.536  0.00  0.00    +0.000 OA
ENDROOT
BRANCH   1  13
ATOM     13  O   UNL     1      -1.768  10.141  16.617  0.00  0.00    +0.000 OA
BRANCH  13  15
ATOM     14  C   UNL     1      -3.066  10.100  14.587  0.00  0.00    +0.000 C 
ATOM     15  C   UNL     1      -3.080   9.916  16.088  0.00  0.00    +0.000 C 
ENDBRANCH  13  15
ENDBRANCH   1  13
BRANCH   9  16
ATOM     16  C   UNL     1       1.977   8.263  20.363  0.00  0.00    +0.000 C 
BRANCH  16  17
ATOM     17  O   UNL     1       1.907   7.116  19.505  0.00  0.00    +0.000 OA
BRANCH  17  18
ATOM     18  C   UNL     1       2.208   5.921  20.059  0.00  0.00    +0.000 C 
ATOM     19  O   UNL     1       2.301   5.710  21.256  0.00  0.00    +0.000 OA
BRANCH  18  20
ATOM     20  C   UNL     1       2.416   4.886  19.005  0.00  0.00    +0.000 A 
ATOM     21  C   UNL     1       1.725   3.656  19.011  0.00  0.00    +0.000 A 
ATOM     22 CL   UNL     1       0.555   3.188  20.201  0.00  0.00    +0.000 Cl
ATOM     23  C   UNL     1       1.982   2.687  18.029  0.00  0.00    +0.000 A 
ATOM     24  C   UNL     1       2.914   2.920  17.025  0.00  0.00    +0.000 A 
ATOM     25  C   UNL     1       3.603   4.126  17.003  0.00  0.00    +0.000 A 
ATOM     26  C   UNL     1       3.367   5.102  17.986  0.00  0.00    +0.000 A 
ATOM     27 CL   UNL     1       4.296   6.555  17.819  0.00  0.00    +0.000 Cl
ENDBRANCH  18  20
ENDBRANCH  17  18
ENDBRANCH  16  17
ENDBRANCH   9  16
TORSDOF 6
ENDMDL
MODEL 5
REMARK VINA RESULT:      -6.7      4.375      8.298
REMARK  Name = 
REMARK  7 active torsions:
REMARK  status: ('A' for Active; 'I' for Inactive)
REMARK    1  A    between atoms: C_1  and  C_2
REMARK    2  A    between atoms: C_2  and  O_3
REMARK    3  A    between atoms: O_3  and  C_4
REMARK    4  A    between atoms: N_12  and  C_13
REMARK    5  A    between atoms: C_13  and  O_14
REMARK    6  A    between atoms: O_14  and  C_15
REMARK    7  A    between atoms: C_15  and  C_17
REMARK                            x       y       z     vdW  Elec       q    Type
REMARK                         _______ _______ _______ _____ _____    ______ ____
ROOT
ATOM      1  C   UNL     1       0.928   9.696  20.439  0.00  0.00    +0.000 A 
ATOM      2  C   UNL     1       0.738  10.808  19.602  0.00  0.00    +0.000 A 
ATOM      3  C   UNL     1       1.171  10.803  18.261  0.00  0.00    +0.000 A 
ATOM      4  C   UNL     1       1.831   9.694  17.735  0.00  0.00    +0.000 A 
ATOM      5  C   UNL     1       1.980   8.601  18.568  0.00  0.00    +0.000 A 
ATOM      6  C   UNL     1       1.490   8.562  19.872  0.00  0.00    +0.000 A 
ATOM      7  C   UNL     1       1.664   7.226  20.471  0.00  0.00    +0.000 C 
ATOM      8  O   UNL     1       1.067   6.793  21.438  0.00  0.00    +0.000 OA
ATOM      9  N   UNL     1       2.623   6.517  19.734  0.00  0.00    +0.000 N 
ATOM     10  S   UNL     1       2.821   7.119  18.182  0.00  0.00    +0.000 S 
ATOM     11  O   UNL     1       4.209   7.410  17.955  0.00  0.00    +0.000 OA
ATOM     12  O   UNL     1       1.998   6.356  17.276  0.00  0.00    +0.000 OA
ENDROOT
BRANCH   1  13
ATOM     13  O   UNL     1       0.526   9.876  21.730  0.00  0.00    +0.000 OA
BRANCH  13  15
ATOM     14  C   UNL     1      -1.004  10.964  23.241  0.00  0.00    +0.000 C 
ATOM     15  C   UNL     1      -0.855  10.187  21.952  0.00  0.00    +0.000 C 
ENDBRANCH  13  15
ENDBRANCH   1  13
BRANCH   9  16
ATOM     16  C   UNL     1       3.080   5.172  20.015  0.00  0.00    +0.000 C 
BRANCH  16  17
ATOM     17  O   UNL     1       4.499   5.148  19.806  0.00  0.00    +0.000 OA
BRANCH  17  18
ATOM     18  C   UNL     1       5.013   4.035  19.239  0.00  0.00    +0.000 C 
ATOM     19  O   UNL     1       5.077   2.943  19.776  0.00  0.00    +0.000 OA
BRANCH  18  20
ATOM     20  C   UNL     1       5.496   4.321  17.856  0.00  0.00    +0.000 A 
ATOM     21  C   UNL     1       6.738   4.940  17.606  0.00  0.00    +0.000 A 
ATOM     22 CL   UNL     1       7.861   5.430  18.833  0.00  0.00    +0.000 Cl
ATOM     23  C   UNL     1       7.139   5.236  16.294  0.00  0.00    +0.000 A 
ATOM     24  C   UNL     1       6.326   4.918  15.213  0.00  0.00    +0.000 A 
ATOM     25  C   UNL     1       5.098   4.307  15.441  0.00  0.00    +0.000 A 
ATOM     26  C   UNL     1       4.678   4.015  16.749  0.00  0.00    +0.000 A 
ATOM     27 CL   UNL     1       3.130   3.247  16.870  0.00  0.00    +0.000 Cl
ENDBRANCH  18  20
ENDBRANCH  17  18
ENDBRANCH  16  17
ENDBRANCH   9  16
TORSDOF 6
ENDMDL
MODEL 6
REMARK VINA RESULT:      -6.7      3.059      7.803
REMARK  Name = 
REMARK  7 active torsions:
REMARK  status: ('A' for Active; 'I' for Inactive)
REMARK    1  A    between atoms: C_1  and  C_2
REMARK    2  A    between atoms: C_2  and  O_3
REMARK    3  A    between atoms: O_3  and  C_4
REMARK    4  A    between atoms: N_12  and  C_13
REMARK    5  A    between atoms: C_13  and  O_14
REMARK    6  A    between atoms: O_14  and  C_15
REMARK    7  A    between atoms: C_15  and  C_17
REMARK                            x       y       z     vdW  Elec       q    Type
REMARK                         _______ _______ _______ _____ _____    ______ ____
ROOT
ATOM      1  C   UNL     1      -1.918  10.724  17.966  0.00  0.00    +0.000 A 
ATOM      2  C   UNL     1      -2.883  11.679  18.326  0.00  0.00    +0.000 A 
ATOM      3  C   UNL     1      -2.884  12.281  19.600  0.00  0.00    +0.000 A 
ATOM      4  C   UNL     1      -1.934  11.919  20.554  0.00  0.00    +0.000 A 
ATOM      5  C   UNL     1      -0.977  10.999  20.167  0.00  0.00    +0.000 A 
ATOM      6  C   UNL     1      -0.917  10.452  18.887  0.00  0.00    +0.000 A 
ATOM      7  C   UNL     1       0.286   9.617  18.716  0.00  0.00    +0.000 C 
ATOM      8  O   UNL     1       0.779   9.282  17.655  0.00  0.00    +0.000 OA
ATOM      9  N   UNL     1       0.791   9.281  19.979  0.00  0.00    +0.000 N 
ATOM     10  S   UNL     1       0.277  10.329  21.182  0.00  0.00    +0.000 S 
ATOM     11  O   UNL     1      -0.328   9.578  22.246  0.00  0.00    +0.000 OA
ATOM     12  O   UNL     1       1.285  11.342  21.381  0.00  0.00    +0.000 OA
ENDROOT
BRANCH   1  13
ATOM     13  O   UNL     1      -2.090  10.174  16.729  0.00  0.00    +0.000 OA
BRANCH  13  15
ATOM     14  C   UNL     1      -2.997  10.127  14.497  0.00  0.00    +0.000 C 
ATOM     15  C   UNL     1      -2.875  10.912  15.785  0.00  0.00    +0.000 C 
ENDBRANCH  13  15
ENDBRANCH   1  13
BRANCH   9  16
ATOM     16  C   UNL     1       1.958   8.461  20.232  0.00  0.00    +0.000 C 
BRANCH  16  17
ATOM     17  O   UNL     1       1.834   7.279  19.429  0.00  0.00    +0.000 OA
BRANCH  17  18
ATOM     18  C   UNL     1       2.113   6.102  20.029  0.00  0.00    +0.000 C 
ATOM     19  O   UNL     1       2.102   5.912  21.233  0.00  0.00    +0.000 OA
BRANCH  18  20
ATOM     20  C   UNL     1       2.440   5.056  19.016  0.00  0.00    +0.000 A 
ATOM     21  C   UNL     1       3.369   5.278  17.978  0.00  0.00    +0.000 A 
ATOM     22 CL   UNL     1       4.252   6.750  17.743  0.00  0.00    +0.000 Cl
ATOM     23  C   UNL     1       3.616   4.286  17.016  0.00  0.00    +0.000 A 
ATOM     24  C   UNL     1       2.961   3.063  17.069  0.00  0.00    +0.000 A 
ATOM     25  C   UNL     1       2.043   2.826  18.086  0.00  0.00    +0.000 A 
ATOM     26  C   UNL     1       1.774   3.813  19.050  0.00  0.00    +0.000 A 
ATOM     27 CL   UNL     1       0.614   3.367  20.257  0.00  0.00    +0.000 Cl
ENDBRANCH  18  20
ENDBRANCH  17  18
ENDBRANCH  16  17
ENDBRANCH   9  16
TORSDOF 6
ENDMDL
MODEL 7
REMARK VINA RESULT:      -6.6      1.348      2.818
REMARK  Name = 
REMARK  7 active torsions:
REMARK  status: ('A' for Active; 'I' for Inactive)
REMARK    1  A    between atoms: C_1  and  C_2
REMARK    2  A    between atoms: C_2  and  O_3
REMARK    3  A    between atoms: O_3  and  C_4
REMARK    4  A    between atoms: N_12  and  C_13
REMARK    5  A    between atoms: C_13  and  O_14
REMARK    6  A    between atoms: O_14  and  C_15
REMARK    7  A    between atoms: C_15  and  C_17
REMARK                            x       y       z     vdW  Elec       q    Type
REMARK                         _______ _______ _______ _____ _____    ______ ____
ROOT
ATOM      1  C   UNL     1       2.949   6.911  18.461  0.00  0.00    +0.000 A 
ATOM      2  C   UNL     1       3.172   5.607  18.934  0.00  0.00    +0.000 A 
ATOM      3  C   UNL     1       2.634   5.165  20.158  0.00  0.00    +0.000 A 
ATOM      4  C   UNL     1       1.882   6.029  20.952  0.00  0.00    +0.000 A 
ATOM      5  C   UNL     1       1.650   7.297  20.453  0.00  0.00    +0.000 A 
ATOM      6  C   UNL     1       2.112   7.724  19.209  0.00  0.00    +0.000 A 
ATOM      7  C   UNL     1       1.595   9.064  18.877  0.00  0.00    +0.000 C 
ATOM      8  O   UNL     1       1.547   9.556  17.764  0.00  0.00    +0.000 OA
ATOM      9  N   UNL     1       1.144   9.683  20.050  0.00  0.00    +0.000 N 
ATOM     10  S   UNL     1       0.801   8.587  21.270  0.00  0.00    +0.000 S 
ATOM     11  O   UNL     1       1.524   8.949  22.457  0.00  0.00    +0.000 OA
ATOM     12  O   UNL     1      -0.610   8.285  21.245  0.00  0.00    +0.000 OA
ENDROOT
BRANCH   1  13
ATOM     13  O   UNL     1       3.596   7.217  17.300  0.00  0.00    +0.000 OA
BRANCH  13  15
ATOM     14  C   UNL     1       5.973   6.929  17.025  0.00  0.00    +0.000 C 
ATOM     15  C   UNL     1       4.606   6.307  16.848  0.00  0.00    +0.000 C 
ENDBRANCH  13  15
ENDBRANCH   1  13
BRANCH   9  16
ATOM     16  C   UNL     1       0.577  11.013  20.140  0.00  0.00    +0.000 C 
BRANCH  16  17
ATOM     17  O   UNL     1      -0.788  10.929  19.710  0.00  0.00    +0.000 OA
BRANCH  17  18
ATOM     18  C   UNL     1      -1.212  11.868  18.837  0.00  0.00    +0.000 C 
ATOM     19  O   UNL     1      -0.491  12.672  18.271  0.00  0.00    +0.000 OA
BRANCH  18  20
ATOM     20  C   UNL     1      -2.691  11.795  18.656  0.00  0.00    +0.000 A 
ATOM     21  C   UNL     1      -3.591  12.375  19.574  0.00  0.00    +0.000 A 
ATOM     22 CL   UNL     1      -3.124  13.249  20.996  0.00  0.00    +0.000 Cl
ATOM     23  C   UNL     1      -4.978  12.245  19.396  0.00  0.00    +0.000 A 
ATOM     24  C   UNL     1      -5.494  11.550  18.310  0.00  0.00    +0.000 A 
ATOM     25  C   UNL     1      -4.621  10.972  17.395  0.00  0.00    +0.000 A 
ATOM     26  C   UNL     1      -3.231  11.083  17.565  0.00  0.00    +0.000 A 
ATOM     27 CL   UNL     1      -2.276  10.318  16.339  0.00  0.00    +0.000 Cl
ENDBRANCH  18  20
ENDBRANCH  17  18
ENDBRANCH  16  17
ENDBRANCH   9  16
TORSDOF 6
ENDMDL
MODEL 8
REMARK VINA RESULT:      -6.5      1.574      3.432
REMARK  Name = 
REMARK  7 active torsions:
REMARK  status: ('A' for Active; 'I' for Inactive)
REMARK    1  A    between atoms: C_1  and  C_2
REMARK    2  A    between atoms: C_2  and  O_3
REMARK    3  A    between atoms: O_3  and  C_4
REMARK    4  A    between atoms: N_12  and  C_13
REMARK    5  A    between atoms: C_13  and  O_14
REMARK    6  A    between atoms: O_14  and  C_15
REMARK    7  A    between atoms: C_15  and  C_17
REMARK                            x       y       z     vdW  Elec       q    Type
REMARK                         _______ _______ _______ _____ _____    ______ ____
ROOT
ATOM      1  C   UNL     1       3.033   6.878  18.367  0.00  0.00    +0.000 A 
ATOM      2  C   UNL     1       3.257   5.593  18.888  0.00  0.00    +0.000 A 
ATOM      3  C   UNL     1       2.711   5.193  20.124  0.00  0.00    +0.000 A 
ATOM      4  C   UNL     1       1.952   6.083  20.882  0.00  0.00    +0.000 A 
ATOM      5  C   UNL     1       1.720   7.332  20.336  0.00  0.00    +0.000 A 
ATOM      6  C   UNL     1       2.189   7.715  19.081  0.00  0.00    +0.000 A 
ATOM      7  C   UNL     1       1.671   9.041  18.697  0.00  0.00    +0.000 C 
ATOM      8  O   UNL     1       1.629   9.493  17.568  0.00  0.00    +0.000 OA
ATOM      9  N   UNL     1       1.210   9.700  19.845  0.00  0.00    +0.000 N 
ATOM     10  S   UNL     1       0.862   8.647  21.101  0.00  0.00    +0.000 S 
ATOM     11  O   UNL     1       1.577   9.053  22.279  0.00  0.00    +0.000 OA
ATOM     12  O   UNL     1      -0.547   8.341  21.078  0.00  0.00    +0.000 OA
ENDROOT
BRANCH   1  13
ATOM     13  O   UNL     1       3.687   7.145  17.200  0.00  0.00    +0.000 OA
BRANCH  13  15
ATOM     14  C   UNL     1       5.283   6.053  15.762  0.00  0.00    +0.000 C 
ATOM     15  C   UNL     1       5.052   6.722  17.098  0.00  0.00    +0.000 C 
ENDBRANCH  13  15
ENDBRANCH   1  13
BRANCH   9  16
ATOM     16  C   UNL     1       0.640  11.031  19.883  0.00  0.00    +0.000 C 
BRANCH  16  17
ATOM     17  O   UNL     1      -0.645  10.966  19.248  0.00  0.00    +0.000 OA
BRANCH  17  18
ATOM     18  C   UNL     1      -1.219  12.142  18.914  0.00  0.00    +0.000 C 
ATOM     19  O   UNL     1      -0.689  13.015  18.249  0.00  0.00    +0.000 OA
BRANCH  18  20
ATOM     20  C   UNL     1      -2.601  12.234  19.472  0.00  0.00    +0.000 A 
ATOM     21  C   UNL     1      -3.742  11.909  18.710  0.00  0.00    +0.000 A 
ATOM     22 CL   UNL     1      -3.709  11.354  17.069  0.00  0.00    +0.000 Cl
ATOM     23  C   UNL     1      -5.029  12.053  19.254  0.00  0.00    +0.000 A 
ATOM     24  C   UNL     1      -5.206  12.510  20.553  0.00  0.00    +0.000 A 
ATOM     25  C   UNL     1      -4.091  12.834  21.318  0.00  0.00    +0.000 A 
ATOM     26  C   UNL     1      -2.797  12.707  20.785  0.00  0.00    +0.000 A 
ATOM     27 CL   UNL     1      -1.512  13.142  21.862  0.00  0.00    +0.000 Cl
ENDBRANCH  18  20
ENDBRANCH  17  18
ENDBRANCH  16  17
ENDBRANCH   9  16
TORSDOF 6
ENDMDL
MODEL 9
REMARK VINA RESULT:      -6.4      3.790      7.760
REMARK  Name = 
REMARK  7 active torsions:
REMARK  status: ('A' for Active; 'I' for Inactive)
REMARK    1  A    between atoms: C_1  and  C_2
REMARK    2  A    between atoms: C_2  and  O_3
REMARK    3  A    between atoms: O_3  and  C_4
REMARK    4  A    between atoms: N_12  and  C_13
REMARK    5  A    between atoms: C_13  and  O_14
REMARK    6  A    between atoms: O_14  and  C_15
REMARK    7  A    between atoms: C_15  and  C_17
REMARK                            x       y       z     vdW  Elec       q    Type
REMARK                         _______ _______ _______ _____ _____    ______ ____
ROOT
ATOM      1  C   UNL     1      -4.887  11.157  18.261  0.00  0.00    +0.000 A 
ATOM      2  C   UNL     1      -6.277  10.993  18.134  0.00  0.00    +0.000 A 
ATOM      3  C   UNL     1      -7.172  11.532  19.079  0.00  0.00    +0.000 A 
ATOM      4  C   UNL     1      -6.694  12.224  20.191  0.00  0.00    +0.000 A 
ATOM      5  C   UNL     1      -5.326  12.398  20.280  0.00  0.00    +0.000 A 
ATOM      6  C   UNL     1      -4.433  11.937  19.314  0.00  0.00    +0.000 A 
ATOM      7  C   UNL     1      -3.058  12.390  19.594  0.00  0.00    +0.000 C 
ATOM      8  O   UNL     1      -2.142  12.431  18.795  0.00  0.00    +0.000 OA
ATOM      9  N   UNL     1      -2.974  12.787  20.936  0.00  0.00    +0.000 N 
ATOM     10  S   UNL     1      -4.468  13.164  21.594  0.00  0.00    +0.000 S 
ATOM     11  O   UNL     1      -4.668  12.402  22.795  0.00  0.00    +0.000 OA
ATOM     12  O   UNL     1      -4.675  14.589  21.499  0.00  0.00    +0.000 OA
ENDROOT
BRANCH   1  13
ATOM     13  O   UNL     1      -4.146  10.516  17.313  0.00  0.00    +0.000 OA
BRANCH  13  15
ATOM     14  C   UNL     1      -2.948  10.447  15.223  0.00  0.00    +0.000 C 
ATOM     15  C   UNL     1      -3.993  11.167  16.046  0.00  0.00    +0.000 C 
ENDBRANCH  13  15
ENDBRANCH   1  13
BRANCH   9  16
ATOM     16  C   UNL     1      -1.784  13.282  21.597  0.00  0.00    +0.000 C 
BRANCH  16  17
ATOM     17  O   UNL     1      -0.911  12.163  21.805  0.00  0.00    +0.000 OA
BRANCH  17  18
ATOM     18  C   UNL     1       0.375  12.313  21.422  0.00  0.00    +0.000 C 
ATOM     19  O   UNL     1       1.093  13.245  21.738  0.00  0.00    +0.000 OA
BRANCH  18  20
ATOM     20  C   UNL     1       0.804  11.178  20.553  0.00  0.00    +0.000 A 
ATOM     21  C   UNL     1       1.157  11.359  19.199  0.00  0.00    +0.000 A 
ATOM     22 CL   UNL     1       1.160  12.885  18.376  0.00  0.00    +0.000 Cl
ATOM     23  C   UNL     1       1.510  10.261  18.399  0.00  0.00    +0.000 A 
ATOM     24  C   UNL     1       1.529   8.975  18.924  0.00  0.00    +0.000 A 
ATOM     25  C   UNL     1       1.185   8.778  20.256  0.00  0.00    +0.000 A 
ATOM     26  C   UNL     1       0.817   9.865  21.067  0.00  0.00    +0.000 A 
ATOM     27 CL   UNL     1       0.424   9.462  22.705  0.00  0.00    +0.000 Cl
ENDBRANCH  18  20
ENDBRANCH  17  18
ENDBRANCH  16  17
ENDBRANCH   9  16
TORSDOF 6
ENDMDL
