MODEL 1
REMARK VINA RESULT:      -8.1      0.000      0.000
REMARK  Name = 
REMARK  6 active torsions:
REMARK  status: ('A' for Active; 'I' for Inactive)
REMARK    1  A    between atoms: O_1  and  C_2
REMARK    2  A    between atoms: C_2  and  C_3
REMARK    3  A    between atoms: C_3  and  C_4
REMARK    4  A    between atoms: C_3  and  C_12
REMARK    5  A    between atoms: N_17  and  C_18
REMARK    6  A    between atoms: C_18  and  C_19
REMARK                            x       y       z     vdW  Elec       q    Type
REMARK                         _______ _______ _______ _____ _____    ______ ____
ROOT
ATOM      1  C   UNL     1       2.629   4.369  18.203  0.00  0.00    +0.000 C 
ATOM      2  C   UNL     1       1.622   3.253  17.874  0.00  0.00    +0.000 C 
ATOM      3  C   UNL     1       1.334   2.347  19.058  0.00  0.00    +0.000 C 
ATOM      4  C   UNL     1       0.870   3.164  20.255  0.00  0.00    +0.000 C 
ATOM      5  C   UNL     1       1.688   4.428  20.521  0.00  0.00    +0.000 C 
ATOM      6  N   UNL     1       2.066   5.182  19.321  0.00  0.00    +0.000 NA
ENDROOT
BRANCH   1   7
ATOM      7  C   UNL     1       4.151   3.942  18.273  0.00  0.00    +0.000 C 
BRANCH   7   8
ATOM      8  C   UNL     1       4.986   4.395  17.061  0.00  0.00    +0.000 A 
ATOM      9  C   UNL     1       6.120   5.197  17.269  0.00  0.00    +0.000 A 
ATOM     10  C   UNL     1       6.989   5.499  16.218  0.00  0.00    +0.000 A 
ATOM     11  C   UNL     1       6.732   5.023  14.930  0.00  0.00    +0.000 A 
ATOM     12 CL   UNL     1       7.880   5.383  13.692  0.00  0.00    +0.000 Cl
ATOM     13  C   UNL     1       5.586   4.260  14.693  0.00  0.00    +0.000 A 
ATOM     14 CL   UNL     1       5.188   3.645  13.129  0.00  0.00    +0.000 Cl
ATOM     15  C   UNL     1       4.723   3.950  15.755  0.00  0.00    +0.000 A 
ENDBRANCH   7   8
BRANCH   7  16
ATOM     16  C   UNL     1       4.473   2.472  18.612  0.00  0.00    +0.000 C 
BRANCH  16  17
ATOM     17  O   UNL     1       5.081   2.406  19.906  0.00  0.00    +0.000 OA
ATOM     18  H   UNL     1       4.483   2.851  20.530  0.00  0.00    +0.000 HD
ENDBRANCH  16  17
ENDBRANCH   7  16
ENDBRANCH   1   7
BRANCH   6  19
ATOM     19  C   UNL     1       2.881   6.374  19.620  0.00  0.00    +0.000 C 
BRANCH  19  20
ATOM     20  C   UNL     1       2.207   7.713  19.384  0.00  0.00    +0.000 A 
ATOM     21  C   UNL     1       2.286   8.325  18.121  0.00  0.00    +0.000 A 
ATOM     22  C   UNL     1       1.617   9.525  17.866  0.00  0.00    +0.000 A 
ATOM     23  C   UNL     1       0.859  10.125  18.866  0.00  0.00    +0.000 A 
ATOM     24  C   UNL     1       0.771   9.532  20.124  0.00  0.00    +0.000 A 
ATOM     25  C   UNL     1       1.442   8.332  20.382  0.00  0.00    +0.000 A 
ENDBRANCH  19  20
ENDBRANCH   6  19
TORSDOF 6
ENDMDL
MODEL 2
REMARK VINA RESULT:      -8.1      0.863      1.564
REMARK  Name = 
REMARK  6 active torsions:
REMARK  status: ('A' for Active; 'I' for Inactive)
REMARK    1  A    between atoms: O_1  and  C_2
REMARK    2  A    between atoms: C_2  and  C_3
REMARK    3  A    between atoms: C_3  and  C_4
REMARK    4  A    between atoms: C_3  and  C_12
REMARK    5  A    between atoms: N_17  and  C_18
REMARK    6  A    between atoms: C_18  and  C_19
REMARK                            x       y       z     vdW  Elec       q    Type
REMARK                         _______ _______ _______ _____ _____    ______ ____
ROOT
ATOM      1  C   UNL     1       2.575   4.191  18.410  0.00  0.00    +0.000 C 
ATOM      2  C   UNL     1       1.535   3.112  18.054  0.00  0.00    +0.000 C 
ATOM      3  C   UNL     1       1.068   2.318  19.259  0.00  0.00    +0.000 C 
ATOM      4  C   UNL     1       0.538   3.249  20.340  0.00  0.00    +0.000 C 
ATOM      5  C   UNL     1       1.406   4.480  20.604  0.00  0.00    +0.000 C 
ATOM      6  N   UNL     1       1.954   5.117  19.402  0.00  0.00    +0.000 NA
ENDROOT
BRANCH   1   7
ATOM      7  C   UNL     1       4.050   3.682  18.673  0.00  0.00    +0.000 C 
BRANCH   7   8
ATOM      8  C   UNL     1       5.062   4.110  17.594  0.00  0.00    +0.000 A 
ATOM      9  C   UNL     1       5.096   3.420  16.372  0.00  0.00    +0.000 A 
ATOM     10  C   UNL     1       5.888   3.873  15.314  0.00  0.00    +0.000 A 
ATOM     11  C   UNL     1       6.679   5.013  15.462  0.00  0.00    +0.000 A 
ATOM     12 CL   UNL     1       7.584   5.552  14.093  0.00  0.00    +0.000 Cl
ATOM     13  C   UNL     1       6.693   5.689  16.685  0.00  0.00    +0.000 A 
ATOM     14 CL   UNL     1       7.655   7.099  16.954  0.00  0.00    +0.000 Cl
ATOM     15  C   UNL     1       5.888   5.237  17.740  0.00  0.00    +0.000 A 
ENDBRANCH   7   8
BRANCH   7  16
ATOM     16  C   UNL     1       4.248   2.192  19.018  0.00  0.00    +0.000 C 
BRANCH  16  17
ATOM     17  O   UNL     1       5.166   2.076  20.111  0.00  0.00    +0.000 OA
ATOM     18  H   UNL     1       5.047   1.191  20.496  0.00  0.00    +0.000 HD
ENDBRANCH  16  17
ENDBRANCH   7  16
ENDBRANCH   1   7
BRANCH   6  19
ATOM     19  C   UNL     1       2.810   6.279  19.703  0.00  0.00    +0.000 C 
BRANCH  19  20
ATOM     20  C   UNL     1       2.202   7.640  19.421  0.00  0.00    +0.000 A 
ATOM     21  C   UNL     1       2.342   8.220  18.148  0.00  0.00    +0.000 A 
ATOM     22  C   UNL     1       1.735   9.442  17.849  0.00  0.00    +0.000 A 
ATOM     23  C   UNL     1       0.976  10.097  18.815  0.00  0.00    +0.000 A 
ATOM     24  C   UNL     1       0.829   9.536  20.081  0.00  0.00    +0.000 A 
ATOM     25  C   UNL     1       1.439   8.314  20.384  0.00  0.00    +0.000 A 
ENDBRANCH  19  20
ENDBRANCH   6  19
TORSDOF 6
ENDMDL
MODEL 3
REMARK VINA RESULT:      -8.0      2.001      2.335
REMARK  Name = 
REMARK  6 active torsions:
REMARK  status: ('A' for Active; 'I' for Inactive)
REMARK    1  A    between atoms: O_1  and  C_2
REMARK    2  A    between atoms: C_2  and  C_3
REMARK    3  A    between atoms: C_3  and  C_4
REMARK    4  A    between atoms: C_3  and  C_12
REMARK    5  A    between atoms: N_17  and  C_18
REMARK    6  A    between atoms: C_18  and  C_19
REMARK                            x       y       z     vdW  Elec       q    Type
REMARK                         _______ _______ _______ _____ _____    ______ ____
ROOT
ATOM      1  C   UNL     1       2.311   4.087  18.349  0.00  0.00    +0.000 C 
ATOM      2  C   UNL     1       1.185   3.057  18.142  0.00  0.00    +0.000 C 
ATOM      3  C   UNL     1       0.914   2.218  19.378  0.00  0.00    +0.000 C 
ATOM      4  C   UNL     1       0.622   3.111  20.576  0.00  0.00    +0.000 C 
ATOM      5  C   UNL     1       1.568   4.303  20.729  0.00  0.00    +0.000 C 
ATOM      6  N   UNL     1       1.914   4.981  19.476  0.00  0.00    +0.000 NA
ENDROOT
BRANCH   1   7
ATOM      7  C   UNL     1       3.790   3.524  18.317  0.00  0.00    +0.000 C 
BRANCH   7   8
ATOM      8  C   UNL     1       4.857   4.584  17.989  0.00  0.00    +0.000 A 
ATOM      9  C   UNL     1       4.617   5.503  16.955  0.00  0.00    +0.000 A 
ATOM     10  C   UNL     1       5.487   6.573  16.729  0.00  0.00    +0.000 A 
ATOM     11  C   UNL     1       6.627   6.735  17.518  0.00  0.00    +0.000 A 
ATOM     12 CL   UNL     1       7.624   8.113  17.225  0.00  0.00    +0.000 Cl
ATOM     13  C   UNL     1       6.907   5.806  18.525  0.00  0.00    +0.000 A 
ATOM     14 CL   UNL     1       8.303   5.926  19.535  0.00  0.00    +0.000 Cl
ATOM     15  C   UNL     1       6.025   4.740  18.755  0.00  0.00    +0.000 A 
ENDBRANCH   7   8
BRANCH   7  16
ATOM     16  C   UNL     1       4.056   2.241  17.504  0.00  0.00    +0.000 C 
BRANCH  16  17
ATOM     17  O   UNL     1       4.179   1.129  18.398  0.00  0.00    +0.000 OA
ATOM     18  H   UNL     1       3.623   1.318  19.173  0.00  0.00    +0.000 HD
ENDBRANCH  16  17
ENDBRANCH   7  16
ENDBRANCH   1   7
BRANCH   6  19
ATOM     19  C   UNL     1       2.853   6.102  19.665  0.00  0.00    +0.000 C 
BRANCH  19  20
ATOM     20  C   UNL     1       2.287   7.488  19.420  0.00  0.00    +0.000 A 
ATOM     21  C   UNL     1       2.436   8.094  18.161  0.00  0.00    +0.000 A 
ATOM     22  C   UNL     1       1.865   9.341  17.895  0.00  0.00    +0.000 A 
ATOM     23  C   UNL     1       1.135   9.997  18.882  0.00  0.00    +0.000 A 
ATOM     24  C   UNL     1       0.979   9.411  20.136  0.00  0.00    +0.000 A 
ATOM     25  C   UNL     1       1.552   8.162  20.405  0.00  0.00    +0.000 A 
ENDBRANCH  19  20
ENDBRANCH   6  19
TORSDOF 6
ENDMDL
MODEL 4
REMARK VINA RESULT:      -7.5      3.623      5.938
REMARK  Name = 
REMARK  6 active torsions:
REMARK  status: ('A' for Active; 'I' for Inactive)
REMARK    1  A    between atoms: O_1  and  C_2
REMARK    2  A    between atoms: C_2  and  C_3
REMARK    3  A    between atoms: C_3  and  C_4
REMARK    4  A    between atoms: C_3  and  C_12
REMARK    5  A    between atoms: N_17  and  C_18
REMARK    6  A    between atoms: C_18  and  C_19
REMARK                            x       y       z     vdW  Elec       q    Type
REMARK                         _______ _______ _______ _____ _____    ______ ____
ROOT
ATOM      1  C   UNL     1       3.635   4.898  19.353  0.00  0.00    +0.000 C 
ATOM      2  C   UNL     1       3.001   4.477  20.691  0.00  0.00    +0.000 C 
ATOM      3  C   UNL     1       2.172   3.210  20.582  0.00  0.00    +0.000 C 
ATOM      4  C   UNL     1       3.001   2.078  19.992  0.00  0.00    +0.000 C 
ATOM      5  C   UNL     1       3.846   2.471  18.780  0.00  0.00    +0.000 C 
ATOM      6  N   UNL     1       4.503   3.778  18.884  0.00  0.00    +0.000 NA
ENDROOT
BRANCH   1   7
ATOM      7  C   UNL     1       2.671   5.594  18.309  0.00  0.00    +0.000 C 
BRANCH   7   8
ATOM      8  C   UNL     1       2.293   7.042  18.673  0.00  0.00    +0.000 A 
ATOM      9  C   UNL     1       2.247   8.014  17.662  0.00  0.00    +0.000 A 
ATOM     10  C   UNL     1       1.761   9.298  17.921  0.00  0.00    +0.000 A 
ATOM     11  C   UNL     1       1.329   9.644  19.203  0.00  0.00    +0.000 A 
ATOM     12 CL   UNL     1       0.681  11.227  19.438  0.00  0.00    +0.000 Cl
ATOM     13  C   UNL     1       1.407   8.703  20.234  0.00  0.00    +0.000 A 
ATOM     14 CL   UNL     1       0.906   9.054  21.850  0.00  0.00    +0.000 Cl
ATOM     15  C   UNL     1       1.885   7.412  19.965  0.00  0.00    +0.000 A 
ENDBRANCH   7   8
BRANCH   7  16
ATOM     16  C   UNL     1       1.415   4.820  17.860  0.00  0.00    +0.000 C 
BRANCH  16  17
ATOM     17  O   UNL     1       1.797   3.774  16.962  0.00  0.00    +0.000 OA
ATOM     18  H   UNL     1       2.520   3.279  17.385  0.00  0.00    +0.000 HD
ENDBRANCH  16  17
ENDBRANCH   7  16
ENDBRANCH   1   7
BRANCH   6  19
ATOM     19  C   UNL     1       5.280   4.131  17.682  0.00  0.00    +0.000 C 
BRANCH  19  20
ATOM     20  C   UNL     1       6.252   5.286  17.837  0.00  0.00    +0.000 A 
ATOM     21  C   UNL     1       6.100   6.441  17.051  0.00  0.00    +0.000 A 
ATOM     22  C   UNL     1       6.944   7.541  17.225  0.00  0.00    +0.000 A 
ATOM     23  C   UNL     1       7.946   7.502  18.190  0.00  0.00    +0.000 A 
ATOM     24  C   UNL     1       8.112   6.365  18.977  0.00  0.00    +0.000 A 
ATOM     25  C   UNL     1       7.269   5.261  18.801  0.00  0.00    +0.000 A 
ENDBRANCH  19  20
ENDBRANCH   6  19
TORSDOF 6
ENDMDL
MODEL 5
REMARK VINA RESULT:      -7.5      3.619      5.976
REMARK  Name = 
REMARK  6 active torsions:
REMARK  status: ('A' for Active; 'I' for Inactive)
REMARK    1  A    between atoms: O_1  and  C_2
REMARK    2  A    between atoms: C_2  and  C_3
REMARK    3  A    between atoms: C_3  and  C_4
REMARK    4  A    between atoms: C_3  and  C_12
REMARK    5  A    between atoms: N_17  and  C_18
REMARK    6  A    between atoms: C_18  and  C_19
REMARK                            x       y       z     vdW  Elec       q    Type
REMARK                         _______ _______ _______ _____ _____    ______ ____
ROOT
ATOM      1  C   UNL     1       3.529   4.967  19.532  0.00  0.00    +0.000 C 
ATOM      2  C   UNL     1       2.822   4.646  20.862  0.00  0.00    +0.000 C 
ATOM      3  C   UNL     1       1.943   3.412  20.784  0.00  0.00    +0.000 C 
ATOM      4  C   UNL     1       2.744   2.215  20.290  0.00  0.00    +0.000 C 
ATOM      5  C   UNL     1       3.655   2.506  19.097  0.00  0.00    +0.000 C 
ATOM      6  N   UNL     1       4.364   3.788  19.160  0.00  0.00    +0.000 NA
ENDROOT
BRANCH   1   7
ATOM      7  C   UNL     1       2.640   5.646  18.412  0.00  0.00    +0.000 C 
BRANCH   7   8
ATOM      8  C   UNL     1       2.260   7.107  18.713  0.00  0.00    +0.000 A 
ATOM      9  C   UNL     1       2.235   8.040  17.664  0.00  0.00    +0.000 A 
ATOM     10  C   UNL     1       1.748   9.334  17.866  0.00  0.00    +0.000 A 
ATOM     11  C   UNL     1       1.295   9.730  19.126  0.00  0.00    +0.000 A 
ATOM     12 CL   UNL     1       0.649  11.323  19.288  0.00  0.00    +0.000 Cl
ATOM     13  C   UNL     1       1.353   8.830  20.193  0.00  0.00    +0.000 A 
ATOM     14 CL   UNL     1       0.826   9.245  21.785  0.00  0.00    +0.000 Cl
ATOM     15  C   UNL     1       1.832   7.529  19.983  0.00  0.00    +0.000 A 
ENDBRANCH   7   8
BRANCH   7  16
ATOM     16  C   UNL     1       1.403   4.875  17.908  0.00  0.00    +0.000 C 
BRANCH  16  17
ATOM     17  O   UNL     1       1.824   3.812  17.047  0.00  0.00    +0.000 OA
ATOM     18  H   UNL     1       2.277   4.216  16.288  0.00  0.00    +0.000 HD
ENDBRANCH  16  17
ENDBRANCH   7  16
ENDBRANCH   1   7
BRANCH   6  19
ATOM     19  C   UNL     1       5.205   4.042  17.976  0.00  0.00    +0.000 C 
BRANCH  19  20
ATOM     20  C   UNL     1       6.122   5.248  18.061  0.00  0.00    +0.000 A 
ATOM     21  C   UNL     1       7.165   5.272  19.002  0.00  0.00    +0.000 A 
ATOM     22  C   UNL     1       8.059   6.344  19.052  0.00  0.00    +0.000 A 
ATOM     23  C   UNL     1       7.925   7.403  18.159  0.00  0.00    +0.000 A 
ATOM     24  C   UNL     1       6.896   7.396  17.221  0.00  0.00    +0.000 A 
ATOM     25  C   UNL     1       5.998   6.324  17.171  0.00  0.00    +0.000 A 
ENDBRANCH  19  20
ENDBRANCH   6  19
TORSDOF 6
ENDMDL
MODEL 6
REMARK VINA RESULT:      -7.4      1.623      2.039
REMARK  Name = 
REMARK  6 active torsions:
REMARK  status: ('A' for Active; 'I' for Inactive)
REMARK    1  A    between atoms: O_1  and  C_2
REMARK    2  A    between atoms: C_2  and  C_3
REMARK    3  A    between atoms: C_3  and  C_4
REMARK    4  A    between atoms: C_3  and  C_12
REMARK    5  A    between atoms: N_17  and  C_18
REMARK    6  A    between atoms: C_18  and  C_19
REMARK                            x       y       z     vdW  Elec       q    Type
REMARK                         _______ _______ _______ _____ _____    ______ ____
ROOT
ATOM      1  C   UNL     1       2.240   3.810  18.956  0.00  0.00    +0.000 C 
ATOM      2  C   UNL     1       1.180   2.697  19.045  0.00  0.00    +0.000 C 
ATOM      3  C   UNL     1       1.268   1.895  20.331  0.00  0.00    +0.000 C 
ATOM      4  C   UNL     1       1.194   2.815  21.541  0.00  0.00    +0.000 C 
ATOM      5  C   UNL     1       2.055   4.075  21.438  0.00  0.00    +0.000 C 
ATOM      6  N   UNL     1       2.047   4.722  20.122  0.00  0.00    +0.000 NA
ENDROOT
BRANCH   1   7
ATOM      7  C   UNL     1       3.710   3.350  18.593  0.00  0.00    +0.000 C 
BRANCH   7   8
ATOM      8  C   UNL     1       4.648   4.504  18.196  0.00  0.00    +0.000 A 
ATOM      9  C   UNL     1       5.749   4.806  19.012  0.00  0.00    +0.000 A 
ATOM     10  C   UNL     1       6.708   5.739  18.609  0.00  0.00    +0.000 A 
ATOM     11  C   UNL     1       6.576   6.406  17.390  0.00  0.00    +0.000 A 
ATOM     12 CL   UNL     1       7.829   7.498  16.926  0.00  0.00    +0.000 Cl
ATOM     13  C   UNL     1       5.464   6.151  16.582  0.00  0.00    +0.000 A 
ATOM     14 CL   UNL     1       5.218   6.943  15.066  0.00  0.00    +0.000 Cl
ATOM     15  C   UNL     1       4.510   5.206  16.986  0.00  0.00    +0.000 A 
ENDBRANCH   7   8
BRANCH   7  16
ATOM     16  C   UNL     1       3.875   2.176  17.607  0.00  0.00    +0.000 C 
BRANCH  16  17
ATOM     17  O   UNL     1       4.162   0.979  18.338  0.00  0.00    +0.000 OA
ATOM     18  H   UNL     1       3.394   0.794  18.905  0.00  0.00    +0.000 HD
ENDBRANCH  16  17
ENDBRANCH   7  16
ENDBRANCH   1   7
BRANCH   6  19
ATOM     19  C   UNL     1       2.914   5.912  20.057  0.00  0.00    +0.000 C 
BRANCH  19  20
ATOM     20  C   UNL     1       2.247   7.194  19.593  0.00  0.00    +0.000 A 
ATOM     21  C   UNL     1       1.535   7.986  20.510  0.00  0.00    +0.000 A 
ATOM     22  C   UNL     1       0.970   9.201  20.116  0.00  0.00    +0.000 A 
ATOM     23  C   UNL     1       1.113   9.642  18.804  0.00  0.00    +0.000 A 
ATOM     24  C   UNL     1       1.814   8.869  17.882  0.00  0.00    +0.000 A 
ATOM     25  C   UNL     1       2.379   7.650  18.274  0.00  0.00    +0.000 A 
ENDBRANCH  19  20
ENDBRANCH   6  19
TORSDOF 6
ENDMDL
MODEL 7
REMARK VINA RESULT:      -7.3      3.543      6.173
REMARK  Name = 
REMARK  6 active torsions:
REMARK  status: ('A' for Active; 'I' for Inactive)
REMARK    1  A    between atoms: O_1  and  C_2
REMARK    2  A    between atoms: C_2  and  C_3
REMARK    3  A    between atoms: C_3  and  C_4
REMARK    4  A    between atoms: C_3  and  C_12
REMARK    5  A    between atoms: N_17  and  C_18
REMARK    6  A    between atoms: C_18  and  C_19
REMARK                            x       y       z     vdW  Elec       q    Type
REMARK                         _______ _______ _______ _____ _____    ______ ____
ROOT
ATOM      1  C   UNL     1       3.415   5.079  19.852  0.00  0.00    +0.000 C 
ATOM      2  C   UNL     1       2.639   4.016  20.650  0.00  0.00    +0.000 C 
ATOM      3  C   UNL     1       2.573   2.674  19.944  0.00  0.00    +0.000 C 
ATOM      4  C   UNL     1       3.972   2.183  19.599  0.00  0.00    +0.000 C 
ATOM      5  C   UNL     1       4.893   3.247  19.002  0.00  0.00    +0.000 C 
ATOM      6  N   UNL     1       4.800   4.568  19.632  0.00  0.00    +0.000 NA
ENDROOT
BRANCH   1   7
ATOM      7  C   UNL     1       2.650   5.735  18.632  0.00  0.00    +0.000 C 
BRANCH   7   8
ATOM      8  C   UNL     1       2.214   7.192  18.876  0.00  0.00    +0.000 A 
ATOM      9  C   UNL     1       2.147   8.079  17.790  0.00  0.00    +0.000 A 
ATOM     10  C   UNL     1       1.610   9.360  17.941  0.00  0.00    +0.000 A 
ATOM     11  C   UNL     1       1.147   9.789  19.187  0.00  0.00    +0.000 A 
ATOM     12 CL   UNL     1       0.438  11.360  19.288  0.00  0.00    +0.000 Cl
ATOM     13  C   UNL     1       1.245   8.936  20.290  0.00  0.00    +0.000 A 
ATOM     14 CL   UNL     1       0.709   9.395  21.867  0.00  0.00    +0.000 Cl
ATOM     15  C   UNL     1       1.775   7.648  20.130  0.00  0.00    +0.000 A 
ENDBRANCH   7   8
BRANCH   7  16
ATOM     16  C   UNL     1       1.493   4.940  17.994  0.00  0.00    +0.000 C 
BRANCH  16  17
ATOM     17  O   UNL     1       2.023   4.009  17.045  0.00  0.00    +0.000 OA
ATOM     18  H   UNL     1       1.298   3.763  16.445  0.00  0.00    +0.000 HD
ENDBRANCH  16  17
ENDBRANCH   7  16
ENDBRANCH   1   7
BRANCH   6  19
ATOM     19  C   UNL     1       5.679   5.571  19.005  0.00  0.00    +0.000 C 
BRANCH  19  20
ATOM     20  C   UNL     1       5.931   5.395  17.519  0.00  0.00    +0.000 A 
ATOM     21  C   UNL     1       7.014   4.615  17.079  0.00  0.00    +0.000 A 
ATOM     22  C   UNL     1       7.223   4.388  15.717  0.00  0.00    +0.000 A 
ATOM     23  C   UNL     1       6.352   4.933  14.778  0.00  0.00    +0.000 A 
ATOM     24  C   UNL     1       5.275   5.710  15.198  0.00  0.00    +0.000 A 
ATOM     25  C   UNL     1       5.065   5.941  16.562  0.00  0.00    +0.000 A 
ENDBRANCH  19  20
ENDBRANCH   6  19
TORSDOF 6
ENDMDL
MODEL 8
REMARK VINA RESULT:      -7.1      3.675      7.241
REMARK  Name = 
REMARK  6 active torsions:
REMARK  status: ('A' for Active; 'I' for Inactive)
REMARK    1  A    between atoms: O_1  and  C_2
REMARK    2  A    between atoms: C_2  and  C_3
REMARK    3  A    between atoms: C_3  and  C_4
REMARK    4  A    between atoms: C_3  and  C_12
REMARK    5  A    between atoms: N_17  and  C_18
REMARK    6  A    between atoms: C_18  and  C_19
REMARK                            x       y       z     vdW  Elec       q    Type
REMARK                         _______ _______ _______ _____ _____    ______ ____
ROOT
ATOM      1  C   UNL     1       5.404   6.240  17.172  0.00  0.00    +0.000 C 
ATOM      2  C   UNL     1       6.455   6.948  18.045  0.00  0.00    +0.000 C 
ATOM      3  C   UNL     1       7.211   5.996  18.953  0.00  0.00    +0.000 C 
ATOM      4  C   UNL     1       7.843   4.873  18.142  0.00  0.00    +0.000 C 
ATOM      5  C   UNL     1       6.928   4.257  17.084  0.00  0.00    +0.000 C 
ATOM      6  N   UNL     1       6.108   5.220  16.341  0.00  0.00    +0.000 NA
ENDROOT
BRANCH   1   7
ATOM      7  C   UNL     1       4.057   5.826  17.894  0.00  0.00    +0.000 C 
BRANCH   7   8
ATOM      8  C   UNL     1       3.200   7.020  18.353  0.00  0.00    +0.000 A 
ATOM      9  C   UNL     1       2.941   8.066  17.452  0.00  0.00    +0.000 A 
ATOM     10  C   UNL     1       2.044   9.087  17.776  0.00  0.00    +0.000 A 
ATOM     11  C   UNL     1       1.401   9.096  19.016  0.00  0.00    +0.000 A 
ATOM     12 CL   UNL     1       0.258  10.352  19.325  0.00  0.00    +0.000 Cl
ATOM     13  C   UNL     1       1.678   8.087  19.943  0.00  0.00    +0.000 A 
ATOM     14 CL   UNL     1       0.937   8.032  21.502  0.00  0.00    +0.000 Cl
ATOM     15  C   UNL     1       2.571   7.058  19.608  0.00  0.00    +0.000 A 
ENDBRANCH   7   8
BRANCH   7  16
ATOM     16  C   UNL     1       4.135   4.773  19.017  0.00  0.00    +0.000 C 
BRANCH  16  17
ATOM     17  O   UNL     1       4.017   3.464  18.450  0.00  0.00    +0.000 OA
ATOM     18  H   UNL     1       3.992   2.830  19.187  0.00  0.00    +0.000 HD
ENDBRANCH  16  17
ENDBRANCH   7  16
ENDBRANCH   1   7
BRANCH   6  19
ATOM     19  C   UNL     1       5.218   4.581  15.355  0.00  0.00    +0.000 C 
BRANCH  19  20
ATOM     20  C   UNL     1       5.847   4.242  14.016  0.00  0.00    +0.000 A 
ATOM     21  C   UNL     1       5.206   3.342  13.148  0.00  0.00    +0.000 A 
ATOM     22  C   UNL     1       5.736   3.068  11.885  0.00  0.00    +0.000 A 
ATOM     23  C   UNL     1       6.909   3.692  11.472  0.00  0.00    +0.000 A 
ATOM     24  C   UNL     1       7.558   4.585  12.321  0.00  0.00    +0.000 A 
ATOM     25  C   UNL     1       7.030   4.859  13.588  0.00  0.00    +0.000 A 
ENDBRANCH  19  20
ENDBRANCH   6  19
TORSDOF 6
ENDMDL
MODEL 9
REMARK VINA RESULT:      -7.1      3.385      7.104
REMARK  Name = 
REMARK  6 active torsions:
REMARK  status: ('A' for Active; 'I' for Inactive)
REMARK    1  A    between atoms: O_1  and  C_2
REMARK    2  A    between atoms: C_2  and  C_3
REMARK    3  A    between atoms: C_3  and  C_4
REMARK    4  A    between atoms: C_3  and  C_12
REMARK    5  A    between atoms: N_17  and  C_18
REMARK    6  A    between atoms: C_18  and  C_19
REMARK                            x       y       z     vdW  Elec       q    Type
REMARK                         _______ _______ _______ _____ _____    ______ ____
ROOT
ATOM      1  C   UNL     1       5.276   5.905  17.322  0.00  0.00    +0.000 C 
ATOM      2  C   UNL     1       6.211   6.755  18.200  0.00  0.00    +0.000 C 
ATOM      3  C   UNL     1       7.140   5.919  19.061  0.00  0.00    +0.000 C 
ATOM      4  C   UNL     1       7.935   4.946  18.201  0.00  0.00    +0.000 C 
ATOM      5  C   UNL     1       7.113   4.215  17.139  0.00  0.00    +0.000 C 
ATOM      6  N   UNL     1       6.124   5.046  16.444  0.00  0.00    +0.000 NA
ENDROOT
BRANCH   1   7
ATOM      7  C   UNL     1       4.037   5.245  18.053  0.00  0.00    +0.000 C 
BRANCH   7   8
ATOM      8  C   UNL     1       3.066   6.261  18.682  0.00  0.00    +0.000 A 
ATOM      9  C   UNL     1       2.533   6.005  19.956  0.00  0.00    +0.000 A 
ATOM     10  C   UNL     1       1.774   6.969  20.624  0.00  0.00    +0.000 A 
ATOM     11  C   UNL     1       1.515   8.204  20.026  0.00  0.00    +0.000 A 
ATOM     12 CL   UNL     1       0.626   9.371  20.934  0.00  0.00    +0.000 Cl
ATOM     13  C   UNL     1       2.001   8.462  18.741  0.00  0.00    +0.000 A 
ATOM     14 CL   UNL     1       1.713   9.957  17.925  0.00  0.00    +0.000 Cl
ATOM     15  C   UNL     1       2.770   7.495  18.078  0.00  0.00    +0.000 A 
ENDBRANCH   7   8
BRANCH   7  16
ATOM     16  C   UNL     1       4.312   4.098  19.046  0.00  0.00    +0.000 C 
BRANCH  16  17
ATOM     17  O   UNL     1       4.426   2.865  18.328  0.00  0.00    +0.000 OA
ATOM     18  H   UNL     1       3.540   2.464  18.299  0.00  0.00    +0.000 HD
ENDBRANCH  16  17
ENDBRANCH   7  16
ENDBRANCH   1   7
BRANCH   6  19
ATOM     19  C   UNL     1       5.332   4.295  15.453  0.00  0.00    +0.000 C 
BRANCH  19  20
ATOM     20  C   UNL     1       5.925   4.212  14.058  0.00  0.00    +0.000 A 
ATOM     21  C   UNL     1       7.080   4.946  13.742  0.00  0.00    +0.000 A 
ATOM     22  C   UNL     1       7.678   4.832  12.484  0.00  0.00    +0.000 A 
ATOM     23  C   UNL     1       7.131   3.980  11.529  0.00  0.00    +0.000 A 
ATOM     24  C   UNL     1       5.985   3.246  11.826  0.00  0.00    +0.000 A 
ATOM     25  C   UNL     1       5.384   3.361  13.085  0.00  0.00    +0.000 A 
ENDBRANCH  19  20
ENDBRANCH   6  19
TORSDOF 6
ENDMDL
