MODEL 1
REMARK VINA RESULT:      -9.1      0.000      0.000
REMARK  Name = 
REMARK  5 active torsions:
REMARK  status: ('A' for Active; 'I' for Inactive)
REMARK    1  A    between atoms: C_4  and  C_5
REMARK    2  A    between atoms: C_5  and  N_6
REMARK    3  A    between atoms: N_11  and  C_12
REMARK    4  A    between atoms: C_18  and  C_19
REMARK    5  A    between atoms: C_22  and  C_23
REMARK                            x       y       z     vdW  Elec       q    Type
REMARK                         _______ _______ _______ _____ _____    ______ ____
ROOT
ATOM      1  C   UNL     1       3.637   4.956  18.434  0.00  0.00    +0.000 A 
ATOM      2  N   UNL     1       3.641   3.622  18.734  0.00  0.00    +0.000 NA
ATOM      3  C   UNL     1       2.953   3.163  19.799  0.00  0.00    +0.000 A 
ATOM      4  N   UNL     1       2.208   3.863  20.663  0.00  0.00    +0.000 NA
ATOM      5  C   UNL     1       2.190   5.156  20.320  0.00  0.00    +0.000 A 
ATOM      6  O   UNL     1       1.496   6.111  21.001  0.00  0.00    +0.000 OA
ATOM      7  C   UNL     1       1.735   7.266  20.304  0.00  0.00    +0.000 A 
ATOM      8  N   UNL     1       2.528   7.124  19.257  0.00  0.00    +0.000 NA
ATOM      9  C   UNL     1       2.833   5.775  19.261  0.00  0.00    +0.000 A 
ENDROOT
BRANCH   1  15
ATOM     10  N   UNL     1       7.119   7.457  17.977  0.00  0.00    +0.000 NA
ATOM     11  C   UNL     1       7.479   6.376  18.902  0.00  0.00    +0.000 C 
ATOM     12  C   UNL     1       7.496   5.079  18.109  0.00  0.00    +0.000 C 
ATOM     13  C   UNL     1       6.690   5.349  16.845  0.00  0.00    +0.000 C 
ATOM     14  C   UNL     1       5.387   4.558  16.749  0.00  0.00    +0.000 C 
ATOM     15  N   UNL     1       4.376   5.412  17.353  0.00  0.00    +0.000 N 
ATOM     16  C   UNL     1       4.783   6.818  17.307  0.00  0.00    +0.000 C 
ATOM     17  C   UNL     1       6.288   6.824  16.924  0.00  0.00    +0.000 C 
BRANCH  10  18
ATOM     18  C   UNL     1       8.275   8.188  17.444  0.00  0.00    +0.000 C 
BRANCH  18  22
ATOM     19  C   UNL     1       9.260  11.981  19.327  0.00  0.00    +0.000 A 
ATOM     20  C   UNL     1       9.488  10.787  19.996  0.00  0.00    +0.000 A 
ATOM     21  C   UNL     1       9.141   9.567  19.404  0.00  0.00    +0.000 A 
ATOM     22  C   UNL     1       8.552   9.524  18.127  0.00  0.00    +0.000 A 
ATOM     23  C   UNL     1       8.312  10.740  17.470  0.00  0.00    +0.000 A 
ATOM     24  C   UNL     1       8.671  11.960  18.062  0.00  0.00    +0.000 A 
ENDBRANCH  18  22
ENDBRANCH  10  18
ENDBRANCH   1  15
BRANCH   7  25
ATOM     25  C   UNL     1       1.064   8.466  20.791  0.00  0.00    +0.000 A 
ATOM     26  C   UNL     1       0.712   9.519  19.937  0.00  0.00    +0.000 A 
ATOM     27  C   UNL     1       0.104  10.678  20.437  0.00  0.00    +0.000 A 
ATOM     28  C   UNL     1      -0.169  10.819  21.806  0.00  0.00    +0.000 A 
ATOM     29  C   UNL     1       0.162   9.752  22.653  0.00  0.00    +0.000 A 
ATOM     30  C   UNL     1       0.770   8.593  22.154  0.00  0.00    +0.000 A 
BRANCH  28  31
ATOM     31  C   UNL     1      -0.794  12.055  22.314  0.00  0.00    +0.000 A 
ATOM     32  C   UNL     1      -1.938  12.197  23.082  0.00  0.00    +0.000 A 
ATOM     33  C   UNL     1      -2.245  13.559  23.377  0.00  0.00    +0.000 A 
ATOM     34  C   UNL     1      -1.331  14.422  22.819  0.00  0.00    +0.000 A 
ATOM     35  S   UNL     1      -0.127  13.596  21.937  0.00  0.00    +0.000 S 
ENDBRANCH  28  31
ENDBRANCH   7  25
TORSDOF 5
ENDMDL
MODEL 2
REMARK VINA RESULT:      -9.1      0.628      1.101
REMARK  Name = 
REMARK  5 active torsions:
REMARK  status: ('A' for Active; 'I' for Inactive)
REMARK    1  A    between atoms: C_4  and  C_5
REMARK    2  A    between atoms: C_5  and  N_6
REMARK    3  A    between atoms: N_11  and  C_12
REMARK    4  A    between atoms: C_18  and  C_19
REMARK    5  A    between atoms: C_22  and  C_23
REMARK                            x       y       z     vdW  Elec       q    Type
REMARK                         _______ _______ _______ _____ _____    ______ ____
ROOT
ATOM      1  C   UNL     1       3.414   5.138  18.395  0.00  0.00    +0.000 A 
ATOM      2  N   UNL     1       3.392   3.794  18.642  0.00  0.00    +0.000 NA
ATOM      3  C   UNL     1       2.724   3.310  19.708  0.00  0.00    +0.000 A 
ATOM      4  N   UNL     1       2.023   3.993  20.621  0.00  0.00    +0.000 NA
ATOM      5  C   UNL     1       2.029   5.298  20.331  0.00  0.00    +0.000 A 
ATOM      6  O   UNL     1       1.381   6.242  21.070  0.00  0.00    +0.000 OA
ATOM      7  C   UNL     1       1.630   7.418  20.413  0.00  0.00    +0.000 A 
ATOM      8  N   UNL     1       2.387   7.298  19.336  0.00  0.00    +0.000 NA
ATOM      9  C   UNL     1       2.657   5.943  19.278  0.00  0.00    +0.000 A 
ENDROOT
BRANCH   1  15
ATOM     10  N   UNL     1       7.008   7.474  17.931  0.00  0.00    +0.000 NA
ATOM     11  C   UNL     1       7.345   6.321  18.775  0.00  0.00    +0.000 C 
ATOM     12  C   UNL     1       7.258   5.076  17.908  0.00  0.00    +0.000 C 
ATOM     13  C   UNL     1       6.417   5.464  16.698  0.00  0.00    +0.000 C 
ATOM     14  C   UNL     1       5.069   4.751  16.614  0.00  0.00    +0.000 C 
ATOM     15  N   UNL     1       4.133   5.619  17.311  0.00  0.00    +0.000 N 
ATOM     16  C   UNL     1       4.615   7.002  17.329  0.00  0.00    +0.000 C 
ATOM     17  C   UNL     1       6.101   6.951  16.881  0.00  0.00    +0.000 C 
BRANCH  10  18
ATOM     18  C   UNL     1       8.180   8.173  17.391  0.00  0.00    +0.000 C 
BRANCH  18  22
ATOM     19  C   UNL     1       9.329  11.894  19.326  0.00  0.00    +0.000 A 
ATOM     20  C   UNL     1       9.481  10.684  19.988  0.00  0.00    +0.000 A 
ATOM     21  C   UNL     1       9.082   9.489  19.379  0.00  0.00    +0.000 A 
ATOM     22  C   UNL     1       8.515   9.488  18.091  0.00  0.00    +0.000 A 
ATOM     23  C   UNL     1       8.350  10.720  17.441  0.00  0.00    +0.000 A 
ATOM     24  C   UNL     1       8.762  11.914  18.050  0.00  0.00    +0.000 A 
ENDBRANCH  18  22
ENDBRANCH  10  18
ENDBRANCH   1  15
BRANCH   7  25
ATOM     25  C   UNL     1       1.004   8.614  20.967  0.00  0.00    +0.000 A 
ATOM     26  C   UNL     1       0.535   8.663  22.286  0.00  0.00    +0.000 A 
ATOM     27  C   UNL     1      -0.098   9.811  22.781  0.00  0.00    +0.000 A 
ATOM     28  C   UNL     1      -0.281  10.943  21.973  0.00  0.00    +0.000 A 
ATOM     29  C   UNL     1       0.213  10.897  20.660  0.00  0.00    +0.000 A 
ATOM     30  C   UNL     1       0.845   9.750  20.165  0.00  0.00    +0.000 A 
BRANCH  28  31
ATOM     31  C   UNL     1      -0.966  12.134  22.508  0.00  0.00    +0.000 A 
ATOM     32  C   UNL     1      -0.524  13.446  22.545  0.00  0.00    +0.000 A 
ATOM     33  C   UNL     1      -1.461  14.334  23.153  0.00  0.00    +0.000 A 
ATOM     34  C   UNL     1      -2.592  13.673  23.573  0.00  0.00    +0.000 A 
ATOM     35  S   UNL     1      -2.513  12.000  23.250  0.00  0.00    +0.000 S 
ENDBRANCH  28  31
ENDBRANCH   7  25
TORSDOF 5
ENDMDL
MODEL 3
REMARK VINA RESULT:      -9.0      2.694      7.859
REMARK  Name = 
REMARK  5 active torsions:
REMARK  status: ('A' for Active; 'I' for Inactive)
REMARK    1  A    between atoms: C_4  and  C_5
REMARK    2  A    between atoms: C_5  and  N_6
REMARK    3  A    between atoms: N_11  and  C_12
REMARK    4  A    between atoms: C_18  and  C_19
REMARK    5  A    between atoms: C_22  and  C_23
REMARK                            x       y       z     vdW  Elec       q    Type
REMARK                         _______ _______ _______ _____ _____    ______ ____
ROOT
ATOM      1  C   UNL     1       5.830   4.604  17.450  0.00  0.00    +0.000 A 
ATOM      2  N   UNL     1       5.951   3.767  16.375  0.00  0.00    +0.000 NA
ATOM      3  C   UNL     1       6.698   4.129  15.313  0.00  0.00    +0.000 A 
ATOM      4  N   UNL     1       7.394   5.260  15.142  0.00  0.00    +0.000 NA
ATOM      5  C   UNL     1       7.288   6.039  16.224  0.00  0.00    +0.000 A 
ATOM      6  O   UNL     1       7.907   7.247  16.351  0.00  0.00    +0.000 OA
ATOM      7  C   UNL     1       7.551   7.680  17.601  0.00  0.00    +0.000 A 
ATOM      8  N   UNL     1       6.755   6.860  18.263  0.00  0.00    +0.000 NA
ATOM      9  C   UNL     1       6.572   5.807  17.386  0.00  0.00    +0.000 A 
ENDROOT
BRANCH   1  15
ATOM     10  N   UNL     1       2.650   6.481  19.675  0.00  0.00    +0.000 NA
ATOM     11  C   UNL     1       2.270   6.520  18.258  0.00  0.00    +0.000 C 
ATOM     12  C   UNL     1       2.002   5.092  17.814  0.00  0.00    +0.000 C 
ATOM     13  C   UNL     1       2.684   4.198  18.844  0.00  0.00    +0.000 C 
ATOM     14  C   UNL     1       3.861   3.393  18.296  0.00  0.00    +0.000 C 
ATOM     15  N   UNL     1       5.031   4.227  18.519  0.00  0.00    +0.000 N 
ATOM     16  C   UNL     1       4.797   5.178  19.607  0.00  0.00    +0.000 C 
ATOM     17  C   UNL     1       3.269   5.151  19.888  0.00  0.00    +0.000 C 
BRANCH  10  18
ATOM     18  C   UNL     1       1.538   6.758  20.593  0.00  0.00    +0.000 C 
BRANCH  18  22
ATOM     19  C   UNL     1       0.455  10.938  21.106  0.00  0.00    +0.000 A 
ATOM     20  C   UNL     1       0.721  10.434  19.841  0.00  0.00    +0.000 A 
ATOM     21  C   UNL     1       1.101   9.096  19.678  0.00  0.00    +0.000 A 
ATOM     22  C   UNL     1       1.227   8.240  20.787  0.00  0.00    +0.000 A 
ATOM     23  C   UNL     1       0.973   8.768  22.062  0.00  0.00    +0.000 A 
ATOM     24  C   UNL     1       0.582  10.106  22.220  0.00  0.00    +0.000 A 
ENDBRANCH  18  22
ENDBRANCH  10  18
ENDBRANCH   1  15
BRANCH   7  25
ATOM     25  C   UNL     1       8.121   8.953  18.031  0.00  0.00    +0.000 A 
ATOM     26  C   UNL     1       7.875  10.148  17.343  0.00  0.00    +0.000 A 
ATOM     27  C   UNL     1       8.468  11.349  17.753  0.00  0.00    +0.000 A 
ATOM     28  C   UNL     1       9.324  11.391  18.863  0.00  0.00    +0.000 A 
ATOM     29  C   UNL     1       9.548  10.197  19.564  0.00  0.00    +0.000 A 
ATOM     30  C   UNL     1       8.956   8.996  19.154  0.00  0.00    +0.000 A 
BRANCH  28  31
ATOM     31  C   UNL     1       9.951  12.663  19.268  0.00  0.00    +0.000 A 
ATOM     32  C   UNL     1      11.105  12.865  20.008  0.00  0.00    +0.000 A 
ATOM     33  C   UNL     1      11.401  14.246  20.213  0.00  0.00    +0.000 A 
ATOM     34  C   UNL     1      10.459  15.062  19.631  0.00  0.00    +0.000 A 
ATOM     35  S   UNL     1       9.227  14.170  18.861  0.00  0.00    +0.000 S 
ENDBRANCH  28  31
ENDBRANCH   7  25
TORSDOF 5
ENDMDL
MODEL 4
REMARK VINA RESULT:      -8.9      2.804      5.259
REMARK  Name = 
REMARK  5 active torsions:
REMARK  status: ('A' for Active; 'I' for Inactive)
REMARK    1  A    between atoms: C_4  and  C_5
REMARK    2  A    between atoms: C_5  and  N_6
REMARK    3  A    between atoms: N_11  and  C_12
REMARK    4  A    between atoms: C_18  and  C_19
REMARK    5  A    between atoms: C_22  and  C_23
REMARK                            x       y       z     vdW  Elec       q    Type
REMARK                         _______ _______ _______ _____ _____    ______ ____
ROOT
ATOM      1  C   UNL     1       5.090   4.295  19.110  0.00  0.00    +0.000 A 
ATOM      2  N   UNL     1       4.994   2.976  19.454  0.00  0.00    +0.000 NA
ATOM      3  C   UNL     1       3.943   2.538  20.177  0.00  0.00    +0.000 A 
ATOM      4  N   UNL     1       2.904   3.246  20.634  0.00  0.00    +0.000 NA
ATOM      5  C   UNL     1       3.006   4.523  20.248  0.00  0.00    +0.000 A 
ATOM      6  O   UNL     1       2.083   5.481  20.545  0.00  0.00    +0.000 OA
ATOM      7  C   UNL     1       2.565   6.614  19.944  0.00  0.00    +0.000 A 
ATOM      8  N   UNL     1       3.712   6.456  19.309  0.00  0.00    +0.000 NA
ATOM      9  C   UNL     1       4.011   5.120  19.504  0.00  0.00    +0.000 A 
ENDROOT
BRANCH   1  15
ATOM     10  N   UNL     1       6.111   4.486  14.925  0.00  0.00    +0.000 NA
ATOM     11  C   UNL     1       4.833   5.185  15.092  0.00  0.00    +0.000 C 
ATOM     12  C   UNL     1       5.101   6.451  15.889  0.00  0.00    +0.000 C 
ATOM     13  C   UNL     1       6.444   6.236  16.578  0.00  0.00    +0.000 C 
ATOM     14  C   UNL     1       6.361   6.147  18.101  0.00  0.00    +0.000 C 
ATOM     15  N   UNL     1       6.194   4.732  18.393  0.00  0.00    +0.000 N 
ATOM     16  C   UNL     1       6.707   3.907  17.297  0.00  0.00    +0.000 C 
ATOM     17  C   UNL     1       6.935   4.868  16.098  0.00  0.00    +0.000 C 
BRANCH  10  18
ATOM     18  C   UNL     1       6.770   4.756  13.641  0.00  0.00    +0.000 C 
BRANCH  18  22
ATOM     19  C   UNL     1       6.195   1.548  10.761  0.00  0.00    +0.000 A 
ATOM     20  C   UNL     1       7.472   2.005  11.055  0.00  0.00    +0.000 A 
ATOM     21  C   UNL     1       7.656   3.060  11.957  0.00  0.00    +0.000 A 
ATOM     22  C   UNL     1       6.557   3.680  12.579  0.00  0.00    +0.000 A 
ATOM     23  C   UNL     1       5.271   3.219  12.259  0.00  0.00    +0.000 A 
ATOM     24  C   UNL     1       5.091   2.155  11.363  0.00  0.00    +0.000 A 
ENDBRANCH  18  22
ENDBRANCH  10  18
ENDBRANCH   1  15
BRANCH   7  25
ATOM     25  C   UNL     1       1.737   7.809  20.061  0.00  0.00    +0.000 A 
ATOM     26  C   UNL     1       1.039   8.118  21.235  0.00  0.00    +0.000 A 
ATOM     27  C   UNL     1       0.218   9.252  21.307  0.00  0.00    +0.000 A 
ATOM     28  C   UNL     1       0.070  10.109  20.206  0.00  0.00    +0.000 A 
ATOM     29  C   UNL     1       0.791   9.810  19.041  0.00  0.00    +0.000 A 
ATOM     30  C   UNL     1       1.611   8.676  18.969  0.00  0.00    +0.000 A 
BRANCH  28  31
ATOM     31  C   UNL     1      -0.812  11.287  20.297  0.00  0.00    +0.000 A 
ATOM     32  C   UNL     1      -1.826  11.681  19.440  0.00  0.00    +0.000 A 
ATOM     33  C   UNL     1      -2.463  12.892  19.847  0.00  0.00    +0.000 A 
ATOM     34  C   UNL     1      -1.911  13.395  21.002  0.00  0.00    +0.000 A 
ATOM     35  S   UNL     1      -0.631  12.426  21.575  0.00  0.00    +0.000 S 
ENDBRANCH  28  31
ENDBRANCH   7  25
TORSDOF 5
ENDMDL
MODEL 5
REMARK VINA RESULT:      -8.9      0.308      1.190
REMARK  Name = 
REMARK  5 active torsions:
REMARK  status: ('A' for Active; 'I' for Inactive)
REMARK    1  A    between atoms: C_4  and  C_5
REMARK    2  A    between atoms: C_5  and  N_6
REMARK    3  A    between atoms: N_11  and  C_12
REMARK    4  A    between atoms: C_18  and  C_19
REMARK    5  A    between atoms: C_22  and  C_23
REMARK                            x       y       z     vdW  Elec       q    Type
REMARK                         _______ _______ _______ _____ _____    ______ ____
ROOT
ATOM      1  C   UNL     1       3.552   5.167  18.462  0.00  0.00    +0.000 A 
ATOM      2  N   UNL     1       3.613   3.829  18.735  0.00  0.00    +0.000 NA
ATOM      3  C   UNL     1       2.985   3.327  19.818  0.00  0.00    +0.000 A 
ATOM      4  N   UNL     1       2.254   3.985  20.725  0.00  0.00    +0.000 NA
ATOM      5  C   UNL     1       2.179   5.283  20.410  0.00  0.00    +0.000 A 
ATOM      6  O   UNL     1       1.483   6.201  21.138  0.00  0.00    +0.000 OA
ATOM      7  C   UNL     1       1.654   7.376  20.455  0.00  0.00    +0.000 A 
ATOM      8  N   UNL     1       2.406   7.280  19.373  0.00  0.00    +0.000 NA
ATOM      9  C   UNL     1       2.757   5.943  19.338  0.00  0.00    +0.000 A 
ENDROOT
BRANCH   1  15
ATOM     10  N   UNL     1       7.100   7.553  17.910  0.00  0.00    +0.000 NA
ATOM     11  C   UNL     1       7.477   6.396  18.730  0.00  0.00    +0.000 C 
ATOM     12  C   UNL     1       7.379   5.159  17.854  0.00  0.00    +0.000 C 
ATOM     13  C   UNL     1       6.495   5.549  16.675  0.00  0.00    +0.000 C 
ATOM     14  C   UNL     1       5.154   4.820  16.626  0.00  0.00    +0.000 C 
ATOM     15  N   UNL     1       4.230   5.668  17.361  0.00  0.00    +0.000 N 
ATOM     16  C   UNL     1       4.695   7.057  17.379  0.00  0.00    +0.000 C 
ATOM     17  C   UNL     1       6.167   7.029  16.883  0.00  0.00    +0.000 C 
BRANCH  10  18
ATOM     18  C   UNL     1       8.246   8.273  17.341  0.00  0.00    +0.000 C 
BRANCH  18  22
ATOM     19  C   UNL     1       9.127  11.936  19.512  0.00  0.00    +0.000 A 
ATOM     20  C   UNL     1       8.625  11.992  18.220  0.00  0.00    +0.000 A 
ATOM     21  C   UNL     1       8.371  10.813  17.508  0.00  0.00    +0.000 A 
ATOM     22  C   UNL     1       8.624   9.553  18.081  0.00  0.00    +0.000 A 
ATOM     23  C   UNL     1       9.148   9.512  19.382  0.00  0.00    +0.000 A 
ATOM     24  C   UNL     1       9.390  10.695  20.096  0.00  0.00    +0.000 A 
ENDBRANCH  18  22
ENDBRANCH  10  18
ENDBRANCH   1  15
BRANCH   7  25
ATOM     25  C   UNL     1       0.964   8.543  20.993  0.00  0.00    +0.000 A 
ATOM     26  C   UNL     1       0.644   8.656  22.352  0.00  0.00    +0.000 A 
ATOM     27  C   UNL     1      -0.055   9.770  22.836  0.00  0.00    +0.000 A 
ATOM     28  C   UNL     1      -0.456  10.803  21.976  0.00  0.00    +0.000 A 
ATOM     29  C   UNL     1      -0.111  10.697  20.620  0.00  0.00    +0.000 A 
ATOM     30  C   UNL     1       0.587   9.584  20.136  0.00  0.00    +0.000 A 
BRANCH  28  31
ATOM     31  C   UNL     1      -1.206  11.958  22.502  0.00  0.00    +0.000 A 
ATOM     32  C   UNL     1      -2.405  11.972  23.195  0.00  0.00    +0.000 A 
ATOM     33  C   UNL     1      -2.836  13.288  23.539  0.00  0.00    +0.000 A 
ATOM     34  C   UNL     1      -1.957  14.246  23.091  0.00  0.00    +0.000 A 
ATOM     35  S   UNL     1      -0.638  13.564  22.253  0.00  0.00    +0.000 S 
ENDBRANCH  28  31
ENDBRANCH   7  25
TORSDOF 5
ENDMDL
MODEL 6
REMARK VINA RESULT:      -8.7      2.906      7.783
REMARK  Name = 
REMARK  5 active torsions:
REMARK  status: ('A' for Active; 'I' for Inactive)
REMARK    1  A    between atoms: C_4  and  C_5
REMARK    2  A    between atoms: C_5  and  N_6
REMARK    3  A    between atoms: N_11  and  C_12
REMARK    4  A    between atoms: C_18  and  C_19
REMARK    5  A    between atoms: C_22  and  C_23
REMARK                            x       y       z     vdW  Elec       q    Type
REMARK                         _______ _______ _______ _____ _____    ______ ____
ROOT
ATOM      1  C   UNL     1       5.788   4.498  17.413  0.00  0.00    +0.000 A 
ATOM      2  N   UNL     1       5.896   3.662  16.336  0.00  0.00    +0.000 NA
ATOM      3  C   UNL     1       6.640   4.020  15.270  0.00  0.00    +0.000 A 
ATOM      4  N   UNL     1       7.343   5.145  15.097  0.00  0.00    +0.000 NA
ATOM      5  C   UNL     1       7.251   5.924  16.181  0.00  0.00    +0.000 A 
ATOM      6  O   UNL     1       7.879   7.126  16.307  0.00  0.00    +0.000 OA
ATOM      7  C   UNL     1       7.535   7.560  17.559  0.00  0.00    +0.000 A 
ATOM      8  N   UNL     1       6.736   6.745  18.224  0.00  0.00    +0.000 NA
ATOM      9  C   UNL     1       6.539   5.694  17.346  0.00  0.00    +0.000 A 
ENDROOT
BRANCH   1  15
ATOM     10  N   UNL     1       2.675   6.417  19.696  0.00  0.00    +0.000 NA
ATOM     11  C   UNL     1       2.281   6.482  18.285  0.00  0.00    +0.000 C 
ATOM     12  C   UNL     1       1.977   5.066  17.826  0.00  0.00    +0.000 C 
ATOM     13  C   UNL     1       2.649   4.144  18.836  0.00  0.00    +0.000 C 
ATOM     14  C   UNL     1       3.801   3.320  18.266  0.00  0.00    +0.000 C 
ATOM     15  N   UNL     1       4.993   4.125  18.486  0.00  0.00    +0.000 N 
ATOM     16  C   UNL     1       4.791   5.067  19.589  0.00  0.00    +0.000 C 
ATOM     17  C   UNL     1       3.267   5.071  19.886  0.00  0.00    +0.000 C 
BRANCH  10  18
ATOM     18  C   UNL     1       1.579   6.707  20.630  0.00  0.00    +0.000 C 
BRANCH  18  22
ATOM     19  C   UNL     1       0.601  10.938  20.860  0.00  0.00    +0.000 A 
ATOM     20  C   UNL     1       0.566  10.148  22.000  0.00  0.00    +0.000 A 
ATOM     21  C   UNL     1       0.849   8.779  21.922  0.00  0.00    +0.000 A 
ATOM     22  C   UNL     1       1.168   8.175  20.692  0.00  0.00    +0.000 A 
ATOM     23  C   UNL     1       1.183   8.983  19.544  0.00  0.00    +0.000 A 
ATOM     24  C   UNL     1       0.909  10.356  19.629  0.00  0.00    +0.000 A 
ENDBRANCH  18  22
ENDBRANCH  10  18
ENDBRANCH   1  15
BRANCH   7  25
ATOM     25  C   UNL     1       8.118   8.827  17.988  0.00  0.00    +0.000 A 
ATOM     26  C   UNL     1       8.947   8.920  19.113  0.00  0.00    +0.000 A 
ATOM     27  C   UNL     1       9.462  10.156  19.527  0.00  0.00    +0.000 A 
ATOM     28  C   UNL     1       9.161  11.335  18.829  0.00  0.00    +0.000 A 
ATOM     29  C   UNL     1       8.350  11.233  17.689  0.00  0.00    +0.000 A 
ATOM     30  C   UNL     1       7.835   9.998  17.276  0.00  0.00    +0.000 A 
BRANCH  28  31
ATOM     31  C   UNL     1       9.698  12.628  19.292  0.00  0.00    +0.000 A 
ATOM     32  C   UNL     1       9.146  13.892  19.168  0.00  0.00    +0.000 A 
ATOM     33  C   UNL     1       9.964  14.916  19.733  0.00  0.00    +0.000 A 
ATOM     34  C   UNL     1      11.125  14.407  20.266  0.00  0.00    +0.000 A 
ATOM     35  S   UNL     1      11.231  12.716  20.071  0.00  0.00    +0.000 S 
ENDBRANCH  28  31
ENDBRANCH   7  25
TORSDOF 5
ENDMDL
MODEL 7
REMARK VINA RESULT:      -8.7      2.909      4.898
REMARK  Name = 
REMARK  5 active torsions:
REMARK  status: ('A' for Active; 'I' for Inactive)
REMARK    1  A    between atoms: C_4  and  C_5
REMARK    2  A    between atoms: C_5  and  N_6
REMARK    3  A    between atoms: N_11  and  C_12
REMARK    4  A    between atoms: C_18  and  C_19
REMARK    5  A    between atoms: C_22  and  C_23
REMARK                            x       y       z     vdW  Elec       q    Type
REMARK                         _______ _______ _______ _____ _____    ______ ____
ROOT
ATOM      1  C   UNL     1       3.815   3.718  19.680  0.00  0.00    +0.000 A 
ATOM      2  N   UNL     1       3.319   2.560  20.214  0.00  0.00    +0.000 NA
ATOM      3  C   UNL     1       2.179   2.578  20.934  0.00  0.00    +0.000 A 
ATOM      4  N   UNL     1       1.401   3.629  21.219  0.00  0.00    +0.000 NA
ATOM      5  C   UNL     1       1.889   4.737  20.652  0.00  0.00    +0.000 A 
ATOM      6  O   UNL     1       1.299   5.962  20.749  0.00  0.00    +0.000 OA
ATOM      7  C   UNL     1       2.106   6.787  20.012  0.00  0.00    +0.000 A 
ATOM      8  N   UNL     1       3.157   6.194  19.474  0.00  0.00    +0.000 NA
ATOM      9  C   UNL     1       3.034   4.879  19.885  0.00  0.00    +0.000 A 
ENDROOT
BRANCH   1  15
ATOM     10  N   UNL     1       5.105   5.212  15.847  0.00  0.00    +0.000 NA
ATOM     11  C   UNL     1       4.553   6.349  16.593  0.00  0.00    +0.000 C 
ATOM     12  C   UNL     1       5.489   6.635  17.756  0.00  0.00    +0.000 C 
ATOM     13  C   UNL     1       6.319   5.371  17.947  0.00  0.00    +0.000 C 
ATOM     14  C   UNL     1       6.058   4.642  19.264  0.00  0.00    +0.000 C 
ATOM     15  N   UNL     1       5.005   3.684  18.969  0.00  0.00    +0.000 N 
ATOM     16  C   UNL     1       4.976   3.361  17.541  0.00  0.00    +0.000 C 
ATOM     17  C   UNL     1       5.872   4.417  16.837  0.00  0.00    +0.000 C 
BRANCH  10  18
ATOM     18  C   UNL     1       5.900   5.603  14.676  0.00  0.00    +0.000 C 
BRANCH  18  22
ATOM     19  C   UNL     1       6.172   2.676  11.472  0.00  0.00    +0.000 A 
ATOM     20  C   UNL     1       4.964   2.900  12.115  0.00  0.00    +0.000 A 
ATOM     21  C   UNL     1       4.882   3.818  13.168  0.00  0.00    +0.000 A 
ATOM     22  C   UNL     1       6.018   4.527  13.600  0.00  0.00    +0.000 A 
ATOM     23  C   UNL     1       7.237   4.278  12.952  0.00  0.00    +0.000 A 
ATOM     24  C   UNL     1       7.313   3.365  11.890  0.00  0.00    +0.000 A 
ENDBRANCH  18  22
ENDBRANCH  10  18
ENDBRANCH   1  15
BRANCH   7  25
ATOM     25  C   UNL     1       1.680   8.178  19.900  0.00  0.00    +0.000 A 
ATOM     26  C   UNL     1       1.170   8.889  20.994  0.00  0.00    +0.000 A 
ATOM     27  C   UNL     1       0.730  10.212  20.850  0.00  0.00    +0.000 A 
ATOM     28  C   UNL     1       0.785  10.862  19.608  0.00  0.00    +0.000 A 
ATOM     29  C   UNL     1       1.319  10.154  18.521  0.00  0.00    +0.000 A 
ATOM     30  C   UNL     1       1.759   8.832  18.665  0.00  0.00    +0.000 A 
BRANCH  28  31
ATOM     31  C   UNL     1       0.300  12.248  19.474  0.00  0.00    +0.000 A 
ATOM     32  C   UNL     1       0.686  13.219  18.565  0.00  0.00    +0.000 A 
ATOM     33  C   UNL     1      -0.000  14.457  18.746  0.00  0.00    +0.000 A 
ATOM     34  C   UNL     1      -0.887  14.401  19.796  0.00  0.00    +0.000 A 
ATOM     35  S   UNL     1      -0.877  12.877  20.561  0.00  0.00    +0.000 S 
ENDBRANCH  28  31
ENDBRANCH   7  25
TORSDOF 5
ENDMDL
MODEL 8
REMARK VINA RESULT:      -8.7      2.921      4.947
REMARK  Name = 
REMARK  5 active torsions:
REMARK  status: ('A' for Active; 'I' for Inactive)
REMARK    1  A    between atoms: C_4  and  C_5
REMARK    2  A    between atoms: C_5  and  N_6
REMARK    3  A    between atoms: N_11  and  C_12
REMARK    4  A    between atoms: C_18  and  C_19
REMARK    5  A    between atoms: C_22  and  C_23
REMARK                            x       y       z     vdW  Elec       q    Type
REMARK                         _______ _______ _______ _____ _____    ______ ____
ROOT
ATOM      1  C   UNL     1       4.075   3.917  19.636  0.00  0.00    +0.000 A 
ATOM      2  N   UNL     1       3.611   2.736  20.144  0.00  0.00    +0.000 NA
ATOM      3  C   UNL     1       2.431   2.694  20.795  0.00  0.00    +0.000 A 
ATOM      4  N   UNL     1       1.582   3.702  21.029  0.00  0.00    +0.000 NA
ATOM      5  C   UNL     1       2.043   4.834  20.486  0.00  0.00    +0.000 A 
ATOM      6  O   UNL     1       1.383   6.025  20.541  0.00  0.00    +0.000 OA
ATOM      7  C   UNL     1       2.188   6.891  19.850  0.00  0.00    +0.000 A 
ATOM      8  N   UNL     1       3.299   6.354  19.378  0.00  0.00    +0.000 NA
ATOM      9  C   UNL     1       3.222   5.035  19.787  0.00  0.00    +0.000 A 
ENDROOT
BRANCH   1  15
ATOM     10  N   UNL     1       5.425   5.028  15.695  0.00  0.00    +0.000 NA
ATOM     11  C   UNL     1       4.684   6.172  16.239  0.00  0.00    +0.000 C 
ATOM     12  C   UNL     1       5.495   6.740  17.392  0.00  0.00    +0.000 C 
ATOM     13  C   UNL     1       6.463   5.637  17.807  0.00  0.00    +0.000 C 
ATOM     14  C   UNL     1       6.207   5.069  19.201  0.00  0.00    +0.000 C 
ATOM     15  N   UNL     1       5.306   3.946  18.997  0.00  0.00    +0.000 N 
ATOM     16  C   UNL     1       5.415   3.428  17.632  0.00  0.00    +0.000 C 
ATOM     17  C   UNL     1       6.216   4.488  16.827  0.00  0.00    +0.000 C 
BRANCH  10  18
ATOM     18  C   UNL     1       6.242   5.358  14.520  0.00  0.00    +0.000 C 
BRANCH  18  22
ATOM     19  C   UNL     1       5.857   2.432  11.326  0.00  0.00    +0.000 A 
ATOM     20  C   UNL     1       7.111   2.875  11.722  0.00  0.00    +0.000 A 
ATOM     21  C   UNL     1       7.235   3.841  12.728  0.00  0.00    +0.000 A 
ATOM     22  C   UNL     1       6.097   4.385  13.352  0.00  0.00    +0.000 A 
ATOM     23  C   UNL     1       4.836   3.941  12.929  0.00  0.00    +0.000 A 
ATOM     24  C   UNL     1       4.716   2.965  11.928  0.00  0.00    +0.000 A 
ENDBRANCH  18  22
ENDBRANCH  10  18
ENDBRANCH   1  15
BRANCH   7  25
ATOM     25  C   UNL     1       1.694   8.256  19.705  0.00  0.00    +0.000 A 
ATOM     26  C   UNL     1       1.805   8.963  18.501  0.00  0.00    +0.000 A 
ATOM     27  C   UNL     1       1.359  10.288  18.401  0.00  0.00    +0.000 A 
ATOM     28  C   UNL     1       0.791  10.946  19.502  0.00  0.00    +0.000 A 
ATOM     29  C   UNL     1       0.660  10.226  20.699  0.00  0.00    +0.000 A 
ATOM     30  C   UNL     1       1.106   8.902  20.799  0.00  0.00    +0.000 A 
BRANCH  28  31
ATOM     31  C   UNL     1       0.345  12.345  19.380  0.00  0.00    +0.000 A 
ATOM     32  C   UNL     1       0.795  13.329  18.514  0.00  0.00    +0.000 A 
ATOM     33  C   UNL     1       0.130  14.578  18.694  0.00  0.00    +0.000 A 
ATOM     34  C   UNL     1      -0.806  14.518  19.700  0.00  0.00    +0.000 A 
ATOM     35  S   UNL     1      -0.867  12.977  20.426  0.00  0.00    +0.000 S 
ENDBRANCH  28  31
ENDBRANCH   7  25
TORSDOF 5
ENDMDL
MODEL 9
REMARK VINA RESULT:      -8.6      2.932      4.949
REMARK  Name = 
REMARK  5 active torsions:
REMARK  status: ('A' for Active; 'I' for Inactive)
REMARK    1  A    between atoms: C_4  and  C_5
REMARK    2  A    between atoms: C_5  and  N_6
REMARK    3  A    between atoms: N_11  and  C_12
REMARK    4  A    between atoms: C_18  and  C_19
REMARK    5  A    between atoms: C_22  and  C_23
REMARK                            x       y       z     vdW  Elec       q    Type
REMARK                         _______ _______ _______ _____ _____    ______ ____
ROOT
ATOM      1  C   UNL     1       3.936   3.870  19.625  0.00  0.00    +0.000 A 
ATOM      2  N   UNL     1       3.418   2.663  20.005  0.00  0.00    +0.000 NA
ATOM      3  C   UNL     1       2.201   2.597  20.581  0.00  0.00    +0.000 A 
ATOM      4  N   UNL     1       1.361   3.604  20.851  0.00  0.00    +0.000 NA
ATOM      5  C   UNL     1       1.877   4.765  20.432  0.00  0.00    +0.000 A 
ATOM      6  O   UNL     1       1.240   5.964  20.550  0.00  0.00    +0.000 OA
ATOM      7  C   UNL     1       2.102   6.863  19.981  0.00  0.00    +0.000 A 
ATOM      8  N   UNL     1       3.227   6.339  19.530  0.00  0.00    +0.000 NA
ATOM      9  C   UNL     1       3.099   4.993  19.822  0.00  0.00    +0.000 A 
ENDROOT
BRANCH   1  15
ATOM     10  N   UNL     1       5.489   4.862  15.728  0.00  0.00    +0.000 NA
ATOM     11  C   UNL     1       4.674   5.999  16.172  0.00  0.00    +0.000 C 
ATOM     12  C   UNL     1       5.390   6.647  17.346  0.00  0.00    +0.000 C 
ATOM     13  C   UNL     1       6.369   5.603  17.869  0.00  0.00    +0.000 C 
ATOM     14  C   UNL     1       6.047   5.085  19.270  0.00  0.00    +0.000 C 
ATOM     15  N   UNL     1       5.202   3.920  19.063  0.00  0.00    +0.000 N 
ATOM     16  C   UNL     1       5.417   3.348  17.731  0.00  0.00    +0.000 C 
ATOM     17  C   UNL     1       6.227   4.403  16.929  0.00  0.00    +0.000 C 
BRANCH  10  18
ATOM     18  C   UNL     1       6.366   5.173  14.591  0.00  0.00    +0.000 C 
BRANCH  18  22
ATOM     19  C   UNL     1       5.863   2.429  11.255  0.00  0.00    +0.000 A 
ATOM     20  C   UNL     1       7.130   2.850  11.631  0.00  0.00    +0.000 A 
ATOM     21  C   UNL     1       7.291   3.759  12.684  0.00  0.00    +0.000 A 
ATOM     22  C   UNL     1       6.178   4.267  13.378  0.00  0.00    +0.000 A 
ATOM     23  C   UNL     1       4.901   3.846  12.976  0.00  0.00    +0.000 A 
ATOM     24  C   UNL     1       4.745   2.927  11.928  0.00  0.00    +0.000 A 
ENDBRANCH  18  22
ENDBRANCH  10  18
ENDBRANCH   1  15
BRANCH   7  25
ATOM     25  C   UNL     1       1.647   8.248  19.925  0.00  0.00    +0.000 A 
ATOM     26  C   UNL     1       1.108   8.900  21.042  0.00  0.00    +0.000 A 
ATOM     27  C   UNL     1       0.641  10.218  20.950  0.00  0.00    +0.000 A 
ATOM     28  C   UNL     1       0.698  10.923  19.739  0.00  0.00    +0.000 A 
ATOM     29  C   UNL     1       1.262  10.275  18.629  0.00  0.00    +0.000 A 
ATOM     30  C   UNL     1       1.728   8.958  18.721  0.00  0.00    +0.000 A 
BRANCH  28  31
ATOM     31  C   UNL     1       0.185  12.303  19.659  0.00  0.00    +0.000 A 
ATOM     32  C   UNL     1      -0.969  12.834  20.211  0.00  0.00    +0.000 A 
ATOM     33  C   UNL     1      -1.145  14.218  19.913  0.00  0.00    +0.000 A 
ATOM     34  C   UNL     1      -0.123  14.706  19.133  0.00  0.00    +0.000 A 
ATOM     35  S   UNL     1       1.024  13.503  18.754  0.00  0.00    +0.000 S 
ENDBRANCH  28  31
ENDBRANCH   7  25
TORSDOF 5
ENDMDL
