MODEL 1
REMARK VINA RESULT:      -7.9      0.000      0.000
REMARK  Name = 
REMARK  6 active torsions:
REMARK  status: ('A' for Active; 'I' for Inactive)
REMARK    1  A    between atoms: C_1  and  N_2
REMARK    2  A    between atoms: N_5  and  N_6
REMARK    3  A    between atoms: C_7  and  C_8
REMARK    4  A    between atoms: C_11  and  O_12
REMARK    5  A    between atoms: O_12  and  C_13
REMARK    6  A    between atoms: C_13  and  C_14
REMARK                            x       y       z     vdW  Elec       q    Type
REMARK                         _______ _______ _______ _____ _____    ______ ____
ROOT
ATOM      1  C   UNL     1       7.716   7.765  17.919  0.00  0.00    +0.000 A 
ATOM      2  C   UNL     1       8.157   6.760  18.780  0.00  0.00    +0.000 A 
ATOM      3  C   UNL     1       7.637   5.476  18.671  0.00  0.00    +0.000 A 
ATOM      4  C   UNL     1       6.642   5.201  17.731  0.00  0.00    +0.000 A 
ATOM      5  C   UNL     1       6.236   6.196  16.837  0.00  0.00    +0.000 A 
ATOM      6  C   UNL     1       6.771   7.486  16.929  0.00  0.00    +0.000 A 
ENDROOT
BRANCH   1   8
ATOM      7  N   UNL     1       8.966   9.455  19.090  0.00  0.00    +0.000 NA
ATOM      8  C   UNL     1       8.310   9.107  18.026  0.00  0.00    +0.000 C 
BRANCH   7  13
ATOM      9  C   UNL     1      11.471  14.452  18.834  0.00  0.00    +0.000 C 
ATOM     10  N   UNL     1      10.423  13.460  19.058  0.00  0.00    +0.000 NA
ATOM     11  C   UNL     1      10.848  12.481  20.080  0.00  0.00    +0.000 C 
ATOM     12  C   UNL     1       9.836  11.335  20.259  0.00  0.00    +0.000 C 
ATOM     13  N   UNL     1       9.591  10.646  18.974  0.00  0.00    +0.000 N 
ATOM     14  C   UNL     1       9.052  11.637  18.021  0.00  0.00    +0.000 C 
ATOM     15  C   UNL     1      10.088  12.757  17.804  0.00  0.00    +0.000 C 
ENDBRANCH   7  13
ENDBRANCH   1   8
BRANCH   4  16
ATOM     16  O   UNL     1       6.009   3.992  17.621  0.00  0.00    +0.000 OA
BRANCH  16  17
ATOM     17  C   UNL     1       4.921   3.991  16.692  0.00  0.00    +0.000 C 
BRANCH  17  18
ATOM     18  C   UNL     1       3.642   3.648  17.406  0.00  0.00    +0.000 A 
ATOM     19  C   UNL     1       2.679   4.635  17.656  0.00  0.00    +0.000 A 
ATOM     20  C   UNL     1       1.492   4.302  18.307  0.00  0.00    +0.000 A 
ATOM     21  C   UNL     1       1.255   2.989  18.708  0.00  0.00    +0.000 A 
ATOM     22  C   UNL     1       2.204   1.999  18.457  0.00  0.00    +0.000 A 
ATOM     23  C   UNL     1       3.396   2.327  17.807  0.00  0.00    +0.000 A 
ENDBRANCH  17  18
ENDBRANCH  16  17
ENDBRANCH   4  16
TORSDOF 5
ENDMDL
MODEL 2
REMARK VINA RESULT:      -7.9      0.612      1.512
REMARK  Name = 
REMARK  6 active torsions:
REMARK  status: ('A' for Active; 'I' for Inactive)
REMARK    1  A    between atoms: C_1  and  N_2
REMARK    2  A    between atoms: N_5  and  N_6
REMARK    3  A    between atoms: C_7  and  C_8
REMARK    4  A    between atoms: C_11  and  O_12
REMARK    5  A    between atoms: O_12  and  C_13
REMARK    6  A    between atoms: C_13  and  C_14
REMARK                            x       y       z     vdW  Elec       q    Type
REMARK                         _______ _______ _______ _____ _____    ______ ____
ROOT
ATOM      1  C   UNL     1       7.514   7.591  17.841  0.00  0.00    +0.000 A 
ATOM      2  C   UNL     1       6.384   7.524  17.026  0.00  0.00    +0.000 A 
ATOM      3  C   UNL     1       5.649   6.347  16.953  0.00  0.00    +0.000 A 
ATOM      4  C   UNL     1       6.066   5.217  17.660  0.00  0.00    +0.000 A 
ATOM      5  C   UNL     1       7.170   5.299  18.513  0.00  0.00    +0.000 A 
ATOM      6  C   UNL     1       7.902   6.489  18.606  0.00  0.00    +0.000 A 
ENDROOT
BRANCH   1   8
ATOM      7  N   UNL     1       8.757   9.248  19.065  0.00  0.00    +0.000 NA
ATOM      8  C   UNL     1       8.253   8.860  17.934  0.00  0.00    +0.000 C 
BRANCH   7  13
ATOM      9  C   UNL     1      11.932  13.851  18.842  0.00  0.00    +0.000 C 
ATOM     10  N   UNL     1      10.749  13.016  19.032  0.00  0.00    +0.000 NA
ATOM     11  C   UNL     1      10.987  12.015  20.092  0.00  0.00    +0.000 C 
ATOM     12  C   UNL     1       9.820  11.022  20.240  0.00  0.00    +0.000 C 
ATOM     13  N   UNL     1       9.544  10.340  18.958  0.00  0.00    +0.000 N 
ATOM     14  C   UNL     1       9.192  11.371  17.961  0.00  0.00    +0.000 C 
ATOM     15  C   UNL     1      10.381  12.334  17.776  0.00  0.00    +0.000 C 
ENDBRANCH   7  13
ENDBRANCH   1   8
BRANCH   4  16
ATOM     16  O   UNL     1       5.459   3.993  17.569  0.00  0.00    +0.000 OA
BRANCH  16  17
ATOM     17  C   UNL     1       4.224   4.012  16.847  0.00  0.00    +0.000 C 
BRANCH  17  18
ATOM     18  C   UNL     1       3.088   3.672  17.772  0.00  0.00    +0.000 A 
ATOM     19  C   UNL     1       2.591   2.364  17.838  0.00  0.00    +0.000 A 
ATOM     20  C   UNL     1       1.545   2.056  18.708  0.00  0.00    +0.000 A 
ATOM     21  C   UNL     1       0.994   3.046  19.519  0.00  0.00    +0.000 A 
ATOM     22  C   UNL     1       1.487   4.349  19.466  0.00  0.00    +0.000 A 
ATOM     23  C   UNL     1       2.532   4.663  18.594  0.00  0.00    +0.000 A 
ENDBRANCH  17  18
ENDBRANCH  16  17
ENDBRANCH   4  16
TORSDOF 5
ENDMDL
MODEL 3
REMARK VINA RESULT:      -7.8      1.238      1.586
REMARK  Name = 
REMARK  6 active torsions:
REMARK  status: ('A' for Active; 'I' for Inactive)
REMARK    1  A    between atoms: C_1  and  N_2
REMARK    2  A    between atoms: N_5  and  N_6
REMARK    3  A    between atoms: C_7  and  C_8
REMARK    4  A    between atoms: C_11  and  O_12
REMARK    5  A    between atoms: O_12  and  C_13
REMARK    6  A    between atoms: C_13  and  C_14
REMARK                            x       y       z     vdW  Elec       q    Type
REMARK                         _______ _______ _______ _____ _____    ______ ____
ROOT
ATOM      1  C   UNL     1       7.565   7.229  18.053  0.00  0.00    +0.000 A 
ATOM      2  C   UNL     1       7.817   6.071  18.788  0.00  0.00    +0.000 A 
ATOM      3  C   UNL     1       6.990   4.964  18.644  0.00  0.00    +0.000 A 
ATOM      4  C   UNL     1       5.881   5.024  17.798  0.00  0.00    +0.000 A 
ATOM      5  C   UNL     1       5.657   6.168  17.026  0.00  0.00    +0.000 A 
ATOM      6  C   UNL     1       6.500   7.279  17.152  0.00  0.00    +0.000 A 
ENDROOT
BRANCH   1   8
ATOM      7  N   UNL     1       8.088   9.572  17.877  0.00  0.00    +0.000 NA
ATOM      8  C   UNL     1       8.479   8.375  18.192  0.00  0.00    +0.000 C 
BRANCH   7  13
ATOM      9  C   UNL     1      11.680  13.540  19.510  0.00  0.00    +0.000 C 
ATOM     10  N   UNL     1      10.428  12.799  19.387  0.00  0.00    +0.000 NA
ATOM     11  C   UNL     1      10.595  11.415  19.876  0.00  0.00    +0.000 C 
ATOM     12  C   UNL     1       9.343  10.550  19.645  0.00  0.00    +0.000 C 
ATOM     13  N   UNL     1       8.973  10.534  18.215  0.00  0.00    +0.000 N 
ATOM     14  C   UNL     1       8.696  11.925  17.801  0.00  0.00    +0.000 C 
ATOM     15  C   UNL     1       9.966  12.778  17.985  0.00  0.00    +0.000 C 
ENDBRANCH   7  13
ENDBRANCH   1   8
BRANCH   4  16
ATOM     16  O   UNL     1       4.962   4.017  17.671  0.00  0.00    +0.000 OA
BRANCH  16  17
ATOM     17  C   UNL     1       3.605   4.472  17.653  0.00  0.00    +0.000 C 
BRANCH  17  18
ATOM     18  C   UNL     1       2.870   3.922  18.845  0.00  0.00    +0.000 A 
ATOM     19  C   UNL     1       3.561   3.245  19.858  0.00  0.00    +0.000 A 
ATOM     20  C   UNL     1       2.870   2.750  20.964  0.00  0.00    +0.000 A 
ATOM     21  C   UNL     1       1.493   2.932  21.070  0.00  0.00    +0.000 A 
ATOM     22  C   UNL     1       0.798   3.612  20.071  0.00  0.00    +0.000 A 
ATOM     23  C   UNL     1       1.485   4.107  18.959  0.00  0.00    +0.000 A 
ENDBRANCH  17  18
ENDBRANCH  16  17
ENDBRANCH   4  16
TORSDOF 5
ENDMDL
MODEL 4
REMARK VINA RESULT:      -7.7      1.085      1.458
REMARK  Name = 
REMARK  6 active torsions:
REMARK  status: ('A' for Active; 'I' for Inactive)
REMARK    1  A    between atoms: C_1  and  N_2
REMARK    2  A    between atoms: N_5  and  N_6
REMARK    3  A    between atoms: C_7  and  C_8
REMARK    4  A    between atoms: C_11  and  O_12
REMARK    5  A    between atoms: O_12  and  C_13
REMARK    6  A    between atoms: C_13  and  C_14
REMARK                            x       y       z     vdW  Elec       q    Type
REMARK                         _______ _______ _______ _____ _____    ______ ____
ROOT
ATOM      1  C   UNL     1       7.452   7.578  17.849  0.00  0.00    +0.000 A 
ATOM      2  C   UNL     1       7.938   6.500  18.589  0.00  0.00    +0.000 A 
ATOM      3  C   UNL     1       7.242   5.297  18.603  0.00  0.00    +0.000 A 
ATOM      4  C   UNL     1       6.034   5.180  17.913  0.00  0.00    +0.000 A 
ATOM      5  C   UNL     1       5.573   6.244  17.132  0.00  0.00    +0.000 A 
ATOM      6  C   UNL     1       6.281   7.452  17.099  0.00  0.00    +0.000 A 
ENDROOT
BRANCH   1   8
ATOM      7  N   UNL     1       8.627   9.385  18.919  0.00  0.00    +0.000 NA
ATOM      8  C   UNL     1       8.228   8.828  17.817  0.00  0.00    +0.000 C 
BRANCH   7  13
ATOM      9  C   UNL     1      12.074  13.757  18.357  0.00  0.00    +0.000 C 
ATOM     10  N   UNL     1      10.899  12.987  18.757  0.00  0.00    +0.000 NA
ATOM     11  C   UNL     1      11.293  11.851  19.616  0.00  0.00    +0.000 C 
ATOM     12  C   UNL     1      10.109  10.929  19.957  0.00  0.00    +0.000 C 
ATOM     13  N   UNL     1       9.464  10.426  18.726  0.00  0.00    +0.000 N 
ATOM     14  C   UNL     1       8.978  11.591  17.958  0.00  0.00    +0.000 C 
ATOM     15  C   UNL     1      10.172  12.487  17.574  0.00  0.00    +0.000 C 
ENDBRANCH   7  13
ENDBRANCH   1   8
BRANCH   4  16
ATOM     16  O   UNL     1       5.237   4.067  17.951  0.00  0.00    +0.000 OA
BRANCH  16  17
ATOM     17  C   UNL     1       4.942   3.613  19.276  0.00  0.00    +0.000 C 
BRANCH  17  18
ATOM     18  C   UNL     1       3.455   3.444  19.435  0.00  0.00    +0.000 A 
ATOM     19  C   UNL     1       2.787   2.390  18.800  0.00  0.00    +0.000 A 
ATOM     20  C   UNL     1       1.411   2.235  18.965  0.00  0.00    +0.000 A 
ATOM     21  C   UNL     1       0.695   3.124  19.765  0.00  0.00    +0.000 A 
ATOM     22  C   UNL     1       1.354   4.172  20.407  0.00  0.00    +0.000 A 
ATOM     23  C   UNL     1       2.732   4.332  20.243  0.00  0.00    +0.000 A 
ENDBRANCH  17  18
ENDBRANCH  16  17
ENDBRANCH   4  16
TORSDOF 5
ENDMDL
MODEL 5
REMARK VINA RESULT:      -7.7      1.253      1.682
REMARK  Name = 
REMARK  6 active torsions:
REMARK  status: ('A' for Active; 'I' for Inactive)
REMARK    1  A    between atoms: C_1  and  N_2
REMARK    2  A    between atoms: N_5  and  N_6
REMARK    3  A    between atoms: C_7  and  C_8
REMARK    4  A    between atoms: C_11  and  O_12
REMARK    5  A    between atoms: O_12  and  C_13
REMARK    6  A    between atoms: C_13  and  C_14
REMARK                            x       y       z     vdW  Elec       q    Type
REMARK                         _______ _______ _______ _____ _____    ______ ____
ROOT
ATOM      1  C   UNL     1       7.563   7.307  18.134  0.00  0.00    +0.000 A 
ATOM      2  C   UNL     1       6.479   7.454  17.269  0.00  0.00    +0.000 A 
ATOM      3  C   UNL     1       5.579   6.410  17.101  0.00  0.00    +0.000 A 
ATOM      4  C   UNL     1       5.782   5.197  17.762  0.00  0.00    +0.000 A 
ATOM      5  C   UNL     1       6.841   5.067  18.665  0.00  0.00    +0.000 A 
ATOM      6  C   UNL     1       7.740   6.123  18.854  0.00  0.00    +0.000 A 
ENDROOT
BRANCH   1   8
ATOM      7  N   UNL     1       8.221   9.597  17.799  0.00  0.00    +0.000 NA
ATOM      8  C   UNL     1       8.481   8.441  18.328  0.00  0.00    +0.000 C 
BRANCH   7  13
ATOM      9  C   UNL     1      11.621  13.618  19.695  0.00  0.00    +0.000 C 
ATOM     10  N   UNL     1      10.399  12.839  19.505  0.00  0.00    +0.000 NA
ATOM     11  C   UNL     1      10.603  11.443  19.943  0.00  0.00    +0.000 C 
ATOM     12  C   UNL     1       9.390  10.545  19.641  0.00  0.00    +0.000 C 
ATOM     13  N   UNL     1       9.060  10.575  18.201  0.00  0.00    +0.000 N 
ATOM     14  C   UNL     1       8.745  11.971  17.835  0.00  0.00    +0.000 C 
ATOM     15  C   UNL     1       9.979  12.860  18.090  0.00  0.00    +0.000 C 
ENDBRANCH   7  13
ENDBRANCH   1   8
BRANCH   4  16
ATOM     16  O   UNL     1       5.001   4.087  17.579  0.00  0.00    +0.000 OA
BRANCH  16  17
ATOM     17  C   UNL     1       3.600   4.372  17.506  0.00  0.00    +0.000 C 
BRANCH  17  18
ATOM     18  C   UNL     1       2.931   3.968  18.791  0.00  0.00    +0.000 A 
ATOM     19  C   UNL     1       1.640   4.417  19.094  0.00  0.00    +0.000 A 
ATOM     20  C   UNL     1       1.024   4.026  20.282  0.00  0.00    +0.000 A 
ATOM     21  C   UNL     1       1.688   3.183  21.172  0.00  0.00    +0.000 A 
ATOM     22  C   UNL     1       2.971   2.725  20.876  0.00  0.00    +0.000 A 
ATOM     23  C   UNL     1       3.593   3.116  19.687  0.00  0.00    +0.000 A 
ENDBRANCH  17  18
ENDBRANCH  16  17
ENDBRANCH   4  16
TORSDOF 5
ENDMDL
MODEL 6
REMARK VINA RESULT:      -7.7      0.587      1.817
REMARK  Name = 
REMARK  6 active torsions:
REMARK  status: ('A' for Active; 'I' for Inactive)
REMARK    1  A    between atoms: C_1  and  N_2
REMARK    2  A    between atoms: N_5  and  N_6
REMARK    3  A    between atoms: C_7  and  C_8
REMARK    4  A    between atoms: C_11  and  O_12
REMARK    5  A    between atoms: O_12  and  C_13
REMARK    6  A    between atoms: C_13  and  C_14
REMARK                            x       y       z     vdW  Elec       q    Type
REMARK                         _______ _______ _______ _____ _____    ______ ____
ROOT
ATOM      1  C   UNL     1       7.854   8.148  18.003  0.00  0.00    +0.000 A 
ATOM      2  C   UNL     1       6.829   7.910  17.087  0.00  0.00    +0.000 A 
ATOM      3  C   UNL     1       6.255   6.648  17.000  0.00  0.00    +0.000 A 
ATOM      4  C   UNL     1       6.732   5.606  17.796  0.00  0.00    +0.000 A 
ATOM      5  C   UNL     1       7.725   5.856  18.747  0.00  0.00    +0.000 A 
ATOM      6  C   UNL     1       8.293   7.131  18.853  0.00  0.00    +0.000 A 
ENDROOT
BRANCH   1   8
ATOM      7  N   UNL     1       9.042   9.877  19.181  0.00  0.00    +0.000 NA
ATOM      8  C   UNL     1       8.419   9.502  18.106  0.00  0.00    +0.000 C 
BRANCH   7  13
ATOM      9  C   UNL     1      11.702  14.757  18.528  0.00  0.00    +0.000 C 
ATOM     10  N   UNL     1      11.508  13.323  18.728  0.00  0.00    +0.000 NA
ATOM     11  C   UNL     1      10.766  12.738  17.593  0.00  0.00    +0.000 C 
ATOM     12  C   UNL     1      10.418  11.256  17.815  0.00  0.00    +0.000 C 
ATOM     13  N   UNL     1       9.646  11.079  19.064  0.00  0.00    +0.000 N 
ATOM     14  C   UNL     1      10.477  11.564  20.184  0.00  0.00    +0.000 C 
ATOM     15  C   UNL     1      10.782  13.063  19.986  0.00  0.00    +0.000 C 
ENDBRANCH   7  13
ENDBRANCH   1   8
BRANCH   4  16
ATOM     16  O   UNL     1       6.290   4.313  17.706  0.00  0.00    +0.000 OA
BRANCH  16  17
ATOM     17  C   UNL     1       5.316   4.105  16.679  0.00  0.00    +0.000 C 
BRANCH  17  18
ATOM     18  C   UNL     1       3.981   3.793  17.301  0.00  0.00    +0.000 A 
ATOM     19  C   UNL     1       3.645   2.477  17.644  0.00  0.00    +0.000 A 
ATOM     20  C   UNL     1       2.411   2.202  18.231  0.00  0.00    +0.000 A 
ATOM     21  C   UNL     1       1.508   3.233  18.483  0.00  0.00    +0.000 A 
ATOM     22  C   UNL     1       1.836   4.547  18.151  0.00  0.00    +0.000 A 
ATOM     23  C   UNL     1       3.071   4.827  17.561  0.00  0.00    +0.000 A 
ENDBRANCH  17  18
ENDBRANCH  16  17
ENDBRANCH   4  16
TORSDOF 5
ENDMDL
MODEL 7
REMARK VINA RESULT:      -7.6      1.176      1.734
REMARK  Name = 
REMARK  6 active torsions:
REMARK  status: ('A' for Active; 'I' for Inactive)
REMARK    1  A    between atoms: C_1  and  N_2
REMARK    2  A    between atoms: N_5  and  N_6
REMARK    3  A    between atoms: C_7  and  C_8
REMARK    4  A    between atoms: C_11  and  O_12
REMARK    5  A    between atoms: O_12  and  C_13
REMARK    6  A    between atoms: C_13  and  C_14
REMARK                            x       y       z     vdW  Elec       q    Type
REMARK                         _______ _______ _______ _____ _____    ______ ____
ROOT
ATOM      1  C   UNL     1       7.625   7.443  17.835  0.00  0.00    +0.000 A 
ATOM      2  C   UNL     1       6.486   7.394  17.030  0.00  0.00    +0.000 A 
ATOM      3  C   UNL     1       5.631   6.301  17.104  0.00  0.00    +0.000 A 
ATOM      4  C   UNL     1       5.932   5.232  17.949  0.00  0.00    +0.000 A 
ATOM      5  C   UNL     1       7.046   5.304  18.791  0.00  0.00    +0.000 A 
ATOM      6  C   UNL     1       7.901   6.411  18.735  0.00  0.00    +0.000 A 
ENDROOT
BRANCH   1   8
ATOM      7  N   UNL     1       8.124   9.748  18.312  0.00  0.00    +0.000 NA
ATOM      8  C   UNL     1       8.494   8.628  17.770  0.00  0.00    +0.000 C 
BRANCH   7  13
ATOM      9  C   UNL     1      12.112  13.664  18.582  0.00  0.00    +0.000 C 
ATOM     10  N   UNL     1      10.843  12.988  18.837  0.00  0.00    +0.000 NA
ATOM     11  C   UNL     1      11.076  11.664  19.449  0.00  0.00    +0.000 C 
ATOM     12  C   UNL     1       9.779  10.853  19.616  0.00  0.00    +0.000 C 
ATOM     13  N   UNL     1       9.091  10.690  18.318  0.00  0.00    +0.000 N 
ATOM     14  C   UNL     1       8.769  12.036  17.802  0.00  0.00    +0.000 C 
ATOM     15  C   UNL     1      10.073  12.830  17.587  0.00  0.00    +0.000 C 
ENDBRANCH   7  13
ENDBRANCH   1   8
BRANCH   4  16
ATOM     16  O   UNL     1       5.198   4.078  18.012  0.00  0.00    +0.000 OA
BRANCH  16  17
ATOM     17  C   UNL     1       4.871   3.673  19.345  0.00  0.00    +0.000 C 
BRANCH  17  18
ATOM     18  C   UNL     1       3.389   3.439  19.455  0.00  0.00    +0.000 A 
ATOM     19  C   UNL     1       2.803   3.161  20.697  0.00  0.00    +0.000 A 
ATOM     20  C   UNL     1       1.426   2.959  20.790  0.00  0.00    +0.000 A 
ATOM     21  C   UNL     1       0.627   3.036  19.651  0.00  0.00    +0.000 A 
ATOM     22  C   UNL     1       1.201   3.319  18.412  0.00  0.00    +0.000 A 
ATOM     23  C   UNL     1       2.579   3.521  18.314  0.00  0.00    +0.000 A 
ENDBRANCH  17  18
ENDBRANCH  16  17
ENDBRANCH   4  16
TORSDOF 5
ENDMDL
MODEL 8
REMARK VINA RESULT:      -7.6      0.863      1.529
REMARK  Name = 
REMARK  6 active torsions:
REMARK  status: ('A' for Active; 'I' for Inactive)
REMARK    1  A    between atoms: C_1  and  N_2
REMARK    2  A    between atoms: N_5  and  N_6
REMARK    3  A    between atoms: C_7  and  C_8
REMARK    4  A    between atoms: C_11  and  O_12
REMARK    5  A    between atoms: O_12  and  C_13
REMARK    6  A    between atoms: C_13  and  C_14
REMARK                            x       y       z     vdW  Elec       q    Type
REMARK                         _______ _______ _______ _____ _____    ______ ____
ROOT
ATOM      1  C   UNL     1       7.820   7.413  18.232  0.00  0.00    +0.000 A 
ATOM      2  C   UNL     1       8.064   6.203  18.882  0.00  0.00    +0.000 A 
ATOM      3  C   UNL     1       7.417   5.047  18.463  0.00  0.00    +0.000 A 
ATOM      4  C   UNL     1       6.489   5.103  17.422  0.00  0.00    +0.000 A 
ATOM      5  C   UNL     1       6.281   6.305  16.739  0.00  0.00    +0.000 A 
ATOM      6  C   UNL     1       6.946   7.469  17.145  0.00  0.00    +0.000 A 
ENDROOT
BRANCH   1   8
ATOM      7  N   UNL     1       8.456   9.721  17.994  0.00  0.00    +0.000 NA
ATOM      8  C   UNL     1       8.548   8.615  18.667  0.00  0.00    +0.000 C 
BRANCH   7  13
ATOM      9  C   UNL     1      11.077  14.051  20.382  0.00  0.00    +0.000 C 
ATOM     10  N   UNL     1      10.862  12.704  19.859  0.00  0.00    +0.000 NA
ATOM     11  C   UNL     1      10.528  12.755  18.421  0.00  0.00    +0.000 C 
ATOM     12  C   UNL     1      10.161  11.374  17.849  0.00  0.00    +0.000 C 
ATOM     13  N   UNL     1       9.040  10.775  18.604  0.00  0.00    +0.000 N 
ATOM     14  C   UNL     1       9.464  10.630  20.011  0.00  0.00    +0.000 C 
ATOM     15  C   UNL     1       9.783  12.020  20.597  0.00  0.00    +0.000 C 
ENDBRANCH   7  13
ENDBRANCH   1   8
BRANCH   4  16
ATOM     16  O   UNL     1       5.737   4.035  17.010  0.00  0.00    +0.000 OA
BRANCH  16  17
ATOM     17  C   UNL     1       4.390   4.375  16.666  0.00  0.00    +0.000 C 
BRANCH  17  18
ATOM     18  C   UNL     1       3.436   3.674  17.594  0.00  0.00    +0.000 A 
ATOM     19  C   UNL     1       3.904   2.732  18.518  0.00  0.00    +0.000 A 
ATOM     20  C   UNL     1       3.012   2.097  19.383  0.00  0.00    +0.000 A 
ATOM     21  C   UNL     1       1.653   2.400  19.334  0.00  0.00    +0.000 A 
ATOM     22  C   UNL     1       1.178   3.342  18.421  0.00  0.00    +0.000 A 
ATOM     23  C   UNL     1       2.068   3.978  17.552  0.00  0.00    +0.000 A 
ENDBRANCH  17  18
ENDBRANCH  16  17
ENDBRANCH   4  16
TORSDOF 5
ENDMDL
MODEL 9
REMARK VINA RESULT:      -7.5      0.714      1.499
REMARK  Name = 
REMARK  6 active torsions:
REMARK  status: ('A' for Active; 'I' for Inactive)
REMARK    1  A    between atoms: C_1  and  N_2
REMARK    2  A    between atoms: N_5  and  N_6
REMARK    3  A    between atoms: C_7  and  C_8
REMARK    4  A    between atoms: C_11  and  O_12
REMARK    5  A    between atoms: O_12  and  C_13
REMARK    6  A    between atoms: C_13  and  C_14
REMARK                            x       y       z     vdW  Elec       q    Type
REMARK                         _______ _______ _______ _____ _____    ______ ____
ROOT
ATOM      1  C   UNL     1       7.965   7.684  18.246  0.00  0.00    +0.000 A 
ATOM      2  C   UNL     1       7.023   7.737  17.219  0.00  0.00    +0.000 A 
ATOM      3  C   UNL     1       6.306   6.598  16.875  0.00  0.00    +0.000 A 
ATOM      4  C   UNL     1       6.559   5.389  17.526  0.00  0.00    +0.000 A 
ATOM      5  C   UNL     1       7.467   5.348  18.587  0.00  0.00    +0.000 A 
ATOM      6  C   UNL     1       8.178   6.498  18.951  0.00  0.00    +0.000 A 
ENDROOT
BRANCH   1   8
ATOM      7  N   UNL     1       8.448  10.029  17.999  0.00  0.00    +0.000 NA
ATOM      8  C   UNL     1       8.683   8.913  18.620  0.00  0.00    +0.000 C 
BRANCH   7  13
ATOM      9  C   UNL     1      10.958  14.566  20.103  0.00  0.00    +0.000 C 
ATOM     10  N   UNL     1      10.679  13.459  19.193  0.00  0.00    +0.000 NA
ATOM     11  C   UNL     1       9.307  13.566  18.654  0.00  0.00    +0.000 C 
ATOM     12  C   UNL     1       8.913  12.352  17.793  0.00  0.00    +0.000 C 
ATOM     13  N   UNL     1       9.054  11.097  18.560  0.00  0.00    +0.000 N 
ATOM     14  C   UNL     1      10.466  10.972  18.974  0.00  0.00    +0.000 C 
ATOM     15  C   UNL     1      10.844  12.162  19.878  0.00  0.00    +0.000 C 
ENDBRANCH   7  13
ENDBRANCH   1   8
BRANCH   4  16
ATOM     16  O   UNL     1       5.969   4.201  17.186  0.00  0.00    +0.000 OA
BRANCH  16  17
ATOM     17  C   UNL     1       4.726   4.349  16.494  0.00  0.00    +0.000 C 
BRANCH  17  18
ATOM     18  C   UNL     1       3.610   3.775  17.323  0.00  0.00    +0.000 A 
ATOM     19  C   UNL     1       2.493   4.555  17.652  0.00  0.00    +0.000 A 
ATOM     20  C   UNL     1       1.459   4.008  18.411  0.00  0.00    +0.000 A 
ATOM     21  C   UNL     1       1.529   2.685  18.842  0.00  0.00    +0.000 A 
ATOM     22  C   UNL     1       2.633   1.899  18.514  0.00  0.00    +0.000 A 
ATOM     23  C   UNL     1       3.673   2.443  17.756  0.00  0.00    +0.000 A 
ENDBRANCH  17  18
ENDBRANCH  16  17
ENDBRANCH   4  16
TORSDOF 5
ENDMDL
