MODEL 1
REMARK VINA RESULT:      -9.4      0.000      0.000
REMARK  Name = 
REMARK  4 active torsions:
REMARK  status: ('A' for Active; 'I' for Inactive)
REMARK    1  A    between atoms: C_1  and  N_2
REMARK    2  A    between atoms: C_6  and  C_7
REMARK    3  A    between atoms: C_9  and  C_10
REMARK    4  A    between atoms: C_14  and  C_15
REMARK                            x       y       z     vdW  Elec       q    Type
REMARK                         _______ _______ _______ _____ _____    ______ ____
ROOT
ATOM      1  C   UNL     1       2.407   1.836  19.467  0.00  0.00    +0.000 C 
ATOM      2  N   UNL     1       2.473   3.251  19.151  0.00  0.00    +0.000 N 
ATOM      3  C   UNL     1       2.462   3.746  17.871  0.00  0.00    +0.000 C 
ATOM      4  N   UNL     1       2.669   3.023  16.825  0.00  0.00    +0.000 NA
ATOM      5  N   UNL     1       2.301   5.104  17.729  0.00  0.00    +0.000 N 
ATOM      6  C   UNL     1       3.233   5.865  18.602  0.00  0.00    +0.000 C 
ATOM      7  C   UNL     1       3.070   7.418  18.594  0.00  0.00    +0.000 C 
ATOM      8  N   UNL     1       2.080   7.722  19.603  0.00  0.00    +0.000 N 
ATOM      9  C   UNL     1       1.352   8.873  19.565  0.00  0.00    +0.000 A 
ATOM     10  N   UNL     1       1.672   9.797  18.642  0.00  0.00    +0.000 NA
ATOM     11  C   UNL     1       0.961  10.939  18.628  0.00  0.00    +0.000 A 
ATOM     12  C   UNL     1      -0.050  11.210  19.513  0.00  0.00    +0.000 A 
ATOM     13  C   UNL     1      -0.304  10.218  20.424  0.00  0.00    +0.000 A 
ATOM     14  N   UNL     1       0.370   9.052  20.464  0.00  0.00    +0.000 NA
ATOM     15  C   UNL     1       1.622   6.528  20.274  0.00  0.00    +0.000 C 
ATOM     16  C   UNL     1       2.764   5.517  20.023  0.00  0.00    +0.000 C 
ATOM     17  C   UNL     1       2.141   4.139  20.151  0.00  0.00    +0.000 C 
ATOM     18  O   UNL     1       1.394   3.851  21.088  0.00  0.00    +0.000 OA
ATOM     19  H   UNL     1       2.866   2.056  17.086  0.00  0.00    +0.000 HD
ATOM     20  H   UNL     1       2.382   5.349  16.748  0.00  0.00    +0.000 HD
ENDROOT
BRANCH   6  21
ATOM     21  C   UNL     1       4.642   5.584  18.061  0.00  0.00    +0.000 A 
ATOM     22  C   UNL     1       4.987   5.866  16.743  0.00  0.00    +0.000 A 
ATOM     23  C   UNL     1       6.050   5.053  16.257  0.00  0.00    +0.000 A 
ATOM     24  C   UNL     1       6.752   4.537  17.330  0.00  0.00    +0.000 A 
ATOM     25  S   UNL     1       5.911   4.762  18.833  0.00  0.00    +0.000 S 
BRANCH  23  26
ATOM     26  C   UNL     1       6.280   4.723  14.841  0.00  0.00    +0.000 A 
ATOM     27  C   UNL     1       7.489   5.131  14.235  0.00  0.00    +0.000 A 
ATOM     28  C   UNL     1       7.744   4.917  12.876  0.00  0.00    +0.000 A 
ATOM     29  C   UNL     1       6.783   4.299  12.085  0.00  0.00    +0.000 A 
ATOM     30  C   UNL     1       5.577   3.889  12.664  0.00  0.00    +0.000 A 
ATOM     31  C   UNL     1       5.327   4.094  14.035  0.00  0.00    +0.000 A 
BRANCH  30  32
ATOM     32  C   UNL     1       4.584   3.275  11.850  0.00  0.00    +0.000 C 
ATOM     33  N   UNL     1       3.773   2.780  11.181  0.00  0.00    +0.000 NA
ENDBRANCH  30  32
ENDBRANCH  23  26
ENDBRANCH   6  21
TORSDOF 3
ENDMDL
MODEL 2
REMARK VINA RESULT:      -7.3      1.373      1.791
REMARK  Name = 
REMARK  4 active torsions:
REMARK  status: ('A' for Active; 'I' for Inactive)
REMARK    1  A    between atoms: C_1  and  N_2
REMARK    2  A    between atoms: C_6  and  C_7
REMARK    3  A    between atoms: C_9  and  C_10
REMARK    4  A    between atoms: C_14  and  C_15
REMARK                            x       y       z     vdW  Elec       q    Type
REMARK                         _______ _______ _______ _____ _____    ______ ____
ROOT
ATOM      1  C   UNL     1       2.117   1.576  19.353  0.00  0.00    +0.000 C 
ATOM      2  N   UNL     1       2.188   3.023  19.267  0.00  0.00    +0.000 N 
ATOM      3  C   UNL     1       2.203   3.715  18.082  0.00  0.00    +0.000 C 
ATOM      4  N   UNL     1       2.433   3.167  16.939  0.00  0.00    +0.000 NA
ATOM      5  N   UNL     1       2.043   5.078  18.154  0.00  0.00    +0.000 N 
ATOM      6  C   UNL     1       2.957   5.690  19.155  0.00  0.00    +0.000 C 
ATOM      7  C   UNL     1       2.792   7.224  19.390  0.00  0.00    +0.000 C 
ATOM      8  N   UNL     1       1.780   7.367  20.415  0.00  0.00    +0.000 N 
ATOM      9  C   UNL     1       1.052   8.511  20.544  0.00  0.00    +0.000 A 
ATOM     10  N   UNL     1       1.390   9.569  19.786  0.00  0.00    +0.000 NA
ATOM     11  C   UNL     1       0.679  10.700  19.938  0.00  0.00    +0.000 A 
ATOM     12  C   UNL     1      -0.351  10.830  20.834  0.00  0.00    +0.000 A 
ATOM     13  C   UNL     1      -0.623   9.706  21.570  0.00  0.00    +0.000 A 
ATOM     14  N   UNL     1       0.052   8.547  21.439  0.00  0.00    +0.000 NA
ATOM     15  C   UNL     1       1.310   6.083  20.878  0.00  0.00    +0.000 C 
ATOM     16  C   UNL     1       2.458   5.121  20.493  0.00  0.00    +0.000 C 
ATOM     17  C   UNL     1       1.834   3.742  20.388  0.00  0.00    +0.000 C 
ATOM     18  O   UNL     1       1.069   3.311  21.251  0.00  0.00    +0.000 OA
ATOM     19  H   UNL     1       2.625   2.170  17.047  0.00  0.00    +0.000 HD
ATOM     20  H   UNL     1       2.145   5.476  17.226  0.00  0.00    +0.000 HD
ENDROOT
BRANCH   6  21
ATOM     21  C   UNL     1       4.377   5.495  18.607  0.00  0.00    +0.000 A 
ATOM     22  C   UNL     1       4.703   5.821  17.294  0.00  0.00    +0.000 A 
ATOM     23  C   UNL     1       5.806   5.076  16.790  0.00  0.00    +0.000 A 
ATOM     24  C   UNL     1       6.537   4.576  17.851  0.00  0.00    +0.000 A 
ATOM     25  S   UNL     1       5.690   4.725  19.359  0.00  0.00    +0.000 S 
BRANCH  23  26
ATOM     26  C   UNL     1       6.048   4.787  15.366  0.00  0.00    +0.000 A 
ATOM     27  C   UNL     1       5.438   3.651  14.790  0.00  0.00    +0.000 A 
ATOM     28  C   UNL     1       5.680   3.274  13.464  0.00  0.00    +0.000 A 
ATOM     29  C   UNL     1       6.556   4.021  12.686  0.00  0.00    +0.000 A 
ATOM     30  C   UNL     1       7.174   5.149  13.238  0.00  0.00    +0.000 A 
ATOM     31  C   UNL     1       6.918   5.534  14.569  0.00  0.00    +0.000 A 
BRANCH  30  32
ATOM     32  C   UNL     1       8.086   5.902  12.447  0.00  0.00    +0.000 C 
ATOM     33  N   UNL     1       8.826   6.520  11.797  0.00  0.00    +0.000 NA
ENDBRANCH  30  32
ENDBRANCH  23  26
ENDBRANCH   6  21
TORSDOF 3
ENDMDL
MODEL 3
REMARK VINA RESULT:      -7.0      3.942      7.079
REMARK  Name = 
REMARK  4 active torsions:
REMARK  status: ('A' for Active; 'I' for Inactive)
REMARK    1  A    between atoms: C_1  and  N_2
REMARK    2  A    between atoms: C_6  and  C_7
REMARK    3  A    between atoms: C_9  and  C_10
REMARK    4  A    between atoms: C_14  and  C_15
REMARK                            x       y       z     vdW  Elec       q    Type
REMARK                         _______ _______ _______ _____ _____    ______ ____
ROOT
ATOM      1  C   UNL     1      -3.128   9.658  17.850  0.00  0.00    +0.000 C 
ATOM      2  N   UNL     1      -2.011  10.426  18.369  0.00  0.00    +0.000 N 
ATOM      3  C   UNL     1      -0.721  10.291  17.920  0.00  0.00    +0.000 C 
ATOM      4  N   UNL     1      -0.315   9.300  17.204  0.00  0.00    +0.000 NA
ATOM      5  N   UNL     1       0.186  11.235  18.338  0.00  0.00    +0.000 N 
ATOM      6  C   UNL     1       0.139  11.433  19.810  0.00  0.00    +0.000 C 
ATOM      7  C   UNL     1       1.061  12.555  20.384  0.00  0.00    +0.000 C 
ATOM      8  N   UNL     1       0.290  13.778  20.323  0.00  0.00    +0.000 N 
ATOM      9  C   UNL     1       0.892  15.000  20.289  0.00  0.00    +0.000 A 
ATOM     10  N   UNL     1       2.225  15.056  20.458  0.00  0.00    +0.000 NA
ATOM     11  C   UNL     1       2.806  16.269  20.446  0.00  0.00    +0.000 A 
ATOM     12  C   UNL     1       2.108  17.439  20.290  0.00  0.00    +0.000 A 
ATOM     13  C   UNL     1       0.755  17.289  20.132  0.00  0.00    +0.000 A 
ATOM     14  N   UNL     1       0.133  16.094  20.121  0.00  0.00    +0.000 NA
ATOM     15  C   UNL     1      -1.036  13.544  19.802  0.00  0.00    +0.000 C 
ATOM     16  C   UNL     1      -1.256  12.033  20.049  0.00  0.00    +0.000 C 
ATOM     17  C   UNL     1      -2.303  11.591  19.044  0.00  0.00    +0.000 C 
ATOM     18  O   UNL     1      -3.334  12.238  18.856  0.00  0.00    +0.000 OA
ATOM     19  H   UNL     1      -1.071   8.632  17.049  0.00  0.00    +0.000 HD
ATOM     20  H   UNL     1       1.109  10.984  17.998  0.00  0.00    +0.000 HD
ENDROOT
BRANCH   6  21
ATOM     21  C   UNL     1       0.633  10.119  20.430  0.00  0.00    +0.000 A 
ATOM     22  C   UNL     1       1.721   9.429  19.904  0.00  0.00    +0.000 A 
ATOM     23  C   UNL     1       1.685   8.033  20.182  0.00  0.00    +0.000 A 
ATOM     24  C   UNL     1       0.854   7.808  21.263  0.00  0.00    +0.000 A 
ATOM     25  S   UNL     1      -0.096   9.206  21.661  0.00  0.00    +0.000 S 
BRANCH  23  26
ATOM     26  C   UNL     1       2.335   6.994  19.365  0.00  0.00    +0.000 A 
ATOM     27  C   UNL     1       2.180   5.640  19.739  0.00  0.00    +0.000 A 
ATOM     28  C   UNL     1       2.827   4.606  19.054  0.00  0.00    +0.000 A 
ATOM     29  C   UNL     1       3.661   4.905  17.984  0.00  0.00    +0.000 A 
ATOM     30  C   UNL     1       3.831   6.240  17.599  0.00  0.00    +0.000 A 
ATOM     31  C   UNL     1       3.168   7.279  18.281  0.00  0.00    +0.000 A 
BRANCH  30  32
ATOM     32  C   UNL     1       4.701   6.549  16.516  0.00  0.00    +0.000 C 
ATOM     33  N   UNL     1       5.417   6.803  15.635  0.00  0.00    +0.000 NA
ENDBRANCH  30  32
ENDBRANCH  23  26
ENDBRANCH   6  21
TORSDOF 3
ENDMDL
MODEL 4
REMARK VINA RESULT:      -6.9      8.646     10.528
REMARK  Name = 
REMARK  4 active torsions:
REMARK  status: ('A' for Active; 'I' for Inactive)
REMARK    1  A    between atoms: C_1  and  N_2
REMARK    2  A    between atoms: C_6  and  C_7
REMARK    3  A    between atoms: C_9  and  C_10
REMARK    4  A    between atoms: C_14  and  C_15
REMARK                            x       y       z     vdW  Elec       q    Type
REMARK                         _______ _______ _______ _____ _____    ______ ____
ROOT
ATOM      1  C   UNL     1      -1.665  15.304  22.670  0.00  0.00    +0.000 C 
ATOM      2  N   UNL     1      -0.573  14.963  21.778  0.00  0.00    +0.000 N 
ATOM      3  C   UNL     1      -0.713  14.831  20.419  0.00  0.00    +0.000 C 
ATOM      4  N   UNL     1      -1.852  14.722  19.827  0.00  0.00    +0.000 NA
ATOM      5  N   UNL     1       0.442  14.731  19.680  0.00  0.00    +0.000 N 
ATOM      6  C   UNL     1       1.366  13.708  20.235  0.00  0.00    +0.000 C 
ATOM      7  C   UNL     1       2.753  13.578  19.530  0.00  0.00    +0.000 C 
ATOM      8  N   UNL     1       3.624  14.533  20.180  0.00  0.00    +0.000 N 
ATOM      9  C   UNL     1       4.728  15.032  19.556  0.00  0.00    +0.000 A 
ATOM     10  N   UNL     1       5.077  14.509  18.367  0.00  0.00    +0.000 NA
ATOM     11  C   UNL     1       6.181  14.993  17.771  0.00  0.00    +0.000 A 
ATOM     12  C   UNL     1       6.970  15.970  18.321  0.00  0.00    +0.000 A 
ATOM     13  C   UNL     1       6.545  16.440  19.537  0.00  0.00    +0.000 A 
ATOM     14  N   UNL     1       5.437  15.997  20.162  0.00  0.00    +0.000 NA
ATOM     15  C   UNL     1       2.945  15.232  21.245  0.00  0.00    +0.000 C 
ATOM     16  C   UNL     1       1.771  14.289  21.599  0.00  0.00    +0.000 C 
ATOM     17  C   UNL     1       0.710  15.163  22.242  0.00  0.00    +0.000 C 
ATOM     18  O   UNL     1       0.990  15.986  23.114  0.00  0.00    +0.000 OA
ATOM     19  H   UNL     1      -2.614  14.719  20.505  0.00  0.00    +0.000 HD
ATOM     20  H   UNL     1       0.202  14.567  18.707  0.00  0.00    +0.000 HD
ENDROOT
BRANCH   6  21
ATOM     21  C   UNL     1       0.665  12.356  20.044  0.00  0.00    +0.000 A 
ATOM     22  C   UNL     1       0.122  11.983  18.818  0.00  0.00    +0.000 A 
ATOM     23  C   UNL     1      -0.945  11.048  18.940  0.00  0.00    +0.000 A 
ATOM     24  C   UNL     1      -0.856  10.418  20.167  0.00  0.00    +0.000 A 
ATOM     25  S   UNL     1       0.265  11.210  21.231  0.00  0.00    +0.000 S 
BRANCH  23  26
ATOM     26  C   UNL     1      -2.032  10.877  17.962  0.00  0.00    +0.000 A 
ATOM     27  C   UNL     1      -1.817  10.037  16.847  0.00  0.00    +0.000 A 
ATOM     28  C   UNL     1      -2.776   9.884  15.840  0.00  0.00    +0.000 A 
ATOM     29  C   UNL     1      -3.973  10.584  15.919  0.00  0.00    +0.000 A 
ATOM     30  C   UNL     1      -4.206  11.425  17.014  0.00  0.00    +0.000 A 
ATOM     31  C   UNL     1      -3.245  11.567  18.033  0.00  0.00    +0.000 A 
BRANCH  30  32
ATOM     32  C   UNL     1      -5.425  12.158  17.085  0.00  0.00    +0.000 C 
ATOM     33  N   UNL     1      -6.423  12.750  17.141  0.00  0.00    +0.000 NA
ENDBRANCH  30  32
ENDBRANCH  23  26
ENDBRANCH   6  21
TORSDOF 3
ENDMDL
MODEL 5
REMARK VINA RESULT:      -6.8      4.845      8.417
REMARK  Name = 
REMARK  4 active torsions:
REMARK  status: ('A' for Active; 'I' for Inactive)
REMARK    1  A    between atoms: C_1  and  N_2
REMARK    2  A    between atoms: C_6  and  C_7
REMARK    3  A    between atoms: C_9  and  C_10
REMARK    4  A    between atoms: C_14  and  C_15
REMARK                            x       y       z     vdW  Elec       q    Type
REMARK                         _______ _______ _______ _____ _____    ______ ____
ROOT
ATOM      1  C   UNL     1       2.248  13.361  18.522  0.00  0.00    +0.000 C 
ATOM      2  N   UNL     1       1.150  13.069  19.424  0.00  0.00    +0.000 N 
ATOM      3  C   UNL     1       1.223  13.222  20.786  0.00  0.00    +0.000 C 
ATOM      4  N   UNL     1       2.329  13.370  21.429  0.00  0.00    +0.000 NA
ATOM      5  N   UNL     1       0.044  13.127  21.488  0.00  0.00    +0.000 N 
ATOM      6  C   UNL     1      -0.724  11.910  21.115  0.00  0.00    +0.000 C 
ATOM      7  C   UNL     1      -2.127  11.751  21.781  0.00  0.00    +0.000 C 
ATOM      8  N   UNL     1      -3.059  12.448  20.922  0.00  0.00    +0.000 N 
ATOM      9  C   UNL     1      -4.248  12.919  21.393  0.00  0.00    +0.000 A 
ATOM     10  N   UNL     1      -4.606  12.599  22.649  0.00  0.00    +0.000 NA
ATOM     11  C   UNL     1      -5.792  13.051  23.096  0.00  0.00    +0.000 A 
ATOM     12  C   UNL     1      -6.651  13.798  22.333  0.00  0.00    +0.000 A 
ATOM     13  C   UNL     1      -6.211  14.071  21.064  0.00  0.00    +0.000 A 
ATOM     14  N   UNL     1      -5.024  13.654  20.580  0.00  0.00    +0.000 NA
ATOM     15  C   UNL     1      -2.401  13.003  19.764  0.00  0.00    +0.000 C 
ATOM     16  C   UNL     1      -1.109  12.161  19.649  0.00  0.00    +0.000 C 
ATOM     17  C   UNL     1      -0.117  13.016  18.884  0.00  0.00    +0.000 C 
ATOM     18  O   UNL     1      -0.435  13.613  17.854  0.00  0.00    +0.000 OA
ATOM     19  H   UNL     1       3.126  13.329  20.793  0.00  0.00    +0.000 HD
ATOM     20  H   UNL     1       0.242  13.186  22.481  0.00  0.00    +0.000 HD
ENDROOT
BRANCH   6  21
ATOM     21  C   UNL     1       0.112  10.717  21.599  0.00  0.00    +0.000 A 
ATOM     22  C   UNL     1       1.043  10.096  20.772  0.00  0.00    +0.000 A 
ATOM     23  C   UNL     1       1.281   8.736  21.120  0.00  0.00    +0.000 A 
ATOM     24  C   UNL     1       0.891   8.529  22.429  0.00  0.00    +0.000 A 
ATOM     25  S   UNL     1      -0.044   9.854  23.052  0.00  0.00    +0.000 S 
BRANCH  23  26
ATOM     26  C   UNL     1       1.750   7.697  20.188  0.00  0.00    +0.000 A 
ATOM     27  C   UNL     1       2.107   8.074  18.874  0.00  0.00    +0.000 A 
ATOM     28  C   UNL     1       2.492   7.133  17.913  0.00  0.00    +0.000 A 
ATOM     29  C   UNL     1       2.514   5.784  18.243  0.00  0.00    +0.000 A 
ATOM     30  C   UNL     1       2.161   5.387  19.538  0.00  0.00    +0.000 A 
ATOM     31  C   UNL     1       1.787   6.338  20.508  0.00  0.00    +0.000 A 
BRANCH  30  32
ATOM     32  C   UNL     1       2.164   4.003  19.870  0.00  0.00    +0.000 C 
ATOM     33  N   UNL     1       2.159   2.873  20.143  0.00  0.00    +0.000 NA
ENDBRANCH  30  32
ENDBRANCH  23  26
ENDBRANCH   6  21
TORSDOF 3
ENDMDL
MODEL 6
REMARK VINA RESULT:      -6.8      3.978      7.027
REMARK  Name = 
REMARK  4 active torsions:
REMARK  status: ('A' for Active; 'I' for Inactive)
REMARK    1  A    between atoms: C_1  and  N_2
REMARK    2  A    between atoms: C_6  and  C_7
REMARK    3  A    between atoms: C_9  and  C_10
REMARK    4  A    between atoms: C_14  and  C_15
REMARK                            x       y       z     vdW  Elec       q    Type
REMARK                         _______ _______ _______ _____ _____    ______ ____
ROOT
ATOM      1  C   UNL     1      -3.170   9.641  17.836  0.00  0.00    +0.000 C 
ATOM      2  N   UNL     1      -2.029  10.392  18.325  0.00  0.00    +0.000 N 
ATOM      3  C   UNL     1      -0.754  10.240  17.840  0.00  0.00    +0.000 C 
ATOM      4  N   UNL     1      -0.381   9.245  17.112  0.00  0.00    +0.000 NA
ATOM      5  N   UNL     1       0.178  11.171  18.234  0.00  0.00    +0.000 N 
ATOM      6  C   UNL     1       0.174  11.367  19.708  0.00  0.00    +0.000 C 
ATOM      7  C   UNL     1       1.127  12.475  20.258  0.00  0.00    +0.000 C 
ATOM      8  N   UNL     1       0.372  13.708  20.220  0.00  0.00    +0.000 N 
ATOM      9  C   UNL     1       0.990  14.922  20.172  0.00  0.00    +0.000 A 
ATOM     10  N   UNL     1       2.327  14.960  20.304  0.00  0.00    +0.000 NA
ATOM     11  C   UNL     1       2.925  16.165  20.277  0.00  0.00    +0.000 A 
ATOM     12  C   UNL     1       2.239  17.344  20.143  0.00  0.00    +0.000 A 
ATOM     13  C   UNL     1       0.880  17.213  20.022  0.00  0.00    +0.000 A 
ATOM     14  N   UNL     1       0.241  16.026  20.026  0.00  0.00    +0.000 NA
ATOM     15  C   UNL     1      -0.971  13.494  19.735  0.00  0.00    +0.000 C 
ATOM     16  C   UNL     1      -1.205  11.986  19.986  0.00  0.00    +0.000 C 
ATOM     17  C   UNL     1      -2.285  11.560  19.010  0.00  0.00    +0.000 C 
ATOM     18  O   UNL     1      -3.313  12.221  18.852  0.00  0.00    +0.000 OA
ATOM     19  H   UNL     1      -1.150   8.588  16.976  0.00  0.00    +0.000 HD
ATOM     20  H   UNL     1       1.087  10.908  17.869  0.00  0.00    +0.000 HD
ENDROOT
BRANCH   6  21
ATOM     21  C   UNL     1       0.667  10.045  20.312  0.00  0.00    +0.000 A 
ATOM     22  C   UNL     1       1.782   9.384  19.806  0.00  0.00    +0.000 A 
ATOM     23  C   UNL     1       1.758   7.981  20.048  0.00  0.00    +0.000 A 
ATOM     24  C   UNL     1       0.894   7.717  21.094  0.00  0.00    +0.000 A 
ATOM     25  S   UNL     1      -0.089   9.091  21.495  0.00  0.00    +0.000 S 
BRANCH  23  26
ATOM     26  C   UNL     1       2.450   6.972  19.229  0.00  0.00    +0.000 A 
ATOM     27  C   UNL     1       3.286   7.408  18.177  0.00  0.00    +0.000 A 
ATOM     28  C   UNL     1       3.918   6.507  17.313  0.00  0.00    +0.000 A 
ATOM     29  C   UNL     1       3.713   5.142  17.473  0.00  0.00    +0.000 A 
ATOM     30  C   UNL     1       2.886   4.688  18.506  0.00  0.00    +0.000 A 
ATOM     31  C   UNL     1       2.261   5.596  19.384  0.00  0.00    +0.000 A 
BRANCH  30  32
ATOM     32  C   UNL     1       2.660   3.291  18.657  0.00  0.00    +0.000 C 
ATOM     33  N   UNL     1       2.468   2.151  18.779  0.00  0.00    +0.000 NA
ENDBRANCH  30  32
ENDBRANCH  23  26
ENDBRANCH   6  21
TORSDOF 3
ENDMDL
MODEL 7
REMARK VINA RESULT:      -6.8      6.092     10.413
REMARK  Name = 
REMARK  4 active torsions:
REMARK  status: ('A' for Active; 'I' for Inactive)
REMARK    1  A    between atoms: C_1  and  N_2
REMARK    2  A    between atoms: C_6  and  C_7
REMARK    3  A    between atoms: C_9  and  C_10
REMARK    4  A    between atoms: C_14  and  C_15
REMARK                            x       y       z     vdW  Elec       q    Type
REMARK                         _______ _______ _______ _____ _____    ______ ____
ROOT
ATOM      1  C   UNL     1      -6.030  12.432  21.590  0.00  0.00    +0.000 C 
ATOM      2  N   UNL     1      -4.789  13.125  21.883  0.00  0.00    +0.000 N 
ATOM      3  C   UNL     1      -4.284  14.140  21.110  0.00  0.00    +0.000 C 
ATOM      4  N   UNL     1      -4.694  14.400  19.917  0.00  0.00    +0.000 NA
ATOM      5  N   UNL     1      -3.228  14.852  21.629  0.00  0.00    +0.000 N 
ATOM      6  C   UNL     1      -2.150  13.957  22.128  0.00  0.00    +0.000 C 
ATOM      7  C   UNL     1      -0.943  14.658  22.827  0.00  0.00    +0.000 C 
ATOM      8  N   UNL     1      -1.307  14.786  24.221  0.00  0.00    +0.000 N 
ATOM      9  C   UNL     1      -0.741  15.732  25.023  0.00  0.00    +0.000 A 
ATOM     10  N   UNL     1       0.276  16.459  24.527  0.00  0.00    +0.000 NA
ATOM     11  C   UNL     1       0.842  17.374  25.333  0.00  0.00    +0.000 A 
ATOM     12  C   UNL     1       0.449  17.584  26.630  0.00  0.00    +0.000 A 
ATOM     13  C   UNL     1      -0.588  16.795  27.055  0.00  0.00    +0.000 A 
ATOM     14  N   UNL     1      -1.196  15.878  26.277  0.00  0.00    +0.000 NA
ATOM     15  C   UNL     1      -2.605  14.211  24.486  0.00  0.00    +0.000 C 
ATOM     16  C   UNL     1      -2.807  13.228  23.311  0.00  0.00    +0.000 C 
ATOM     17  C   UNL     1      -4.306  13.041  23.171  0.00  0.00    +0.000 C 
ATOM     18  O   UNL     1      -5.025  12.830  24.148  0.00  0.00    +0.000 OA
ATOM     19  H   UNL     1      -5.413  13.736  19.629  0.00  0.00    +0.000 HD
ATOM     20  H   UNL     1      -2.904  15.520  20.937  0.00  0.00    +0.000 HD
ENDROOT
BRANCH   6  21
ATOM     21  C   UNL     1      -1.575  13.257  20.889  0.00  0.00    +0.000 A 
ATOM     22  C   UNL     1      -1.480  11.871  20.814  0.00  0.00    +0.000 A 
ATOM     23  C   UNL     1      -0.448  11.428  19.938  0.00  0.00    +0.000 A 
ATOM     24  C   UNL     1      -0.130  12.448  19.061  0.00  0.00    +0.000 A 
ATOM     25  S   UNL     1      -0.819  13.967  19.545  0.00  0.00    +0.000 S 
BRANCH  23  26
ATOM     26  C   UNL     1       0.245  10.133  20.039  0.00  0.00    +0.000 A 
ATOM     27  C   UNL     1       0.112   9.382  21.228  0.00  0.00    +0.000 A 
ATOM     28  C   UNL     1       0.799   8.179  21.423  0.00  0.00    +0.000 A 
ATOM     29  C   UNL     1       1.653   7.706  20.435  0.00  0.00    +0.000 A 
ATOM     30  C   UNL     1       1.802   8.436  19.250  0.00  0.00    +0.000 A 
ATOM     31  C   UNL     1       1.099   9.640  19.049  0.00  0.00    +0.000 A 
BRANCH  30  32
ATOM     32  C   UNL     1       2.692   7.962  18.245  0.00  0.00    +0.000 C 
ATOM     33  N   UNL     1       3.419   7.568  17.427  0.00  0.00    +0.000 NA
ENDBRANCH  30  32
ENDBRANCH  23  26
ENDBRANCH   6  21
TORSDOF 3
ENDMDL
MODEL 8
REMARK VINA RESULT:      -6.7      4.141      7.120
REMARK  Name = 
REMARK  4 active torsions:
REMARK  status: ('A' for Active; 'I' for Inactive)
REMARK    1  A    between atoms: C_1  and  N_2
REMARK    2  A    between atoms: C_6  and  C_7
REMARK    3  A    between atoms: C_9  and  C_10
REMARK    4  A    between atoms: C_14  and  C_15
REMARK                            x       y       z     vdW  Elec       q    Type
REMARK                         _______ _______ _______ _____ _____    ______ ____
ROOT
ATOM      1  C   UNL     1      -2.672   9.770  17.554  0.00  0.00    +0.000 C 
ATOM      2  N   UNL     1      -1.700  10.434  18.401  0.00  0.00    +0.000 N 
ATOM      3  C   UNL     1      -0.346  10.394  18.181  0.00  0.00    +0.000 C 
ATOM      4  N   UNL     1       0.223   9.557  17.383  0.00  0.00    +0.000 NA
ATOM      5  N   UNL     1       0.433  11.250  18.924  0.00  0.00    +0.000 N 
ATOM      6  C   UNL     1       0.113  11.169  20.373  0.00  0.00    +0.000 C 
ATOM      7  C   UNL     1       0.870  12.170  21.302  0.00  0.00    +0.000 C 
ATOM      8  N   UNL     1       0.074  13.377  21.324  0.00  0.00    +0.000 N 
ATOM      9  C   UNL     1       0.622  14.588  21.626  0.00  0.00    +0.000 A 
ATOM     10  N   UNL     1       1.899  14.621  22.045  0.00  0.00    +0.000 NA
ATOM     11  C   UNL     1       2.422  15.818  22.362  0.00  0.00    +0.000 A 
ATOM     12  C   UNL     1       1.717  16.992  22.296  0.00  0.00    +0.000 A 
ATOM     13  C   UNL     1       0.422  16.866  21.866  0.00  0.00    +0.000 A 
ATOM     14  N   UNL     1      -0.139  15.689  21.522  0.00  0.00    +0.000 NA
ATOM     15  C   UNL     1      -1.126  13.236  20.533  0.00  0.00    +0.000 C 
ATOM     16  C   UNL     1      -1.325  11.705  20.456  0.00  0.00    +0.000 C 
ATOM     17  C   UNL     1      -2.155  11.451  19.211  0.00  0.00    +0.000 C 
ATOM     18  O   UNL     1      -3.162  12.115  18.958  0.00  0.00    +0.000 OA
ATOM     19  H   UNL     1      -0.465   8.925  16.972  0.00  0.00    +0.000 HD
ATOM     20  H   UNL     1       1.411  11.073  18.720  0.00  0.00    +0.000 HD
ENDROOT
BRANCH   6  21
ATOM     21  C   UNL     1       0.541   9.765  20.823  0.00  0.00    +0.000 A 
ATOM     22  C   UNL     1       1.749   9.207  20.419  0.00  0.00    +0.000 A 
ATOM     23  C   UNL     1       1.734   7.783  20.413  0.00  0.00    +0.000 A 
ATOM     24  C   UNL     1       0.712   7.339  21.230  0.00  0.00    +0.000 A 
ATOM     25  S   UNL     1      -0.375   8.618  21.676  0.00  0.00    +0.000 S 
BRANCH  23  26
ATOM     26  C   UNL     1       2.593   6.934  19.571  0.00  0.00    +0.000 A 
ATOM     27  C   UNL     1       2.908   7.370  18.265  0.00  0.00    +0.000 A 
ATOM     28  C   UNL     1       3.658   6.583  17.384  0.00  0.00    +0.000 A 
ATOM     29  C   UNL     1       4.099   5.329  17.787  0.00  0.00    +0.000 A 
ATOM     30  C   UNL     1       3.796   4.877  19.077  0.00  0.00    +0.000 A 
ATOM     31  C   UNL     1       3.052   5.675  19.967  0.00  0.00    +0.000 A 
BRANCH  30  32
ATOM     32  C   UNL     1       4.231   3.583  19.483  0.00  0.00    +0.000 C 
ATOM     33  N   UNL     1       4.588   2.530  19.821  0.00  0.00    +0.000 NA
ENDBRANCH  30  32
ENDBRANCH  23  26
ENDBRANCH   6  21
TORSDOF 3
ENDMDL
MODEL 9
REMARK VINA RESULT:      -6.7      6.386      9.789
REMARK  Name = 
REMARK  4 active torsions:
REMARK  status: ('A' for Active; 'I' for Inactive)
REMARK    1  A    between atoms: C_1  and  N_2
REMARK    2  A    between atoms: C_6  and  C_7
REMARK    3  A    between atoms: C_9  and  C_10
REMARK    4  A    between atoms: C_14  and  C_15
REMARK                            x       y       z     vdW  Elec       q    Type
REMARK                         _______ _______ _______ _____ _____    ______ ____
ROOT
ATOM      1  C   UNL     1       1.634   8.503  19.842  0.00  0.00    +0.000 C 
ATOM      2  N   UNL     1       0.732   9.604  20.122  0.00  0.00    +0.000 N 
ATOM      3  C   UNL     1      -0.069  10.192  19.174  0.00  0.00    +0.000 C 
ATOM      4  N   UNL     1       0.087  10.025  17.906  0.00  0.00    +0.000 NA
ATOM      5  N   UNL     1      -1.031  11.064  19.624  0.00  0.00    +0.000 N 
ATOM      6  C   UNL     1      -0.468  12.070  20.563  0.00  0.00    +0.000 C 
ATOM      7  C   UNL     1      -1.492  13.053  21.213  0.00  0.00    +0.000 C 
ATOM      8  N   UNL     1      -1.975  12.397  22.407  0.00  0.00    +0.000 N 
ATOM      9  C   UNL     1      -3.179  12.717  22.961  0.00  0.00    +0.000 A 
ATOM     10  N   UNL     1      -3.853  13.764  22.453  0.00  0.00    +0.000 NA
ATOM     11  C   UNL     1      -5.029  14.085  23.021  0.00  0.00    +0.000 A 
ATOM     12  C   UNL     1      -5.558  13.415  24.094  0.00  0.00    +0.000 A 
ATOM     13  C   UNL     1      -4.802  12.367  24.551  0.00  0.00    +0.000 A 
ATOM     14  N   UNL     1      -3.627  11.999  24.003  0.00  0.00    +0.000 NA
ATOM     15  C   UNL     1      -1.341  11.114  22.602  0.00  0.00    +0.000 C 
ATOM     16  C   UNL     1      -0.039  11.231  21.777  0.00  0.00    +0.000 C 
ATOM     17  C   UNL     1       0.372   9.811  21.436  0.00  0.00    +0.000 C 
ATOM     18  O   UNL     1       0.378   8.917  22.284  0.00  0.00    +0.000 OA
ATOM     19  H   UNL     1       0.894   9.429  17.716  0.00  0.00    +0.000 HD
ATOM     20  H   UNL     1      -1.502  11.481  18.828  0.00  0.00    +0.000 HD
ENDROOT
BRANCH   6  21
ATOM     21  C   UNL     1       0.485  12.939  19.730  0.00  0.00    +0.000 A 
ATOM     22  C   UNL     1       1.857  12.947  19.963  0.00  0.00    +0.000 A 
ATOM     23  C   UNL     1       2.486  14.158  19.559  0.00  0.00    +0.000 A 
ATOM     24  C   UNL     1       1.678  14.804  18.643  0.00  0.00    +0.000 A 
ATOM     25  S   UNL     1       0.083  14.120  18.579  0.00  0.00    +0.000 S 
BRANCH  23  26
ATOM     26  C   UNL     1       3.738  14.687  20.126  0.00  0.00    +0.000 A 
ATOM     27  C   UNL     1       4.086  14.337  21.449  0.00  0.00    +0.000 A 
ATOM     28  C   UNL     1       5.222  14.859  22.078  0.00  0.00    +0.000 A 
ATOM     29  C   UNL     1       6.031  15.761  21.398  0.00  0.00    +0.000 A 
ATOM     30  C   UNL     1       5.702  16.125  20.086  0.00  0.00    +0.000 A 
ATOM     31  C   UNL     1       4.566  15.587  19.451  0.00  0.00    +0.000 A 
BRANCH  30  32
ATOM     32  C   UNL     1       6.520  17.064  19.397  0.00  0.00    +0.000 C 
ATOM     33  N   UNL     1       7.184  17.837  18.837  0.00  0.00    +0.000 NA
ENDBRANCH  30  32
ENDBRANCH  23  26
ENDBRANCH   6  21
TORSDOF 3
ENDMDL
