MODEL 1
REMARK VINA RESULT:      -6.7      0.000      0.000
REMARK  Name = 
REMARK  4 active torsions:
REMARK  status: ('A' for Active; 'I' for Inactive)
REMARK    1  A    between atoms: C_1  and  C_2
REMARK    2  A    between atoms: C_6  and  N_7
REMARK    3  A    between atoms: C_8  and  C_10
REMARK    4  A    between atoms: N_14  and  C_15
REMARK                            x       y       z     vdW  Elec       q    Type
REMARK                         _______ _______ _______ _____ _____    ______ ____
ROOT
ATOM      1  N   UNL     1       4.174   5.204  18.926  0.00  0.00    +0.000 N 
ATOM      2  C   UNL     1       5.460   4.722  18.758  0.00  0.00    +0.000 C 
ATOM      3  O   UNL     1       5.786   3.543  18.831  0.00  0.00    +0.000 OA
ATOM      4  H   UNL     1       4.027   6.194  18.858  0.00  0.00    +0.000 HD
ENDROOT
BRANCH   1  10
ATOM      5  C   UNL     1       1.496   2.569  21.905  0.00  0.00    +0.000 C 
ATOM      6  C   UNL     1       1.693   3.121  20.528  0.00  0.00    +0.000 A 
ATOM      7  C   UNL     1       0.809   2.840  19.497  0.00  0.00    +0.000 A 
ATOM      8  C   UNL     1       1.066   3.380  18.242  0.00  0.00    +0.000 A 
ATOM      9  C   UNL     1       2.194   4.177  18.058  0.00  0.00    +0.000 A 
ATOM     10  C   UNL     1       3.037   4.414  19.141  0.00  0.00    +0.000 A 
ATOM     11  N   UNL     1       2.786   3.896  20.354  0.00  0.00    +0.000 NA
ENDBRANCH   1  10
BRANCH   2  12
ATOM     12  C   UNL     1       6.452   5.763  18.469  0.00  0.00    +0.000 A 
ATOM     13  C   UNL     1       7.616   6.116  19.148  0.00  0.00    +0.000 A 
ATOM     14  C   UNL     1       8.223   7.203  18.479  0.00  0.00    +0.000 A 
ATOM     15  C   UNL     1       7.440   7.496  17.391  0.00  0.00    +0.000 A 
ATOM     16  N   UNL     1       6.376   6.631  17.387  0.00  0.00    +0.000 N 
ATOM     17  C   UNL     1       5.318   6.669  16.394  0.00  0.00    +0.000 C 
ENDBRANCH   2  12
TORSDOF 2
ENDMDL
MODEL 2
REMARK VINA RESULT:      -6.5      0.812      1.542
REMARK  Name = 
REMARK  4 active torsions:
REMARK  status: ('A' for Active; 'I' for Inactive)
REMARK    1  A    between atoms: C_1  and  C_2
REMARK    2  A    between atoms: C_6  and  N_7
REMARK    3  A    between atoms: C_8  and  C_10
REMARK    4  A    between atoms: N_14  and  C_15
REMARK                            x       y       z     vdW  Elec       q    Type
REMARK                         _______ _______ _______ _____ _____    ______ ____
ROOT
ATOM      1  N   UNL     1       4.273   5.473  18.819  0.00  0.00    +0.000 N 
ATOM      2  C   UNL     1       5.414   5.120  18.122  0.00  0.00    +0.000 C 
ATOM      3  O   UNL     1       5.624   4.019  17.626  0.00  0.00    +0.000 OA
ATOM      4  H   UNL     1       4.216   6.402  19.195  0.00  0.00    +0.000 HD
ENDROOT
BRANCH   1  10
ATOM      5  C   UNL     1       1.696   2.637  21.701  0.00  0.00    +0.000 C 
ATOM      6  C   UNL     1       1.860   3.261  20.350  0.00  0.00    +0.000 A 
ATOM      7  C   UNL     1       0.965   3.014  19.320  0.00  0.00    +0.000 A 
ATOM      8  C   UNL     1       1.192   3.621  18.090  0.00  0.00    +0.000 A 
ATOM      9  C   UNL     1       2.301   4.450  17.930  0.00  0.00    +0.000 A 
ATOM     10  C   UNL     1       3.155   4.650  19.011  0.00  0.00    +0.000 A 
ATOM     11  N   UNL     1       2.934   4.067  20.199  0.00  0.00    +0.000 NA
ENDBRANCH   1  10
BRANCH   2  12
ATOM     12  C   UNL     1       6.399   6.200  18.006  0.00  0.00    +0.000 A 
ATOM     13  C   UNL     1       6.446   7.291  17.141  0.00  0.00    +0.000 A 
ATOM     14  C   UNL     1       7.614   8.039  17.413  0.00  0.00    +0.000 A 
ATOM     15  C   UNL     1       8.262   7.414  18.448  0.00  0.00    +0.000 A 
ATOM     16  N   UNL     1       7.532   6.308  18.803  0.00  0.00    +0.000 N 
ATOM     17  C   UNL     1       7.935   5.384  19.846  0.00  0.00    +0.000 C 
ENDBRANCH   2  12
TORSDOF 2
ENDMDL
MODEL 3
REMARK VINA RESULT:      -6.4      2.239      6.017
REMARK  Name = 
REMARK  4 active torsions:
REMARK  status: ('A' for Active; 'I' for Inactive)
REMARK    1  A    between atoms: C_1  and  C_2
REMARK    2  A    between atoms: C_6  and  N_7
REMARK    3  A    between atoms: C_8  and  C_10
REMARK    4  A    between atoms: N_14  and  C_15
REMARK                            x       y       z     vdW  Elec       q    Type
REMARK                         _______ _______ _______ _____ _____    ______ ____
ROOT
ATOM      1  N   UNL     1       4.045   4.245  17.388  0.00  0.00    +0.000 N 
ATOM      2  C   UNL     1       4.199   3.781  18.682  0.00  0.00    +0.000 C 
ATOM      3  O   UNL     1       5.268   3.486  19.202  0.00  0.00    +0.000 OA
ATOM      4  H   UNL     1       3.116   4.442  17.063  0.00  0.00    +0.000 HD
ENDROOT
BRANCH   1  10
ATOM      5  C   UNL     1       6.050   3.574  13.085  0.00  0.00    +0.000 C 
ATOM      6  C   UNL     1       6.122   4.225  14.430  0.00  0.00    +0.000 A 
ATOM      7  C   UNL     1       7.190   5.031  14.794  0.00  0.00    +0.000 A 
ATOM      8  C   UNL     1       7.190   5.592  16.067  0.00  0.00    +0.000 A 
ATOM      9  C   UNL     1       6.129   5.328  16.930  0.00  0.00    +0.000 A 
ATOM     10  C   UNL     1       5.091   4.509  16.494  0.00  0.00    +0.000 A 
ATOM     11  N   UNL     1       5.089   3.971  15.264  0.00  0.00    +0.000 NA
ENDBRANCH   1  10
BRANCH   2  12
ATOM     12  C   UNL     1       2.940   3.666  19.427  0.00  0.00    +0.000 A 
ATOM     13  C   UNL     1       2.217   2.538  19.809  0.00  0.00    +0.000 A 
ATOM     14  C   UNL     1       1.054   2.954  20.496  0.00  0.00    +0.000 A 
ATOM     15  C   UNL     1       1.081   4.325  20.544  0.00  0.00    +0.000 A 
ATOM     16  N   UNL     1       2.215   4.751  19.899  0.00  0.00    +0.000 N 
ATOM     17  C   UNL     1       2.557   6.151  19.725  0.00  0.00    +0.000 C 
ENDBRANCH   2  12
TORSDOF 2
ENDMDL
MODEL 4
REMARK VINA RESULT:      -6.4      1.490      5.880
REMARK  Name = 
REMARK  4 active torsions:
REMARK  status: ('A' for Active; 'I' for Inactive)
REMARK    1  A    between atoms: C_1  and  C_2
REMARK    2  A    between atoms: C_6  and  N_7
REMARK    3  A    between atoms: C_8  and  C_10
REMARK    4  A    between atoms: N_14  and  C_15
REMARK                            x       y       z     vdW  Elec       q    Type
REMARK                         _______ _______ _______ _____ _____    ______ ____
ROOT
ATOM      1  N   UNL     1       4.101   4.294  18.330  0.00  0.00    +0.000 N 
ATOM      2  C   UNL     1       4.206   3.414  19.393  0.00  0.00    +0.000 C 
ATOM      3  O   UNL     1       5.237   2.851  19.743  0.00  0.00    +0.000 OA
ATOM      4  H   UNL     1       3.200   4.684  18.127  0.00  0.00    +0.000 HD
ENDROOT
BRANCH   1  10
ATOM      5  C   UNL     1       7.652   7.418  17.543  0.00  0.00    +0.000 C 
ATOM      6  C   UNL     1       6.902   6.207  17.084  0.00  0.00    +0.000 A 
ATOM      7  C   UNL     1       7.224   5.556  15.902  0.00  0.00    +0.000 A 
ATOM      8  C   UNL     1       6.473   4.444  15.537  0.00  0.00    +0.000 A 
ATOM      9  C   UNL     1       5.430   4.022  16.359  0.00  0.00    +0.000 A 
ATOM     10  C   UNL     1       5.167   4.727  17.531  0.00  0.00    +0.000 A 
ATOM     11  N   UNL     1       5.894   5.798  17.885  0.00  0.00    +0.000 NA
ENDBRANCH   1  10
BRANCH   2  12
ATOM     12  C   UNL     1       2.946   3.192  20.109  0.00  0.00    +0.000 A 
ATOM     13  C   UNL     1       2.711   2.805  21.426  0.00  0.00    +0.000 A 
ATOM     14  C   UNL     1       1.316   2.710  21.633  0.00  0.00    +0.000 A 
ATOM     15  C   UNL     1       0.709   3.053  20.451  0.00  0.00    +0.000 A 
ATOM     16  N   UNL     1       1.689   3.341  19.536  0.00  0.00    +0.000 N 
ATOM     17  C   UNL     1       1.415   3.714  18.160  0.00  0.00    +0.000 C 
ENDBRANCH   2  12
TORSDOF 2
ENDMDL
MODEL 5
REMARK VINA RESULT:      -6.4      1.676      6.092
REMARK  Name = 
REMARK  4 active torsions:
REMARK  status: ('A' for Active; 'I' for Inactive)
REMARK    1  A    between atoms: C_1  and  C_2
REMARK    2  A    between atoms: C_6  and  N_7
REMARK    3  A    between atoms: C_8  and  C_10
REMARK    4  A    between atoms: N_14  and  C_15
REMARK                            x       y       z     vdW  Elec       q    Type
REMARK                         _______ _______ _______ _____ _____    ______ ____
ROOT
ATOM      1  N   UNL     1       4.059   4.158  17.482  0.00  0.00    +0.000 N 
ATOM      2  C   UNL     1       3.988   3.491  18.692  0.00  0.00    +0.000 C 
ATOM      3  O   UNL     1       4.949   3.202  19.394  0.00  0.00    +0.000 OA
ATOM      4  H   UNL     1       3.204   4.328  16.985  0.00  0.00    +0.000 HD
ENDROOT
BRANCH   1  10
ATOM      5  C   UNL     1       7.606   7.384  17.516  0.00  0.00    +0.000 C 
ATOM      6  C   UNL     1       6.977   6.196  16.856  0.00  0.00    +0.000 A 
ATOM      7  C   UNL     1       7.508   5.635  15.705  0.00  0.00    +0.000 A 
ATOM      8  C   UNL     1       6.859   4.541  15.144  0.00  0.00    +0.000 A 
ATOM      9  C   UNL     1       5.705   4.047  15.749  0.00  0.00    +0.000 A 
ATOM     10  C   UNL     1       5.231   4.663  16.904  0.00  0.00    +0.000 A 
ATOM     11  N   UNL     1       5.860   5.717  17.447  0.00  0.00    +0.000 NA
ENDBRANCH   1  10
BRANCH   2  12
ATOM     12  C   UNL     1       2.623   3.140  19.099  0.00  0.00    +0.000 A 
ATOM     13  C   UNL     1       1.778   2.128  18.649  0.00  0.00    +0.000 A 
ATOM     14  C   UNL     1       0.550   2.217  19.344  0.00  0.00    +0.000 A 
ATOM     15  C   UNL     1       0.657   3.267  20.221  0.00  0.00    +0.000 A 
ATOM     16  N   UNL     1       1.903   3.821  20.072  0.00  0.00    +0.000 N 
ATOM     17  C   UNL     1       2.357   4.979  20.819  0.00  0.00    +0.000 C 
ENDBRANCH   2  12
TORSDOF 2
ENDMDL
MODEL 6
REMARK VINA RESULT:      -6.3      2.103      6.098
REMARK  Name = 
REMARK  4 active torsions:
REMARK  status: ('A' for Active; 'I' for Inactive)
REMARK    1  A    between atoms: C_1  and  C_2
REMARK    2  A    between atoms: C_6  and  N_7
REMARK    3  A    between atoms: C_8  and  C_10
REMARK    4  A    between atoms: N_14  and  C_15
REMARK                            x       y       z     vdW  Elec       q    Type
REMARK                         _______ _______ _______ _____ _____    ______ ____
ROOT
ATOM      1  N   UNL     1       4.295   3.969  18.369  0.00  0.00    +0.000 N 
ATOM      2  C   UNL     1       3.775   2.733  18.707  0.00  0.00    +0.000 C 
ATOM      3  O   UNL     1       4.039   1.679  18.140  0.00  0.00    +0.000 OA
ATOM      4  H   UNL     1       3.995   4.769  18.897  0.00  0.00    +0.000 HD
ENDROOT
BRANCH   1  10
ATOM      5  C   UNL     1       5.452   4.034  13.717  0.00  0.00    +0.000 C 
ATOM      6  C   UNL     1       5.882   4.248  15.134  0.00  0.00    +0.000 A 
ATOM      7  C   UNL     1       7.177   4.628  15.454  0.00  0.00    +0.000 A 
ATOM      8  C   UNL     1       7.503   4.796  16.795  0.00  0.00    +0.000 A 
ATOM      9  C   UNL     1       6.529   4.578  17.768  0.00  0.00    +0.000 A 
ATOM     10  C   UNL     1       5.250   4.199  17.371  0.00  0.00    +0.000 A 
ATOM     11  N   UNL     1       4.934   4.040  16.076  0.00  0.00    +0.000 NA
ENDBRANCH   1  10
BRANCH   2  12
ATOM     12  C   UNL     1       2.849   2.767  19.844  0.00  0.00    +0.000 A 
ATOM     13  C   UNL     1       3.090   2.640  21.210  0.00  0.00    +0.000 A 
ATOM     14  C   UNL     1       1.859   2.723  21.901  0.00  0.00    +0.000 A 
ATOM     15  C   UNL     1       0.881   2.915  20.959  0.00  0.00    +0.000 A 
ATOM     16  N   UNL     1       1.476   2.941  19.723  0.00  0.00    +0.000 N 
ATOM     17  C   UNL     1       0.739   3.094  18.483  0.00  0.00    +0.000 C 
ENDBRANCH   2  12
TORSDOF 2
ENDMDL
MODEL 7
REMARK VINA RESULT:      -6.3      1.936      2.620
REMARK  Name = 
REMARK  4 active torsions:
REMARK  status: ('A' for Active; 'I' for Inactive)
REMARK    1  A    between atoms: C_1  and  C_2
REMARK    2  A    between atoms: C_6  and  N_7
REMARK    3  A    between atoms: C_8  and  C_10
REMARK    4  A    between atoms: N_14  and  C_15
REMARK                            x       y       z     vdW  Elec       q    Type
REMARK                         _______ _______ _______ _____ _____    ______ ____
ROOT
ATOM      1  N   UNL     1       3.816   3.619  17.377  0.00  0.00    +0.000 N 
ATOM      2  C   UNL     1       4.322   4.871  17.076  0.00  0.00    +0.000 C 
ATOM      3  O   UNL     1       3.910   5.927  17.540  0.00  0.00    +0.000 OA
ATOM      4  H   UNL     1       4.224   2.822  16.923  0.00  0.00    +0.000 HD
ENDROOT
BRANCH   1  10
ATOM      5  C   UNL     1       2.474   2.969  21.934  0.00  0.00    +0.000 C 
ATOM      6  C   UNL     1       2.080   3.029  20.491  0.00  0.00    +0.000 A 
ATOM      7  C   UNL     1       0.774   2.807  20.083  0.00  0.00    +0.000 A 
ATOM      8  C   UNL     1       0.488   2.867  18.723  0.00  0.00    +0.000 A 
ATOM      9  C   UNL     1       1.513   3.146  17.821  0.00  0.00    +0.000 A 
ATOM     10  C   UNL     1       2.801   3.359  18.307  0.00  0.00    +0.000 A 
ATOM     11  N   UNL     1       3.075   3.303  19.619  0.00  0.00    +0.000 NA
ENDBRANCH   1  10
BRANCH   2  12
ATOM     12  C   UNL     1       5.437   4.849  16.123  0.00  0.00    +0.000 A 
ATOM     13  C   UNL     1       5.437   4.762  14.733  0.00  0.00    +0.000 A 
ATOM     14  C   UNL     1       6.774   4.759  14.276  0.00  0.00    +0.000 A 
ATOM     15  C   UNL     1       7.579   4.859  15.382  0.00  0.00    +0.000 A 
ATOM     16  N   UNL     1       6.775   4.912  16.492  0.00  0.00    +0.000 N 
ATOM     17  C   UNL     1       7.286   4.988  17.848  0.00  0.00    +0.000 C 
ENDBRANCH   2  12
TORSDOF 2
ENDMDL
MODEL 8
REMARK VINA RESULT:      -6.3      2.219      6.100
REMARK  Name = 
REMARK  4 active torsions:
REMARK  status: ('A' for Active; 'I' for Inactive)
REMARK    1  A    between atoms: C_1  and  C_2
REMARK    2  A    between atoms: C_6  and  N_7
REMARK    3  A    between atoms: C_8  and  C_10
REMARK    4  A    between atoms: N_14  and  C_15
REMARK                            x       y       z     vdW  Elec       q    Type
REMARK                         _______ _______ _______ _____ _____    ______ ____
ROOT
ATOM      1  N   UNL     1       4.567   4.086  18.149  0.00  0.00    +0.000 N 
ATOM      2  C   UNL     1       3.363   4.697  18.452  0.00  0.00    +0.000 C 
ATOM      3  O   UNL     1       2.902   5.671  17.870  0.00  0.00    +0.000 OA
ATOM      4  H   UNL     1       4.852   3.301  18.705  0.00  0.00    +0.000 HD
ENDROOT
BRANCH   1  10
ATOM      5  C   UNL     1       5.748   3.730  13.516  0.00  0.00    +0.000 C 
ATOM      6  C   UNL     1       6.046   4.317  14.860  0.00  0.00    +0.000 A 
ATOM      7  C   UNL     1       7.132   5.156  15.065  0.00  0.00    +0.000 A 
ATOM      8  C   UNL     1       7.350   5.652  16.345  0.00  0.00    +0.000 A 
ATOM      9  C   UNL     1       6.482   5.293  17.375  0.00  0.00    +0.000 A 
ATOM     10  C   UNL     1       5.414   4.446  17.093  0.00  0.00    +0.000 A 
ATOM     11  N   UNL     1       5.201   3.970  15.856  0.00  0.00    +0.000 NA
ENDBRANCH   1  10
BRANCH   2  12
ATOM     12  C   UNL     1       2.640   4.069  19.563  0.00  0.00    +0.000 A 
ATOM     13  C   UNL     1       2.424   4.512  20.865  0.00  0.00    +0.000 A 
ATOM     14  C   UNL     1       1.680   3.533  21.563  0.00  0.00    +0.000 A 
ATOM     15  C   UNL     1       1.432   2.511  20.682  0.00  0.00    +0.000 A 
ATOM     16  N   UNL     1       2.010   2.834  19.481  0.00  0.00    +0.000 N 
ATOM     17  C   UNL     1       1.978   1.965  18.319  0.00  0.00    +0.000 C 
ENDBRANCH   2  12
TORSDOF 2
ENDMDL
MODEL 9
REMARK VINA RESULT:      -6.3      2.288      6.098
REMARK  Name = 
REMARK  4 active torsions:
REMARK  status: ('A' for Active; 'I' for Inactive)
REMARK    1  A    between atoms: C_1  and  C_2
REMARK    2  A    between atoms: C_6  and  N_7
REMARK    3  A    between atoms: C_8  and  C_10
REMARK    4  A    between atoms: N_14  and  C_15
REMARK                            x       y       z     vdW  Elec       q    Type
REMARK                         _______ _______ _______ _____ _____    ______ ____
ROOT
ATOM      1  N   UNL     1       4.098   4.497  17.307  0.00  0.00    +0.000 N 
ATOM      2  C   UNL     1       4.231   4.080  18.619  0.00  0.00    +0.000 C 
ATOM      3  O   UNL     1       5.284   3.740  19.147  0.00  0.00    +0.000 OA
ATOM      4  H   UNL     1       3.180   4.738  16.979  0.00  0.00    +0.000 HD
ENDROOT
BRANCH   1  10
ATOM      5  C   UNL     1       6.003   3.550  13.011  0.00  0.00    +0.000 C 
ATOM      6  C   UNL     1       6.137   4.234  14.335  0.00  0.00    +0.000 A 
ATOM      7  C   UNL     1       7.266   4.969  14.666  0.00  0.00    +0.000 A 
ATOM      8  C   UNL     1       7.321   5.565  15.921  0.00  0.00    +0.000 A 
ATOM      9  C   UNL     1       6.251   5.407  16.800  0.00  0.00    +0.000 A 
ATOM     10  C   UNL     1       5.151   4.656  16.398  0.00  0.00    +0.000 A 
ATOM     11  N   UNL     1       5.097   4.083  15.185  0.00  0.00    +0.000 NA
ENDBRANCH   1  10
BRANCH   2  12
ATOM     12  C   UNL     1       2.974   4.077  19.375  0.00  0.00    +0.000 A 
ATOM     13  C   UNL     1       2.428   5.036  20.225  0.00  0.00    +0.000 A 
ATOM     14  C   UNL     1       1.199   4.553  20.728  0.00  0.00    +0.000 A 
ATOM     15  C   UNL     1       0.993   3.316  20.173  0.00  0.00    +0.000 A 
ATOM     16  N   UNL     1       2.061   3.030  19.360  0.00  0.00    +0.000 N 
ATOM     17  C   UNL     1       2.201   1.783  18.631  0.00  0.00    +0.000 C 
ENDBRANCH   2  12
TORSDOF 2
ENDMDL
