MODEL 1
REMARK VINA RESULT:      -8.6      0.000      0.000
REMARK  Name = 
REMARK  11 active torsions:
REMARK  status: ('A' for Active; 'I' for Inactive)
REMARK    1  A    between atoms: C_2  and  C_3
REMARK    2  A    between atoms: C_3  and  C_4
REMARK    3  A    between atoms: C_4  and  C_5
REMARK    4  A    between atoms: C_5  and  C_6
REMARK    5  A    between atoms: C_6  and  C_7
REMARK    6  A    between atoms: C_7  and  C_8
REMARK    7  A    between atoms: C_8  and  N_9
REMARK    8  A    between atoms: C_11  and  C_12
REMARK    9  A    between atoms: N_20  and  C_21
REMARK   10  A    between atoms: C_26  and  O_27
REMARK   11  A    between atoms: O_27  and  C_28
REMARK                            x       y       z     vdW  Elec       q    Type
REMARK                         _______ _______ _______ _____ _____    ______ ____
ROOT
ATOM      1  O   UNL     1       5.815   4.299  19.703  0.00  0.00    +0.000 OA
ATOM      2  C   UNL     1       5.532   4.482  18.522  0.00  0.00    +0.000 C 
ATOM      3  N   UNL     1       4.278   4.345  17.956  0.00  0.00    +0.000 N 
ATOM      4  H   UNL     1       4.218   4.263  16.947  0.00  0.00    +0.000 HD
ENDROOT
BRANCH   3   5
ATOM      5  C   UNL     1       3.076   4.101  18.663  0.00  0.00    +0.000 A 
ATOM      6  C   UNL     1       2.409   2.875  18.575  0.00  0.00    +0.000 A 
ATOM      7  C   UNL     1       1.277   2.611  19.348  0.00  0.00    +0.000 A 
ATOM      8  C   UNL     1       0.795   3.571  20.229  0.00  0.00    +0.000 A 
ATOM      9  C   UNL     1       1.426   4.813  20.312  0.00  0.00    +0.000 A 
ATOM     10  C   UNL     1       2.544   5.092  19.516  0.00  0.00    +0.000 A 
BRANCH  10  11
ATOM     11  O   UNL     1       3.104   6.341  19.690  0.00  0.00    +0.000 OA
BRANCH  11  12
ATOM     12  C   UNL     1       2.325   7.474  19.571  0.00  0.00    +0.000 A 
ATOM     13  C   UNL     1       1.609   8.090  20.600  0.00  0.00    +0.000 A 
ATOM     14  C   UNL     1       0.772   9.174  20.324  0.00  0.00    +0.000 A 
ATOM     15  C   UNL     1       0.677   9.678  19.029  0.00  0.00    +0.000 A 
ATOM     16  C   UNL     1       1.434   9.107  18.008  0.00  0.00    +0.000 A 
ATOM     17  C   UNL     1       2.254   8.009  18.279  0.00  0.00    +0.000 A 
ENDBRANCH  11  12
ENDBRANCH  10  11
ENDBRANCH   3   5
BRANCH   2  18
ATOM     18  C   UNL     1       6.606   4.876  17.528  0.00  0.00    +0.000 C 
BRANCH  18  19
ATOM     19  C   UNL     1       7.895   5.279  18.243  0.00  0.00    +0.000 C 
BRANCH  19  20
ATOM     20  C   UNL     1       7.904   6.766  18.600  0.00  0.00    +0.000 C 
BRANCH  20  21
ATOM     21  C   UNL     1       7.633   7.635  17.373  0.00  0.00    +0.000 C 
BRANCH  21  22
ATOM     22  C   UNL     1       7.893   9.109  17.677  0.00  0.00    +0.000 C 
BRANCH  22  23
ATOM     23  C   UNL     1       8.852   9.260  18.853  0.00  0.00    +0.000 C 
BRANCH  23  24
ATOM     24  N   UNL     1       9.430  10.584  18.914  0.00  0.00    +0.000 N 
ATOM     25  C   UNL     1       9.046  11.688  18.216  0.00  0.00    +0.000 A 
ATOM     26  C   UNL     1       9.970  12.639  18.575  0.00  0.00    +0.000 A 
ATOM     27  N   UNL     1      10.857  12.095  19.467  0.00  0.00    +0.000 NA
ATOM     28  N   UNL     1      10.502  10.834  19.683  0.00  0.00    +0.000 NA
BRANCH  26  29
ATOM     29  C   UNL     1      10.056  13.981  18.051  0.00  0.00    +0.000 A 
ATOM     30  C   UNL     1       9.030  14.914  18.233  0.00  0.00    +0.000 A 
ATOM     31  C   UNL     1       9.132  16.179  17.659  0.00  0.00    +0.000 A 
ATOM     32  C   UNL     1      10.264  16.473  16.916  0.00  0.00    +0.000 A 
ATOM     33  N   UNL     1      11.285  15.608  16.732  0.00  0.00    +0.000 NA
ATOM     34  C   UNL     1      11.160  14.386  17.308  0.00  0.00    +0.000 A 
ENDBRANCH  26  29
ENDBRANCH  23  24
ENDBRANCH  22  23
ENDBRANCH  21  22
ENDBRANCH  20  21
ENDBRANCH  19  20
ENDBRANCH  18  19
ENDBRANCH   2  18
TORSDOF 11
ENDMDL
MODEL 2
REMARK VINA RESULT:      -8.4      1.191      1.702
REMARK  Name = 
REMARK  11 active torsions:
REMARK  status: ('A' for Active; 'I' for Inactive)
REMARK    1  A    between atoms: C_2  and  C_3
REMARK    2  A    between atoms: C_3  and  C_4
REMARK    3  A    between atoms: C_4  and  C_5
REMARK    4  A    between atoms: C_5  and  C_6
REMARK    5  A    between atoms: C_6  and  C_7
REMARK    6  A    between atoms: C_7  and  C_8
REMARK    7  A    between atoms: C_8  and  N_9
REMARK    8  A    between atoms: C_11  and  C_12
REMARK    9  A    between atoms: N_20  and  C_21
REMARK   10  A    between atoms: C_26  and  O_27
REMARK   11  A    between atoms: O_27  and  C_28
REMARK                            x       y       z     vdW  Elec       q    Type
REMARK                         _______ _______ _______ _____ _____    ______ ____
ROOT
ATOM      1  O   UNL     1       4.982   3.748  17.294  0.00  0.00    +0.000 OA
ATOM      2  C   UNL     1       4.439   4.810  17.004  0.00  0.00    +0.000 C 
ATOM      3  N   UNL     1       3.182   5.217  17.409  0.00  0.00    +0.000 N 
ATOM      4  H   UNL     1       2.742   5.977  16.902  0.00  0.00    +0.000 HD
ENDROOT
BRANCH   3   5
ATOM      5  C   UNL     1       2.354   4.540  18.338  0.00  0.00    +0.000 A 
ATOM      6  C   UNL     1       1.745   3.321  18.025  0.00  0.00    +0.000 A 
ATOM      7  C   UNL     1       1.009   2.617  18.978  0.00  0.00    +0.000 A 
ATOM      8  C   UNL     1       0.873   3.119  20.266  0.00  0.00    +0.000 A 
ATOM      9  C   UNL     1       1.446   4.348  20.593  0.00  0.00    +0.000 A 
ATOM     10  C   UNL     1       2.161   5.073  19.630  0.00  0.00    +0.000 A 
BRANCH  10  11
ATOM     11  O   UNL     1       2.704   6.265  20.062  0.00  0.00    +0.000 OA
BRANCH  11  12
ATOM     12  C   UNL     1       2.057   7.458  19.803  0.00  0.00    +0.000 A 
ATOM     13  C   UNL     1       2.070   8.152  18.592  0.00  0.00    +0.000 A 
ATOM     14  C   UNL     1       1.459   9.405  18.493  0.00  0.00    +0.000 A 
ATOM     15  C   UNL     1       0.795   9.953  19.588  0.00  0.00    +0.000 A 
ATOM     16  C   UNL     1       0.725   9.239  20.782  0.00  0.00    +0.000 A 
ATOM     17  C   UNL     1       1.354   7.996  20.889  0.00  0.00    +0.000 A 
ENDBRANCH  11  12
ENDBRANCH  10  11
ENDBRANCH   3   5
BRANCH   2  18
ATOM     18  C   UNL     1       5.141   5.810  16.107  0.00  0.00    +0.000 C 
BRANCH  18  19
ATOM     19  C   UNL     1       5.744   6.952  16.923  0.00  0.00    +0.000 C 
BRANCH  19  20
ATOM     20  C   UNL     1       7.273   6.902  16.924  0.00  0.00    +0.000 C 
BRANCH  20  21
ATOM     21  C   UNL     1       7.820   6.607  18.319  0.00  0.00    +0.000 C 
BRANCH  21  22
ATOM     22  C   UNL     1       8.491   7.842  18.917  0.00  0.00    +0.000 C 
BRANCH  22  23
ATOM     23  C   UNL     1       8.284   9.059  18.023  0.00  0.00    +0.000 C 
BRANCH  23  24
ATOM     24  N   UNL     1       8.895  10.247  18.575  0.00  0.00    +0.000 N 
ATOM     25  C   UNL     1       9.049  11.457  17.969  0.00  0.00    +0.000 A 
ATOM     26  C   UNL     1       9.761  12.193  18.886  0.00  0.00    +0.000 A 
ATOM     27  N   UNL     1      10.000  11.425  19.996  0.00  0.00    +0.000 NA
ATOM     28  N   UNL     1       9.444  10.235  19.800  0.00  0.00    +0.000 NA
BRANCH  26  29
ATOM     29  C   UNL     1      10.253  13.536  18.698  0.00  0.00    +0.000 A 
ATOM     30  C   UNL     1      11.441  13.979  19.291  0.00  0.00    +0.000 A 
ATOM     31  C   UNL     1      11.846  15.302  19.128  0.00  0.00    +0.000 A 
ATOM     32  C   UNL     1      11.048  16.145  18.374  0.00  0.00    +0.000 A 
ATOM     33  N   UNL     1       9.904  15.754  17.770  0.00  0.00    +0.000 NA
ATOM     34  C   UNL     1       9.538  14.458  17.941  0.00  0.00    +0.000 A 
ENDBRANCH  26  29
ENDBRANCH  23  24
ENDBRANCH  22  23
ENDBRANCH  21  22
ENDBRANCH  20  21
ENDBRANCH  19  20
ENDBRANCH  18  19
ENDBRANCH   2  18
TORSDOF 11
ENDMDL
MODEL 3
REMARK VINA RESULT:      -8.1      2.285      2.781
REMARK  Name = 
REMARK  11 active torsions:
REMARK  status: ('A' for Active; 'I' for Inactive)
REMARK    1  A    between atoms: C_2  and  C_3
REMARK    2  A    between atoms: C_3  and  C_4
REMARK    3  A    between atoms: C_4  and  C_5
REMARK    4  A    between atoms: C_5  and  C_6
REMARK    5  A    between atoms: C_6  and  C_7
REMARK    6  A    between atoms: C_7  and  C_8
REMARK    7  A    between atoms: C_8  and  N_9
REMARK    8  A    between atoms: C_11  and  C_12
REMARK    9  A    between atoms: N_20  and  C_21
REMARK   10  A    between atoms: C_26  and  O_27
REMARK   11  A    between atoms: O_27  and  C_28
REMARK                            x       y       z     vdW  Elec       q    Type
REMARK                         _______ _______ _______ _____ _____    ______ ____
ROOT
ATOM      1  O   UNL     1       5.001   5.579  16.660  0.00  0.00    +0.000 OA
ATOM      2  C   UNL     1       5.620   5.088  17.599  0.00  0.00    +0.000 C 
ATOM      3  N   UNL     1       5.085   4.309  18.608  0.00  0.00    +0.000 N 
ATOM      4  H   UNL     1       5.630   4.185  19.454  0.00  0.00    +0.000 HD
ENDROOT
BRANCH   3   5
ATOM      5  C   UNL     1       3.752   3.832  18.664  0.00  0.00    +0.000 A 
ATOM      6  C   UNL     1       3.384   2.618  18.077  0.00  0.00    +0.000 A 
ATOM      7  C   UNL     1       2.090   2.111  18.218  0.00  0.00    +0.000 A 
ATOM      8  C   UNL     1       1.143   2.811  18.955  0.00  0.00    +0.000 A 
ATOM      9  C   UNL     1       1.480   4.039  19.524  0.00  0.00    +0.000 A 
ATOM     10  C   UNL     1       2.768   4.565  19.360  0.00  0.00    +0.000 A 
BRANCH  10  11
ATOM     11  O   UNL     1       3.002   5.775  19.980  0.00  0.00    +0.000 OA
BRANCH  11  12
ATOM     12  C   UNL     1       2.437   6.932  19.481  0.00  0.00    +0.000 A 
ATOM     13  C   UNL     1       2.510   7.379  18.161  0.00  0.00    +0.000 A 
ATOM     14  C   UNL     1       1.983   8.624  17.808  0.00  0.00    +0.000 A 
ATOM     15  C   UNL     1       1.340   9.411  18.761  0.00  0.00    +0.000 A 
ATOM     16  C   UNL     1       1.210   8.946  20.068  0.00  0.00    +0.000 A 
ATOM     17  C   UNL     1       1.756   7.711  20.426  0.00  0.00    +0.000 A 
ENDBRANCH  11  12
ENDBRANCH  10  11
ENDBRANCH   3   5
BRANCH   2  18
ATOM     18  C   UNL     1       7.110   5.328  17.744  0.00  0.00    +0.000 C 
BRANCH  18  19
ATOM     19  C   UNL     1       7.498   6.707  17.213  0.00  0.00    +0.000 C 
BRANCH  19  20
ATOM     20  C   UNL     1       8.003   7.622  18.329  0.00  0.00    +0.000 C 
BRANCH  20  21
ATOM     21  C   UNL     1       8.218   9.048  17.826  0.00  0.00    +0.000 C 
BRANCH  21  22
ATOM     22  C   UNL     1       8.942   9.895  18.871  0.00  0.00    +0.000 C 
BRANCH  22  23
ATOM     23  C   UNL     1       9.786  10.976  18.205  0.00  0.00    +0.000 C 
BRANCH  23  24
ATOM     24  N   UNL     1      10.073  12.070  19.104  0.00  0.00    +0.000 N 
ATOM     25  C   UNL     1       9.254  12.596  20.057  0.00  0.00    +0.000 A 
ATOM     26  C   UNL     1       9.970  13.658  20.554  0.00  0.00    +0.000 A 
ATOM     27  N   UNL     1      11.176  13.734  19.906  0.00  0.00    +0.000 NA
ATOM     28  N   UNL     1      11.235  12.739  19.029  0.00  0.00    +0.000 NA
BRANCH  26  29
ATOM     29  C   UNL     1       9.512  14.602  21.544  0.00  0.00    +0.000 A 
ATOM     30  C   UNL     1       9.114  14.198  22.823  0.00  0.00    +0.000 A 
ATOM     31  C   UNL     1       8.624  15.138  23.727  0.00  0.00    +0.000 A 
ATOM     32  C   UNL     1       8.548  16.460  23.322  0.00  0.00    +0.000 A 
ATOM     33  N   UNL     1       8.939  16.895  22.104  0.00  0.00    +0.000 NA
ATOM     34  C   UNL     1       9.418  15.957  21.247  0.00  0.00    +0.000 A 
ENDBRANCH  26  29
ENDBRANCH  23  24
ENDBRANCH  22  23
ENDBRANCH  21  22
ENDBRANCH  20  21
ENDBRANCH  19  20
ENDBRANCH  18  19
ENDBRANCH   2  18
TORSDOF 11
ENDMDL
MODEL 4
REMARK VINA RESULT:      -8.0      3.284      3.933
REMARK  Name = 
REMARK  11 active torsions:
REMARK  status: ('A' for Active; 'I' for Inactive)
REMARK    1  A    between atoms: C_2  and  C_3
REMARK    2  A    between atoms: C_3  and  C_4
REMARK    3  A    between atoms: C_4  and  C_5
REMARK    4  A    between atoms: C_5  and  C_6
REMARK    5  A    between atoms: C_6  and  C_7
REMARK    6  A    between atoms: C_7  and  C_8
REMARK    7  A    between atoms: C_8  and  N_9
REMARK    8  A    between atoms: C_11  and  C_12
REMARK    9  A    between atoms: N_20  and  C_21
REMARK   10  A    between atoms: C_26  and  O_27
REMARK   11  A    between atoms: O_27  and  C_28
REMARK                            x       y       z     vdW  Elec       q    Type
REMARK                         _______ _______ _______ _____ _____    ______ ____
ROOT
ATOM      1  O   UNL     1       5.334   6.065  16.272  0.00  0.00    +0.000 OA
ATOM      2  C   UNL     1       5.837   5.746  17.345  0.00  0.00    +0.000 C 
ATOM      3  N   UNL     1       5.213   5.048  18.361  0.00  0.00    +0.000 N 
ATOM      4  H   UNL     1       5.631   5.075  19.285  0.00  0.00    +0.000 HD
ENDROOT
BRANCH   3   5
ATOM      5  C   UNL     1       3.926   4.460  18.289  0.00  0.00    +0.000 A 
ATOM      6  C   UNL     1       3.673   3.345  17.486  0.00  0.00    +0.000 A 
ATOM      7  C   UNL     1       2.426   2.717  17.494  0.00  0.00    +0.000 A 
ATOM      8  C   UNL     1       1.410   3.194  18.313  0.00  0.00    +0.000 A 
ATOM      9  C   UNL     1       1.630   4.324  19.101  0.00  0.00    +0.000 A 
ATOM     10  C   UNL     1       2.870   4.974  19.073  0.00  0.00    +0.000 A 
BRANCH  10  11
ATOM     11  O   UNL     1       2.989   6.069  19.904  0.00  0.00    +0.000 OA
BRANCH  11  12
ATOM     12  C   UNL     1       2.385   7.265  19.569  0.00  0.00    +0.000 A 
ATOM     13  C   UNL     1       1.595   8.049  20.411  0.00  0.00    +0.000 A 
ATOM     14  C   UNL     1       0.953   9.187  19.916  0.00  0.00    +0.000 A 
ATOM     15  C   UNL     1       1.130   9.574  18.590  0.00  0.00    +0.000 A 
ATOM     16  C   UNL     1       1.966   8.830  17.759  0.00  0.00    +0.000 A 
ATOM     17  C   UNL     1       2.590   7.680  18.247  0.00  0.00    +0.000 A 
ENDBRANCH  11  12
ENDBRANCH  10  11
ENDBRANCH   3   5
BRANCH   2  18
ATOM     18  C   UNL     1       7.266   6.138  17.667  0.00  0.00    +0.000 C 
BRANCH  18  19
ATOM     19  C   UNL     1       7.604   7.511  17.089  0.00  0.00    +0.000 C 
BRANCH  19  20
ATOM     20  C   UNL     1       8.219   8.433  18.142  0.00  0.00    +0.000 C 
BRANCH  20  21
ATOM     21  C   UNL     1       8.056   9.903  17.759  0.00  0.00    +0.000 C 
BRANCH  21  22
ATOM     22  C   UNL     1       9.226  10.737  18.277  0.00  0.00    +0.000 C 
BRANCH  22  23
ATOM     23  C   UNL     1       9.543  10.387  19.727  0.00  0.00    +0.000 C 
BRANCH  23  24
ATOM     24  N   UNL     1       9.242  11.477  20.626  0.00  0.00    +0.000 N 
ATOM     25  C   UNL     1       9.018  11.407  21.967  0.00  0.00    +0.000 A 
ATOM     26  C   UNL     1       8.693  12.697  22.313  0.00  0.00    +0.000 A 
ATOM     27  N   UNL     1       8.740  13.490  21.195  0.00  0.00    +0.000 NA
ATOM     28  N   UNL     1       9.098  12.731  20.167  0.00  0.00    +0.000 NA
BRANCH  26  29
ATOM     29  C   UNL     1       8.290  13.150  23.622  0.00  0.00    +0.000 A 
ATOM     30  C   UNL     1       8.272  12.294  24.728  0.00  0.00    +0.000 A 
ATOM     31  C   UNL     1       7.820  12.762  25.960  0.00  0.00    +0.000 A 
ATOM     32  C   UNL     1       7.398  14.078  26.048  0.00  0.00    +0.000 A 
ATOM     33  N   UNL     1       7.418  14.942  25.010  0.00  0.00    +0.000 NA
ATOM     34  C   UNL     1       7.869  14.460  23.824  0.00  0.00    +0.000 A 
ENDBRANCH  26  29
ENDBRANCH  23  24
ENDBRANCH  22  23
ENDBRANCH  21  22
ENDBRANCH  20  21
ENDBRANCH  19  20
ENDBRANCH  18  19
ENDBRANCH   2  18
TORSDOF 11
ENDMDL
MODEL 5
REMARK VINA RESULT:      -8.0      5.378      8.672
REMARK  Name = 
REMARK  11 active torsions:
REMARK  status: ('A' for Active; 'I' for Inactive)
REMARK    1  A    between atoms: C_2  and  C_3
REMARK    2  A    between atoms: C_3  and  C_4
REMARK    3  A    between atoms: C_4  and  C_5
REMARK    4  A    between atoms: C_5  and  C_6
REMARK    5  A    between atoms: C_6  and  C_7
REMARK    6  A    between atoms: C_7  and  C_8
REMARK    7  A    between atoms: C_8  and  N_9
REMARK    8  A    between atoms: C_11  and  C_12
REMARK    9  A    between atoms: N_20  and  C_21
REMARK   10  A    between atoms: C_26  and  O_27
REMARK   11  A    between atoms: O_27  and  C_28
REMARK                            x       y       z     vdW  Elec       q    Type
REMARK                         _______ _______ _______ _____ _____    ______ ____
ROOT
ATOM      1  O   UNL     1       2.708   4.219  17.215  0.00  0.00    +0.000 OA
ATOM      2  C   UNL     1       3.327   3.314  17.768  0.00  0.00    +0.000 C 
ATOM      3  N   UNL     1       4.680   3.309  18.052  0.00  0.00    +0.000 N 
ATOM      4  H   UNL     1       5.118   2.419  18.263  0.00  0.00    +0.000 HD
ENDROOT
BRANCH   3   5
ATOM      5  C   UNL     1       5.564   4.401  17.875  0.00  0.00    +0.000 A 
ATOM      6  C   UNL     1       6.319   4.913  18.934  0.00  0.00    +0.000 A 
ATOM      7  C   UNL     1       7.256   5.927  18.730  0.00  0.00    +0.000 A 
ATOM      8  C   UNL     1       7.458   6.444  17.456  0.00  0.00    +0.000 A 
ATOM      9  C   UNL     1       6.695   5.970  16.389  0.00  0.00    +0.000 A 
ATOM     10  C   UNL     1       5.732   4.973  16.596  0.00  0.00    +0.000 A 
BRANCH  10  11
ATOM     11  O   UNL     1       5.048   4.562  15.471  0.00  0.00    +0.000 OA
BRANCH  11  12
ATOM     12  C   UNL     1       5.719   4.374  14.279  0.00  0.00    +0.000 A 
ATOM     13  C   UNL     1       5.323   3.532  13.238  0.00  0.00    +0.000 A 
ATOM     14  C   UNL     1       6.150   3.351  12.126  0.00  0.00    +0.000 A 
ATOM     15  C   UNL     1       7.356   4.041  12.025  0.00  0.00    +0.000 A 
ATOM     16  C   UNL     1       7.730   4.929  13.032  0.00  0.00    +0.000 A 
ATOM     17  C   UNL     1       6.914   5.094  14.155  0.00  0.00    +0.000 A 
ENDBRANCH  11  12
ENDBRANCH  10  11
ENDBRANCH   3   5
BRANCH   2  18
ATOM     18  C   UNL     1       2.614   2.045  18.190  0.00  0.00    +0.000 C 
BRANCH  18  19
ATOM     19  C   UNL     1       1.195   2.345  18.671  0.00  0.00    +0.000 C 
BRANCH  19  20
ATOM     20  C   UNL     1       1.174   2.785  20.135  0.00  0.00    +0.000 C 
BRANCH  20  21
ATOM     21  C   UNL     1       0.864   4.274  20.265  0.00  0.00    +0.000 C 
BRANCH  21  22
ATOM     22  C   UNL     1       2.039   5.027  20.887  0.00  0.00    +0.000 C 
BRANCH  22  23
ATOM     23  C   UNL     1       2.646   6.006  19.890  0.00  0.00    +0.000 C 
BRANCH  23  24
ATOM     24  N   UNL     1       2.032   7.312  19.970  0.00  0.00    +0.000 N 
ATOM     25  C   UNL     1       1.349   7.843  21.022  0.00  0.00    +0.000 A 
ATOM     26  C   UNL     1       0.906   9.054  20.547  0.00  0.00    +0.000 A 
ATOM     27  N   UNL     1       1.334   9.217  19.255  0.00  0.00    +0.000 NA
ATOM     28  N   UNL     1       2.043   8.146  18.918  0.00  0.00    +0.000 NA
BRANCH  26  29
ATOM     29  C   UNL     1       0.060   9.985  21.253  0.00  0.00    +0.000 A 
ATOM     30  C   UNL     1      -0.266   9.813  22.602  0.00  0.00    +0.000 A 
ATOM     31  C   UNL     1      -1.133  10.707  23.226  0.00  0.00    +0.000 A 
ATOM     32  C   UNL     1      -1.650  11.751  22.477  0.00  0.00    +0.000 A 
ATOM     33  N   UNL     1      -1.346  11.964  21.178  0.00  0.00    +0.000 NA
ATOM     34  C   UNL     1      -0.494  11.081  20.599  0.00  0.00    +0.000 A 
ENDBRANCH  26  29
ENDBRANCH  23  24
ENDBRANCH  22  23
ENDBRANCH  21  22
ENDBRANCH  20  21
ENDBRANCH  19  20
ENDBRANCH  18  19
ENDBRANCH   2  18
TORSDOF 11
ENDMDL
MODEL 6
REMARK VINA RESULT:      -7.9      2.351      3.001
REMARK  Name = 
REMARK  11 active torsions:
REMARK  status: ('A' for Active; 'I' for Inactive)
REMARK    1  A    between atoms: C_2  and  C_3
REMARK    2  A    between atoms: C_3  and  C_4
REMARK    3  A    between atoms: C_4  and  C_5
REMARK    4  A    between atoms: C_5  and  C_6
REMARK    5  A    between atoms: C_6  and  C_7
REMARK    6  A    between atoms: C_7  and  C_8
REMARK    7  A    between atoms: C_8  and  N_9
REMARK    8  A    between atoms: C_11  and  C_12
REMARK    9  A    between atoms: N_20  and  C_21
REMARK   10  A    between atoms: C_26  and  O_27
REMARK   11  A    between atoms: O_27  and  C_28
REMARK                            x       y       z     vdW  Elec       q    Type
REMARK                         _______ _______ _______ _____ _____    ______ ____
ROOT
ATOM      1  O   UNL     1       4.960   6.615  16.184  0.00  0.00    +0.000 OA
ATOM      2  C   UNL     1       5.693   6.014  16.965  0.00  0.00    +0.000 C 
ATOM      3  N   UNL     1       5.299   5.045  17.868  0.00  0.00    +0.000 N 
ATOM      4  H   UNL     1       5.932   4.817  18.627  0.00  0.00    +0.000 HD
ENDROOT
BRANCH   3   5
ATOM      5  C   UNL     1       4.004   4.479  17.959  0.00  0.00    +0.000 A 
ATOM      6  C   UNL     1       3.670   3.299  17.289  0.00  0.00    +0.000 A 
ATOM      7  C   UNL     1       2.421   2.700  17.460  0.00  0.00    +0.000 A 
ATOM      8  C   UNL     1       1.484   3.271  18.312  0.00  0.00    +0.000 A 
ATOM      9  C   UNL     1       1.784   4.465  18.969  0.00  0.00    +0.000 A 
ATOM     10  C   UNL     1       3.025   5.085  18.776  0.00  0.00    +0.000 A 
BRANCH  10  11
ATOM     11  O   UNL     1       3.227   6.249  19.488  0.00  0.00    +0.000 OA
BRANCH  11  12
ATOM     12  C   UNL     1       2.432   7.354  19.254  0.00  0.00    +0.000 A 
ATOM     13  C   UNL     1       2.273   8.006  18.030  0.00  0.00    +0.000 A 
ATOM     14  C   UNL     1       1.519   9.179  17.950  0.00  0.00    +0.000 A 
ATOM     15  C   UNL     1       0.884   9.686  19.082  0.00  0.00    +0.000 A 
ATOM     16  C   UNL     1       0.988   9.008  20.295  0.00  0.00    +0.000 A 
ATOM     17  C   UNL     1       1.760   7.846  20.380  0.00  0.00    +0.000 A 
ENDBRANCH  11  12
ENDBRANCH  10  11
ENDBRANCH   3   5
BRANCH   2  18
ATOM     18  C   UNL     1       7.176   6.323  17.015  0.00  0.00    +0.000 C 
BRANCH  18  19
ATOM     19  C   UNL     1       7.494   7.316  18.132  0.00  0.00    +0.000 C 
BRANCH  19  20
ATOM     20  C   UNL     1       8.031   8.637  17.580  0.00  0.00    +0.000 C 
BRANCH  20  21
ATOM     21  C   UNL     1       8.759   9.437  18.659  0.00  0.00    +0.000 C 
BRANCH  21  22
ATOM     22  C   UNL     1       9.314  10.742  18.092  0.00  0.00    +0.000 C 
BRANCH  22  23
ATOM     23  C   UNL     1       9.620  11.733  19.210  0.00  0.00    +0.000 C 
BRANCH  23  24
ATOM     24  N   UNL     1       8.925  12.987  19.027  0.00  0.00    +0.000 N 
ATOM     25  C   UNL     1       8.758  13.982  19.942  0.00  0.00    +0.000 A 
ATOM     26  C   UNL     1       7.959  14.892  19.293  0.00  0.00    +0.000 A 
ATOM     27  N   UNL     1       7.682  14.433  18.031  0.00  0.00    +0.000 NA
ATOM     28  N   UNL     1       8.299  13.267  17.874  0.00  0.00    +0.000 NA
BRANCH  26  29
ATOM     29  C   UNL     1       7.423  16.107  19.857  0.00  0.00    +0.000 A 
ATOM     30  C   UNL     1       6.128  16.548  19.569  0.00  0.00    +0.000 A 
ATOM     31  C   UNL     1       5.674  17.757  20.092  0.00  0.00    +0.000 A 
ATOM     32  C   UNL     1       6.535  18.491  20.892  0.00  0.00    +0.000 A 
ATOM     33  N   UNL     1       7.786  18.092  21.209  0.00  0.00    +0.000 NA
ATOM     34  C   UNL     1       8.197  16.907  20.691  0.00  0.00    +0.000 A 
ENDBRANCH  26  29
ENDBRANCH  23  24
ENDBRANCH  22  23
ENDBRANCH  21  22
ENDBRANCH  20  21
ENDBRANCH  19  20
ENDBRANCH  18  19
ENDBRANCH   2  18
TORSDOF 11
ENDMDL
MODEL 7
REMARK VINA RESULT:      -7.8      1.267      1.677
REMARK  Name = 
REMARK  11 active torsions:
REMARK  status: ('A' for Active; 'I' for Inactive)
REMARK    1  A    between atoms: C_2  and  C_3
REMARK    2  A    between atoms: C_3  and  C_4
REMARK    3  A    between atoms: C_4  and  C_5
REMARK    4  A    between atoms: C_5  and  C_6
REMARK    5  A    between atoms: C_6  and  C_7
REMARK    6  A    between atoms: C_7  and  C_8
REMARK    7  A    between atoms: C_8  and  N_9
REMARK    8  A    between atoms: C_11  and  C_12
REMARK    9  A    between atoms: N_20  and  C_21
REMARK   10  A    between atoms: C_26  and  O_27
REMARK   11  A    between atoms: O_27  and  C_28
REMARK                            x       y       z     vdW  Elec       q    Type
REMARK                         _______ _______ _______ _____ _____    ______ ____
ROOT
ATOM      1  O   UNL     1       4.160   4.809  16.484  0.00  0.00    +0.000 OA
ATOM      2  C   UNL     1       4.972   4.640  17.389  0.00  0.00    +0.000 C 
ATOM      3  N   UNL     1       4.674   4.304  18.696  0.00  0.00    +0.000 N 
ATOM      4  H   UNL     1       5.390   4.450  19.399  0.00  0.00    +0.000 HD
ENDROOT
BRANCH   3   5
ATOM      5  C   UNL     1       3.390   3.967  19.190  0.00  0.00    +0.000 A 
ATOM      6  C   UNL     1       2.853   2.688  19.023  0.00  0.00    +0.000 A 
ATOM      7  C   UNL     1       1.628   2.339  19.595  0.00  0.00    +0.000 A 
ATOM      8  C   UNL     1       0.921   3.266  20.350  0.00  0.00    +0.000 A 
ATOM      9  C   UNL     1       1.423   4.558  20.505  0.00  0.00    +0.000 A 
ATOM     10  C   UNL     1       2.637   4.921  19.908  0.00  0.00    +0.000 A 
BRANCH  10  11
ATOM     11  O   UNL     1       3.053   6.216  20.140  0.00  0.00    +0.000 OA
BRANCH  11  12
ATOM     12  C   UNL     1       2.402   7.274  19.538  0.00  0.00    +0.000 A 
ATOM     13  C   UNL     1       2.464   7.613  18.185  0.00  0.00    +0.000 A 
ATOM     14  C   UNL     1       1.840   8.773  17.721  0.00  0.00    +0.000 A 
ATOM     15  C   UNL     1       1.114   9.580  18.594  0.00  0.00    +0.000 A 
ATOM     16  C   UNL     1       0.997   9.216  19.934  0.00  0.00    +0.000 A 
ATOM     17  C   UNL     1       1.639   8.067  20.403  0.00  0.00    +0.000 A 
ENDBRANCH  11  12
ENDBRANCH  10  11
ENDBRANCH   3   5
BRANCH   2  18
ATOM     18  C   UNL     1       6.455   4.815  17.130  0.00  0.00    +0.000 C 
BRANCH  18  19
ATOM     19  C   UNL     1       7.259   4.673  18.421  0.00  0.00    +0.000 C 
BRANCH  19  20
ATOM     20  C   UNL     1       7.867   6.006  18.860  0.00  0.00    +0.000 C 
BRANCH  20  21
ATOM     21  C   UNL     1       7.814   7.039  17.736  0.00  0.00    +0.000 C 
BRANCH  21  22
ATOM     22  C   UNL     1       7.460   8.422  18.278  0.00  0.00    +0.000 C 
BRANCH  22  23
ATOM     23  C   UNL     1       8.115   9.518  17.445  0.00  0.00    +0.000 C 
BRANCH  23  24
ATOM     24  N   UNL     1       8.732  10.531  18.270  0.00  0.00    +0.000 N 
ATOM     25  C   UNL     1       8.979  11.829  17.942  0.00  0.00    +0.000 A 
ATOM     26  C   UNL     1       9.652  12.321  19.034  0.00  0.00    +0.000 A 
ATOM     27  N   UNL     1       9.779  11.328  19.972  0.00  0.00    +0.000 NA
ATOM     28  N   UNL     1       9.191  10.237  19.497  0.00  0.00    +0.000 NA
BRANCH  26  29
ATOM     29  C   UNL     1      10.211  13.645  19.163  0.00  0.00    +0.000 A 
ATOM     30  C   UNL     1      11.263  13.922  20.042  0.00  0.00    +0.000 A 
ATOM     31  C   UNL     1      11.731  15.227  20.174  0.00  0.00    +0.000 A 
ATOM     32  C   UNL     1      11.130  16.220  19.419  0.00  0.00    +0.000 A 
ATOM     33  N   UNL     1      10.125  15.992  18.545  0.00  0.00    +0.000 NA
ATOM     34  C   UNL     1       9.694  14.710  18.433  0.00  0.00    +0.000 A 
ENDBRANCH  26  29
ENDBRANCH  23  24
ENDBRANCH  22  23
ENDBRANCH  21  22
ENDBRANCH  20  21
ENDBRANCH  19  20
ENDBRANCH  18  19
ENDBRANCH   2  18
TORSDOF 11
ENDMDL
MODEL 8
REMARK VINA RESULT:      -7.8      1.076      1.406
REMARK  Name = 
REMARK  11 active torsions:
REMARK  status: ('A' for Active; 'I' for Inactive)
REMARK    1  A    between atoms: C_2  and  C_3
REMARK    2  A    between atoms: C_3  and  C_4
REMARK    3  A    between atoms: C_4  and  C_5
REMARK    4  A    between atoms: C_5  and  C_6
REMARK    5  A    between atoms: C_6  and  C_7
REMARK    6  A    between atoms: C_7  and  C_8
REMARK    7  A    between atoms: C_8  and  N_9
REMARK    8  A    between atoms: C_11  and  C_12
REMARK    9  A    between atoms: N_20  and  C_21
REMARK   10  A    between atoms: C_26  and  O_27
REMARK   11  A    between atoms: O_27  and  C_28
REMARK                            x       y       z     vdW  Elec       q    Type
REMARK                         _______ _______ _______ _____ _____    ______ ____
ROOT
ATOM      1  O   UNL     1       4.935   3.088  17.387  0.00  0.00    +0.000 OA
ATOM      2  C   UNL     1       4.482   4.112  16.885  0.00  0.00    +0.000 C 
ATOM      3  N   UNL     1       3.288   4.724  17.220  0.00  0.00    +0.000 N 
ATOM      4  H   UNL     1       2.900   5.398  16.570  0.00  0.00    +0.000 HD
ENDROOT
BRANCH   3   5
ATOM      5  C   UNL     1       2.443   4.350  18.294  0.00  0.00    +0.000 A 
ATOM      6  C   UNL     1       1.735   3.144  18.285  0.00  0.00    +0.000 A 
ATOM      7  C   UNL     1       0.980   2.742  19.387  0.00  0.00    +0.000 A 
ATOM      8  C   UNL     1       0.923   3.540  20.523  0.00  0.00    +0.000 A 
ATOM      9  C   UNL     1       1.597   4.762  20.544  0.00  0.00    +0.000 A 
ATOM     10  C   UNL     1       2.332   5.182  19.428  0.00  0.00    +0.000 A 
BRANCH  10  11
ATOM     11  O   UNL     1       2.976   6.395  19.560  0.00  0.00    +0.000 OA
BRANCH  11  12
ATOM     12  C   UNL     1       2.277   7.575  19.393  0.00  0.00    +0.000 A 
ATOM     13  C   UNL     1       1.553   8.246  20.380  0.00  0.00    +0.000 A 
ATOM     14  C   UNL     1       0.801   9.378  20.054  0.00  0.00    +0.000 A 
ATOM     15  C   UNL     1       0.803   9.873  18.751  0.00  0.00    +0.000 A 
ATOM     16  C   UNL     1       1.572   9.243  17.774  0.00  0.00    +0.000 A 
ATOM     17  C   UNL     1       2.306   8.099  18.095  0.00  0.00    +0.000 A 
ENDBRANCH  11  12
ENDBRANCH  10  11
ENDBRANCH   3   5
BRANCH   2  18
ATOM     18  C   UNL     1       5.234   4.819  15.775  0.00  0.00    +0.000 C 
BRANCH  18  19
ATOM     19  C   UNL     1       6.376   5.665  16.336  0.00  0.00    +0.000 C 
BRANCH  19  20
ATOM     20  C   UNL     1       6.811   5.181  17.720  0.00  0.00    +0.000 C 
BRANCH  20  21
ATOM     21  C   UNL     1       7.216   6.349  18.617  0.00  0.00    +0.000 C 
BRANCH  21  22
ATOM     22  C   UNL     1       8.171   7.294  17.889  0.00  0.00    +0.000 C 
BRANCH  22  23
ATOM     23  C   UNL     1       7.519   8.652  17.655  0.00  0.00    +0.000 C 
BRANCH  23  24
ATOM     24  N   UNL     1       8.317   9.734  18.183  0.00  0.00    +0.000 N 
ATOM     25  C   UNL     1       8.330  11.032  17.771  0.00  0.00    +0.000 A 
ATOM     26  C   UNL     1       9.317  11.608  18.533  0.00  0.00    +0.000 A 
ATOM     27  N   UNL     1       9.852  10.664  19.371  0.00  0.00    +0.000 NA
ATOM     28  N   UNL     1       9.214   9.519  19.159  0.00  0.00    +0.000 NA
BRANCH  26  29
ATOM     29  C   UNL     1       9.784  12.970  18.431  0.00  0.00    +0.000 A 
ATOM     30  C   UNL     1       9.424  13.948  19.363  0.00  0.00    +0.000 A 
ATOM     31  C   UNL     1       9.852  15.262  19.190  0.00  0.00    +0.000 A 
ATOM     32  C   UNL     1      10.632  15.559  18.085  0.00  0.00    +0.000 A 
ATOM     33  N   UNL     1      11.017  14.641  17.172  0.00  0.00    +0.000 NA
ATOM     34  C   UNL     1      10.590  13.368  17.370  0.00  0.00    +0.000 A 
ENDBRANCH  26  29
ENDBRANCH  23  24
ENDBRANCH  22  23
ENDBRANCH  21  22
ENDBRANCH  20  21
ENDBRANCH  19  20
ENDBRANCH  18  19
ENDBRANCH   2  18
TORSDOF 11
ENDMDL
MODEL 9
REMARK VINA RESULT:      -7.8      1.079      1.170
REMARK  Name = 
REMARK  11 active torsions:
REMARK  status: ('A' for Active; 'I' for Inactive)
REMARK    1  A    between atoms: C_2  and  C_3
REMARK    2  A    between atoms: C_3  and  C_4
REMARK    3  A    between atoms: C_4  and  C_5
REMARK    4  A    between atoms: C_5  and  C_6
REMARK    5  A    between atoms: C_6  and  C_7
REMARK    6  A    between atoms: C_7  and  C_8
REMARK    7  A    between atoms: C_8  and  N_9
REMARK    8  A    between atoms: C_11  and  C_12
REMARK    9  A    between atoms: N_20  and  C_21
REMARK   10  A    between atoms: C_26  and  O_27
REMARK   11  A    between atoms: O_27  and  C_28
REMARK                            x       y       z     vdW  Elec       q    Type
REMARK                         _______ _______ _______ _____ _____    ______ ____
ROOT
ATOM      1  O   UNL     1       5.755   4.266  19.702  0.00  0.00    +0.000 OA
ATOM      2  C   UNL     1       5.471   4.461  18.524  0.00  0.00    +0.000 C 
ATOM      3  N   UNL     1       4.224   4.298  17.950  0.00  0.00    +0.000 N 
ATOM      4  H   UNL     1       4.170   4.232  16.940  0.00  0.00    +0.000 HD
ENDROOT
BRANCH   3   5
ATOM      5  C   UNL     1       3.026   4.007  18.648  0.00  0.00    +0.000 A 
ATOM      6  C   UNL     1       2.354   2.794  18.476  0.00  0.00    +0.000 A 
ATOM      7  C   UNL     1       1.227   2.478  19.237  0.00  0.00    +0.000 A 
ATOM      8  C   UNL     1       0.756   3.373  20.190  0.00  0.00    +0.000 A 
ATOM      9  C   UNL     1       1.393   4.602  20.359  0.00  0.00    +0.000 A 
ATOM     10  C   UNL     1       2.507   4.935  19.576  0.00  0.00    +0.000 A 
BRANCH  10  11
ATOM     11  O   UNL     1       3.073   6.165  19.837  0.00  0.00    +0.000 OA
BRANCH  11  12
ATOM     12  C   UNL     1       2.385   7.325  19.540  0.00  0.00    +0.000 A 
ATOM     13  C   UNL     1       1.675   8.113  20.448  0.00  0.00    +0.000 A 
ATOM     14  C   UNL     1       0.932   9.207  19.999  0.00  0.00    +0.000 A 
ATOM     15  C   UNL     1       0.927   9.548  18.648  0.00  0.00    +0.000 A 
ATOM     16  C   UNL     1       1.681   8.802  17.744  0.00  0.00    +0.000 A 
ATOM     17  C   UNL     1       2.407   7.695  18.189  0.00  0.00    +0.000 A 
ENDBRANCH  11  12
ENDBRANCH  10  11
ENDBRANCH   3   5
BRANCH   2  18
ATOM     18  C   UNL     1       6.538   4.903  17.542  0.00  0.00    +0.000 C 
BRANCH  18  19
ATOM     19  C   UNL     1       7.580   5.788  18.223  0.00  0.00    +0.000 C 
BRANCH  19  20
ATOM     20  C   UNL     1       7.165   7.260  18.215  0.00  0.00    +0.000 C 
BRANCH  20  21
ATOM     21  C   UNL     1       8.166   8.116  17.441  0.00  0.00    +0.000 C 
BRANCH  21  22
ATOM     22  C   UNL     1       8.191   9.548  17.975  0.00  0.00    +0.000 C 
BRANCH  22  23
ATOM     23  C   UNL     1       9.160   9.674  19.145  0.00  0.00    +0.000 C 
BRANCH  23  24
ATOM     24  N   UNL     1       9.780  10.978  19.196  0.00  0.00    +0.000 N 
ATOM     25  C   UNL     1       9.166  12.182  19.361  0.00  0.00    +0.000 A 
ATOM     26  C   UNL     1      10.190  13.091  19.245  0.00  0.00    +0.000 A 
ATOM     27  N   UNL     1      11.367  12.422  19.027  0.00  0.00    +0.000 NA
ATOM     28  N   UNL     1      11.103  11.121  19.019  0.00  0.00    +0.000 NA
BRANCH  26  29
ATOM     29  C   UNL     1      10.057  14.528  19.269  0.00  0.00    +0.000 A 
ATOM     30  C   UNL     1       9.704  15.257  18.129  0.00  0.00    +0.000 A 
ATOM     31  C   UNL     1       9.645  16.648  18.186  0.00  0.00    +0.000 A 
ATOM     32  C   UNL     1       9.942  17.269  19.388  0.00  0.00    +0.000 A 
ATOM     33  N   UNL     1      10.269  16.601  20.515  0.00  0.00    +0.000 NA
ATOM     34  C   UNL     1      10.313  15.248  20.431  0.00  0.00    +0.000 A 
ENDBRANCH  26  29
ENDBRANCH  23  24
ENDBRANCH  22  23
ENDBRANCH  21  22
ENDBRANCH  20  21
ENDBRANCH  19  20
ENDBRANCH  18  19
ENDBRANCH   2  18
TORSDOF 11
ENDMDL
