MODEL 1
REMARK VINA RESULT:      -8.1      0.000      0.000
REMARK  Name = 
REMARK  7 active torsions:
REMARK  status: ('A' for Active; 'I' for Inactive)
REMARK    1  A    between atoms: C_1  and  O_2
REMARK    2  A    between atoms: O_2  and  C_3
REMARK    3  A    between atoms: C_6  and  S_7
REMARK    4  A    between atoms: S_7  and  C_10
REMARK    5  A    between atoms: C_10  and  C_11
REMARK    6  A    between atoms: C_14  and  C_15
REMARK    7  A    between atoms: C_21  and  C_23
REMARK                            x       y       z     vdW  Elec       q    Type
REMARK                         _______ _______ _______ _____ _____    ______ ____
ROOT
ATOM      1  C   UNL     1       1.986   4.801  19.227  0.00  0.00    +0.000 A 
ATOM      2  C   UNL     1       1.896   5.293  20.512  0.00  0.00    +0.000 A 
ATOM      3  C   UNL     1       1.911   6.705  20.401  0.00  0.00    +0.000 A 
ATOM      4  C   UNL     1       2.067   7.007  19.059  0.00  0.00    +0.000 A 
ATOM      5  O   UNL     1       2.037   5.839  18.341  0.00  0.00    +0.000 OA
ENDROOT
BRANCH   4   6
ATOM      6  C   UNL     1       2.186   8.311  18.415  0.00  0.00    +0.000 C 
ATOM      7  O   UNL     1       2.684   8.404  17.293  0.00  0.00    +0.000 OA
ATOM      8  N   UNL     1       1.656   9.443  19.046  0.00  0.00    +0.000 N 
ATOM      9  C   UNL     1       1.660  10.737  18.337  0.00  0.00    +0.000 C 
ATOM     10  C   UNL     1       0.253  11.373  18.275  0.00  0.00    +0.000 C 
ATOM     11  N   UNL     1      -0.399  11.364  19.589  0.00  0.00    +0.000 N 
ATOM     12  C   UNL     1      -1.180  12.451  19.991  0.00  0.00    +0.000 C 
ATOM     13  O   UNL     1      -1.417  13.373  19.211  0.00  0.00    +0.000 OA
ATOM     14  C   UNL     1      -0.431  10.040  20.220  0.00  0.00    +0.000 C 
ATOM     15  C   UNL     1       0.984   9.480  20.353  0.00  0.00    +0.000 C 
BRANCH  12  16
ATOM     16  C   UNL     1      -1.706  12.456  21.347  0.00  0.00    +0.000 A 
ATOM     17  C   UNL     1      -3.004  12.356  21.814  0.00  0.00    +0.000 A 
ATOM     18  C   UNL     1      -2.939  12.398  23.228  0.00  0.00    +0.000 A 
ATOM     19  C   UNL     1      -1.614  12.572  23.544  0.00  0.00    +0.000 A 
ATOM     20  O   UNL     1      -0.865  12.646  22.415  0.00  0.00    +0.000 OA
ENDBRANCH  12  16
ENDBRANCH   4   6
BRANCH   1  21
ATOM     21  C   UNL     1       1.967   3.434  18.649  0.00  0.00    +0.000 C 
BRANCH  21  22
ATOM     22  S   UNL     1       3.548   2.640  18.913  0.00  0.00    +0.000 S 
ATOM     23  O   UNL     1       3.626   1.441  18.097  0.00  0.00    +0.000 OA
ATOM     24  O   UNL     1       3.838   2.589  20.337  0.00  0.00    +0.000 OA
BRANCH  22  28
ATOM     25  C   UNL     1       6.533   5.609  17.084  0.00  0.00    +0.000 A 
ATOM     26  C   UNL     1       6.460   5.440  18.471  0.00  0.00    +0.000 A 
ATOM     27  C   UNL     1       5.558   4.533  19.035  0.00  0.00    +0.000 A 
ATOM     28  C   UNL     1       4.699   3.812  18.202  0.00  0.00    +0.000 A 
ATOM     29  C   UNL     1       4.767   3.969  16.812  0.00  0.00    +0.000 A 
ATOM     30  C   UNL     1       5.682   4.873  16.257  0.00  0.00    +0.000 A 
BRANCH  25  32
ATOM     31  C   UNL     1       7.621   7.674  17.509  0.00  0.00    +0.000 C 
ATOM     32  O   UNL     1       7.438   6.544  16.661  0.00  0.00    +0.000 OA
ENDBRANCH  25  32
ENDBRANCH  22  28
ENDBRANCH  21  22
ENDBRANCH   1  21
TORSDOF 6
ENDMDL
MODEL 2
REMARK VINA RESULT:      -8.1      5.966      9.460
REMARK  Name = 
REMARK  7 active torsions:
REMARK  status: ('A' for Active; 'I' for Inactive)
REMARK    1  A    between atoms: C_1  and  O_2
REMARK    2  A    between atoms: O_2  and  C_3
REMARK    3  A    between atoms: C_6  and  S_7
REMARK    4  A    between atoms: S_7  and  C_10
REMARK    5  A    between atoms: C_10  and  C_11
REMARK    6  A    between atoms: C_14  and  C_15
REMARK    7  A    between atoms: C_21  and  C_23
REMARK                            x       y       z     vdW  Elec       q    Type
REMARK                         _______ _______ _______ _____ _____    ______ ____
ROOT
ATOM      1  C   UNL     1       8.183   9.296  18.037  0.00  0.00    +0.000 A 
ATOM      2  C   UNL     1       8.581   8.416  19.021  0.00  0.00    +0.000 A 
ATOM      3  C   UNL     1       8.273   7.118  18.544  0.00  0.00    +0.000 A 
ATOM      4  C   UNL     1       7.650   7.272  17.317  0.00  0.00    +0.000 A 
ATOM      5  O   UNL     1       7.666   8.601  16.982  0.00  0.00    +0.000 OA
ENDROOT
BRANCH   4   6
ATOM      6  C   UNL     1       7.097   6.254  16.430  0.00  0.00    +0.000 C 
ATOM      7  O   UNL     1       7.709   5.917  15.417  0.00  0.00    +0.000 OA
ATOM      8  N   UNL     1       5.907   5.604  16.782  0.00  0.00    +0.000 N 
ATOM      9  C   UNL     1       5.419   4.486  15.952  0.00  0.00    +0.000 C 
ATOM     10  C   UNL     1       5.162   3.211  16.786  0.00  0.00    +0.000 C 
ATOM     11  N   UNL     1       4.379   3.505  17.991  0.00  0.00    +0.000 N 
ATOM     12  C   UNL     1       3.405   2.604  18.430  0.00  0.00    +0.000 C 
ATOM     13  O   UNL     1       3.268   1.513  17.879  0.00  0.00    +0.000 OA
ATOM     14  C   UNL     1       4.944   4.581  18.811  0.00  0.00    +0.000 C 
ATOM     15  C   UNL     1       5.097   5.857  17.982  0.00  0.00    +0.000 C 
BRANCH  12  16
ATOM     16  C   UNL     1       2.568   2.991  19.555  0.00  0.00    +0.000 A 
ATOM     17  C   UNL     1       1.498   3.866  19.629  0.00  0.00    +0.000 A 
ATOM     18  C   UNL     1       1.041   3.848  20.969  0.00  0.00    +0.000 A 
ATOM     19  C   UNL     1       1.886   3.006  21.649  0.00  0.00    +0.000 A 
ATOM     20  O   UNL     1       2.834   2.512  20.813  0.00  0.00    +0.000 OA
ENDBRANCH  12  16
ENDBRANCH   4   6
BRANCH   1  21
ATOM     21  C   UNL     1       8.269  10.770  17.884  0.00  0.00    +0.000 C 
BRANCH  21  22
ATOM     22  S   UNL     1       9.585  11.412  18.911  0.00  0.00    +0.000 S 
ATOM     23  O   UNL     1      10.844  10.807  18.513  0.00  0.00    +0.000 OA
ATOM     24  O   UNL     1       9.166  11.406  20.303  0.00  0.00    +0.000 OA
BRANCH  22  28
ATOM     25  C   UNL     1       9.779  15.804  17.589  0.00  0.00    +0.000 A 
ATOM     26  C   UNL     1      10.871  14.953  17.387  0.00  0.00    +0.000 A 
ATOM     27  C   UNL     1      10.817  13.612  17.781  0.00  0.00    +0.000 A 
ATOM     28  C   UNL     1       9.669  13.129  18.413  0.00  0.00    +0.000 A 
ATOM     29  C   UNL     1       8.568  13.970  18.616  0.00  0.00    +0.000 A 
ATOM     30  C   UNL     1       8.630  15.309  18.208  0.00  0.00    +0.000 A 
BRANCH  25  32
ATOM     31  C   UNL     1       9.781  18.104  18.172  0.00  0.00    +0.000 C 
ATOM     32  O   UNL     1       9.969  17.096  17.183  0.00  0.00    +0.000 OA
ENDBRANCH  25  32
ENDBRANCH  22  28
ENDBRANCH  21  22
ENDBRANCH   1  21
TORSDOF 6
ENDMDL
MODEL 3
REMARK VINA RESULT:      -7.9      5.692      9.376
REMARK  Name = 
REMARK  7 active torsions:
REMARK  status: ('A' for Active; 'I' for Inactive)
REMARK    1  A    between atoms: C_1  and  O_2
REMARK    2  A    between atoms: O_2  and  C_3
REMARK    3  A    between atoms: C_6  and  S_7
REMARK    4  A    between atoms: S_7  and  C_10
REMARK    5  A    between atoms: C_10  and  C_11
REMARK    6  A    between atoms: C_14  and  C_15
REMARK    7  A    between atoms: C_21  and  C_23
REMARK                            x       y       z     vdW  Elec       q    Type
REMARK                         _______ _______ _______ _____ _____    ______ ____
ROOT
ATOM      1  C   UNL     1       8.351   9.256  18.164  0.00  0.00    +0.000 A 
ATOM      2  C   UNL     1       8.678   8.318  19.119  0.00  0.00    +0.000 A 
ATOM      3  C   UNL     1       8.289   7.061  18.594  0.00  0.00    +0.000 A 
ATOM      4  C   UNL     1       7.691   7.299  17.369  0.00  0.00    +0.000 A 
ATOM      5  O   UNL     1       7.800   8.635  17.081  0.00  0.00    +0.000 OA
ENDROOT
BRANCH   4   6
ATOM      6  C   UNL     1       7.081   6.352  16.441  0.00  0.00    +0.000 C 
ATOM      7  O   UNL     1       7.660   6.044  15.400  0.00  0.00    +0.000 OA
ATOM      8  N   UNL     1       5.871   5.735  16.782  0.00  0.00    +0.000 N 
ATOM      9  C   UNL     1       5.322   4.682  15.906  0.00  0.00    +0.000 C 
ATOM     10  C   UNL     1       5.027   3.376  16.677  0.00  0.00    +0.000 C 
ATOM     11  N   UNL     1       4.278   3.638  17.911  0.00  0.00    +0.000 N 
ATOM     12  C   UNL     1       3.275   2.756  18.323  0.00  0.00    +0.000 C 
ATOM     13  O   UNL     1       3.083   1.702  17.718  0.00  0.00    +0.000 OA
ATOM     14  C   UNL     1       4.902   4.646  18.774  0.00  0.00    +0.000 C 
ATOM     15  C   UNL     1       5.093   5.956  18.010  0.00  0.00    +0.000 C 
BRANCH  12  16
ATOM     16  C   UNL     1       2.475   3.117  19.483  0.00  0.00    +0.000 A 
ATOM     17  C   UNL     1       2.315   2.486  20.703  0.00  0.00    +0.000 A 
ATOM     18  C   UNL     1       1.433   3.286  21.470  0.00  0.00    +0.000 A 
ATOM     19  C   UNL     1       1.063   4.331  20.659  0.00  0.00    +0.000 A 
ATOM     20  O   UNL     1       1.657   4.219  19.445  0.00  0.00    +0.000 OA
ENDBRANCH  12  16
ENDBRANCH   4   6
BRANCH   1  21
ATOM     21  C   UNL     1       8.538  10.726  18.064  0.00  0.00    +0.000 C 
BRANCH  21  22
ATOM     22  S   UNL     1       9.709  11.275  19.299  0.00  0.00    +0.000 S 
ATOM     23  O   UNL     1      11.049  10.880  18.900  0.00  0.00    +0.000 OA
ATOM     24  O   UNL     1       9.207  10.957  20.626  0.00  0.00    +0.000 OA
BRANCH  22  28
ATOM     25  C   UNL     1       9.564  15.842  18.860  0.00  0.00    +0.000 A 
ATOM     26  C   UNL     1      10.373  15.248  19.834  0.00  0.00    +0.000 A 
ATOM     27  C   UNL     1      10.428  13.857  19.970  0.00  0.00    +0.000 A 
ATOM     28  C   UNL     1       9.639  13.056  19.142  0.00  0.00    +0.000 A 
ATOM     29  C   UNL     1       8.828  13.639  18.160  0.00  0.00    +0.000 A 
ATOM     30  C   UNL     1       8.790  15.033  18.025  0.00  0.00    +0.000 A 
BRANCH  25  32
ATOM     31  C   UNL     1       8.375  17.853  18.446  0.00  0.00    +0.000 C 
ATOM     32  O   UNL     1       9.580  17.210  18.848  0.00  0.00    +0.000 OA
ENDBRANCH  25  32
ENDBRANCH  22  28
ENDBRANCH  21  22
ENDBRANCH   1  21
TORSDOF 6
ENDMDL
MODEL 4
REMARK VINA RESULT:      -7.7      0.661      1.179
REMARK  Name = 
REMARK  7 active torsions:
REMARK  status: ('A' for Active; 'I' for Inactive)
REMARK    1  A    between atoms: C_1  and  O_2
REMARK    2  A    between atoms: O_2  and  C_3
REMARK    3  A    between atoms: C_6  and  S_7
REMARK    4  A    between atoms: S_7  and  C_10
REMARK    5  A    between atoms: C_10  and  C_11
REMARK    6  A    between atoms: C_14  and  C_15
REMARK    7  A    between atoms: C_21  and  C_23
REMARK                            x       y       z     vdW  Elec       q    Type
REMARK                         _______ _______ _______ _____ _____    ______ ____
ROOT
ATOM      1  C   UNL     1       1.950   4.643  19.437  0.00  0.00    +0.000 A 
ATOM      2  C   UNL     1       1.836   5.161  20.710  0.00  0.00    +0.000 A 
ATOM      3  C   UNL     1       1.888   6.570  20.574  0.00  0.00    +0.000 A 
ATOM      4  C   UNL     1       2.088   6.842  19.232  0.00  0.00    +0.000 A 
ATOM      5  O   UNL     1       2.051   5.662  18.535  0.00  0.00    +0.000 OA
ENDROOT
BRANCH   4   6
ATOM      6  C   UNL     1       2.257   8.131  18.568  0.00  0.00    +0.000 C 
ATOM      7  O   UNL     1       2.805   8.194  17.468  0.00  0.00    +0.000 OA
ATOM      8  N   UNL     1       1.718   9.284  19.152  0.00  0.00    +0.000 N 
ATOM      9  C   UNL     1       1.774  10.562  18.418  0.00  0.00    +0.000 C 
ATOM     10  C   UNL     1       0.381  11.218  18.281  0.00  0.00    +0.000 C 
ATOM     11  N   UNL     1      -0.328  11.246  19.565  0.00  0.00    +0.000 N 
ATOM     12  C   UNL     1      -1.109  12.353  19.910  0.00  0.00    +0.000 C 
ATOM     13  O   UNL     1      -1.296  13.262  19.103  0.00  0.00    +0.000 OA
ATOM     14  C   UNL     1      -0.410   9.937  20.220  0.00  0.00    +0.000 C 
ATOM     15  C   UNL     1       0.990   9.358  20.427  0.00  0.00    +0.000 C 
BRANCH  12  16
ATOM     16  C   UNL     1      -1.694  12.394  21.241  0.00  0.00    +0.000 A 
ATOM     17  C   UNL     1      -3.016  12.409  21.648  0.00  0.00    +0.000 A 
ATOM     18  C   UNL     1      -3.013  12.432  23.064  0.00  0.00    +0.000 A 
ATOM     19  C   UNL     1      -1.693  12.482  23.442  0.00  0.00    +0.000 A 
ATOM     20  O   UNL     1      -0.890  12.497  22.348  0.00  0.00    +0.000 OA
ENDBRANCH  12  16
ENDBRANCH   4   6
BRANCH   1  21
ATOM     21  C   UNL     1       1.914   3.266  18.884  0.00  0.00    +0.000 C 
BRANCH  21  22
ATOM     22  S   UNL     1       3.498   2.471  19.127  0.00  0.00    +0.000 S 
ATOM     23  O   UNL     1       3.470   1.150  18.525  0.00  0.00    +0.000 OA
ATOM     24  O   UNL     1       3.929   2.651  20.504  0.00  0.00    +0.000 OA
BRANCH  22  28
ATOM     25  C   UNL     1       6.279   5.056  16.547  0.00  0.00    +0.000 A 
ATOM     26  C   UNL     1       5.266   4.294  15.954  0.00  0.00    +0.000 A 
ATOM     27  C   UNL     1       4.411   3.510  16.735  0.00  0.00    +0.000 A 
ATOM     28  C   UNL     1       4.594   3.463  18.118  0.00  0.00    +0.000 A 
ATOM     29  C   UNL     1       5.602   4.225  18.723  0.00  0.00    +0.000 A 
ATOM     30  C   UNL     1       6.445   5.016  17.932  0.00  0.00    +0.000 A 
BRANCH  25  32
ATOM     31  C   UNL     1       7.280   5.160  14.398  0.00  0.00    +0.000 C 
ATOM     32  O   UNL     1       7.062   5.758  15.672  0.00  0.00    +0.000 OA
ENDBRANCH  25  32
ENDBRANCH  22  28
ENDBRANCH  21  22
ENDBRANCH   1  21
TORSDOF 6
ENDMDL
MODEL 5
REMARK VINA RESULT:      -7.5      1.205      1.731
REMARK  Name = 
REMARK  7 active torsions:
REMARK  status: ('A' for Active; 'I' for Inactive)
REMARK    1  A    between atoms: C_1  and  O_2
REMARK    2  A    between atoms: O_2  and  C_3
REMARK    3  A    between atoms: C_6  and  S_7
REMARK    4  A    between atoms: S_7  and  C_10
REMARK    5  A    between atoms: C_10  and  C_11
REMARK    6  A    between atoms: C_14  and  C_15
REMARK    7  A    between atoms: C_21  and  C_23
REMARK                            x       y       z     vdW  Elec       q    Type
REMARK                         _______ _______ _______ _____ _____    ______ ____
ROOT
ATOM      1  C   UNL     1       2.926   4.841  20.021  0.00  0.00    +0.000 A 
ATOM      2  C   UNL     1       1.922   5.192  20.898  0.00  0.00    +0.000 A 
ATOM      3  C   UNL     1       1.478   6.478  20.502  0.00  0.00    +0.000 A 
ATOM      4  C   UNL     1       2.272   6.873  19.439  0.00  0.00    +0.000 A 
ATOM      5  O   UNL     1       3.104   5.837  19.105  0.00  0.00    +0.000 OA
ENDROOT
BRANCH   4   6
ATOM      6  C   UNL     1       2.257   8.129  18.696  0.00  0.00    +0.000 C 
ATOM      7  O   UNL     1       2.718   8.178  17.555  0.00  0.00    +0.000 OA
ATOM      8  N   UNL     1       1.643   9.256  19.255  0.00  0.00    +0.000 N 
ATOM      9  C   UNL     1       1.514  10.486  18.451  0.00  0.00    +0.000 C 
ATOM     10  C   UNL     1       0.055  10.989  18.384  0.00  0.00    +0.000 C 
ATOM     11  N   UNL     1      -0.562  11.025  19.715  0.00  0.00    +0.000 N 
ATOM     12  C   UNL     1      -1.428  12.068  20.058  0.00  0.00    +0.000 C 
ATOM     13  O   UNL     1      -1.765  12.902  19.218  0.00  0.00    +0.000 OA
ATOM     14  C   UNL     1      -0.460   9.757  20.445  0.00  0.00    +0.000 C 
ATOM     15  C   UNL     1       1.003   9.335  20.576  0.00  0.00    +0.000 C 
BRANCH  12  16
ATOM     16  C   UNL     1      -1.919  12.132  21.425  0.00  0.00    +0.000 A 
ATOM     17  C   UNL     1      -1.281  11.889  22.628  0.00  0.00    +0.000 A 
ATOM     18  C   UNL     1      -2.230  12.121  23.654  0.00  0.00    +0.000 A 
ATOM     19  C   UNL     1      -3.406  12.441  23.020  0.00  0.00    +0.000 A 
ATOM     20  O   UNL     1      -3.239  12.415  21.674  0.00  0.00    +0.000 OA
ENDBRANCH  12  16
ENDBRANCH   4   6
BRANCH   1  21
ATOM     21  C   UNL     1       3.757   3.623  19.849  0.00  0.00    +0.000 C 
BRANCH  21  22
ATOM     22  S   UNL     1       3.487   2.926  18.224  0.00  0.00    +0.000 S 
ATOM     23  O   UNL     1       2.224   3.411  17.697  0.00  0.00    +0.000 OA
ATOM     24  O   UNL     1       3.785   1.503  18.245  0.00  0.00    +0.000 OA
BRANCH  22  28
ATOM     25  C   UNL     1       6.764   4.956  15.731  0.00  0.00    +0.000 A 
ATOM     26  C   UNL     1       5.595   4.488  15.120  0.00  0.00    +0.000 A 
ATOM     27  C   UNL     1       4.590   3.875  15.874  0.00  0.00    +0.000 A 
ATOM     28  C   UNL     1       4.772   3.700  17.247  0.00  0.00    +0.000 A 
ATOM     29  C   UNL     1       5.936   4.169  17.871  0.00  0.00    +0.000 A 
ATOM     30  C   UNL     1       6.932   4.792  17.107  0.00  0.00    +0.000 A 
BRANCH  25  32
ATOM     31  C   UNL     1       7.629   5.077  13.525  0.00  0.00    +0.000 C 
ATOM     32  O   UNL     1       7.679   5.513  14.880  0.00  0.00    +0.000 OA
ENDBRANCH  25  32
ENDBRANCH  22  28
ENDBRANCH  21  22
ENDBRANCH   1  21
TORSDOF 6
ENDMDL
MODEL 6
REMARK VINA RESULT:      -7.5      0.886      1.154
REMARK  Name = 
REMARK  7 active torsions:
REMARK  status: ('A' for Active; 'I' for Inactive)
REMARK    1  A    between atoms: C_1  and  O_2
REMARK    2  A    between atoms: O_2  and  C_3
REMARK    3  A    between atoms: C_6  and  S_7
REMARK    4  A    between atoms: S_7  and  C_10
REMARK    5  A    between atoms: C_10  and  C_11
REMARK    6  A    between atoms: C_14  and  C_15
REMARK    7  A    between atoms: C_21  and  C_23
REMARK                            x       y       z     vdW  Elec       q    Type
REMARK                         _______ _______ _______ _____ _____    ______ ____
ROOT
ATOM      1  C   UNL     1       2.045   4.877  19.164  0.00  0.00    +0.000 A 
ATOM      2  C   UNL     1       1.976   5.325  20.466  0.00  0.00    +0.000 A 
ATOM      3  C   UNL     1       1.970   6.741  20.401  0.00  0.00    +0.000 A 
ATOM      4  C   UNL     1       2.093   7.087  19.066  0.00  0.00    +0.000 A 
ATOM      5  O   UNL     1       2.064   5.943  18.312  0.00  0.00    +0.000 OA
ENDROOT
BRANCH   4   6
ATOM      6  C   UNL     1       2.181   8.413  18.463  0.00  0.00    +0.000 C 
ATOM      7  O   UNL     1       2.698   8.556  17.355  0.00  0.00    +0.000 OA
ATOM      8  N   UNL     1       1.602   9.508  19.115  0.00  0.00    +0.000 N 
ATOM      9  C   UNL     1       1.577  10.822  18.444  0.00  0.00    +0.000 C 
ATOM     10  C   UNL     1       0.151  11.413  18.371  0.00  0.00    +0.000 C 
ATOM     11  N   UNL     1      -0.526  11.344  19.671  0.00  0.00    +0.000 N 
ATOM     12  C   UNL     1      -1.351  12.392  20.088  0.00  0.00    +0.000 C 
ATOM     13  O   UNL     1      -1.603  13.329  19.330  0.00  0.00    +0.000 OA
ATOM     14  C   UNL     1      -0.527  10.002  20.263  0.00  0.00    +0.000 C 
ATOM     15  C   UNL     1       0.904   9.484  20.409  0.00  0.00    +0.000 C 
BRANCH  12  16
ATOM     16  C   UNL     1      -1.903  12.340  21.432  0.00  0.00    +0.000 A 
ATOM     17  C   UNL     1      -1.292  12.121  22.654  0.00  0.00    +0.000 A 
ATOM     18  C   UNL     1      -2.303  12.196  23.642  0.00  0.00    +0.000 A 
ATOM     19  C   UNL     1      -3.481  12.406  22.967  0.00  0.00    +0.000 A 
ATOM     20  O   UNL     1      -3.256  12.457  21.630  0.00  0.00    +0.000 OA
ENDBRANCH  12  16
ENDBRANCH   4   6
BRANCH   1  21
ATOM     21  C   UNL     1       2.032   3.529  18.542  0.00  0.00    +0.000 C 
BRANCH  21  22
ATOM     22  S   UNL     1       3.588   2.702  18.849  0.00  0.00    +0.000 S 
ATOM     23  O   UNL     1       3.508   1.334  18.368  0.00  0.00    +0.000 OA
ATOM     24  O   UNL     1       4.035   2.988  20.203  0.00  0.00    +0.000 OA
BRANCH  22  28
ATOM     25  C   UNL     1       6.494   4.859  16.027  0.00  0.00    +0.000 A 
ATOM     26  C   UNL     1       6.692   4.895  17.411  0.00  0.00    +0.000 A 
ATOM     27  C   UNL     1       5.814   4.234  18.277  0.00  0.00    +0.000 A 
ATOM     28  C   UNL     1       4.711   3.559  17.751  0.00  0.00    +0.000 A 
ATOM     29  C   UNL     1       4.505   3.513  16.366  0.00  0.00    +0.000 A 
ATOM     30  C   UNL     1       5.397   4.169  15.508  0.00  0.00    +0.000 A 
BRANCH  25  32
ATOM     31  C   UNL     1       7.467   5.268  13.901  0.00  0.00    +0.000 C 
ATOM     32  O   UNL     1       7.407   5.566  15.293  0.00  0.00    +0.000 OA
ENDBRANCH  25  32
ENDBRANCH  22  28
ENDBRANCH  21  22
ENDBRANCH   1  21
TORSDOF 6
ENDMDL
MODEL 7
REMARK VINA RESULT:      -7.4      1.490      1.895
REMARK  Name = 
REMARK  7 active torsions:
REMARK  status: ('A' for Active; 'I' for Inactive)
REMARK    1  A    between atoms: C_1  and  O_2
REMARK    2  A    between atoms: O_2  and  C_3
REMARK    3  A    between atoms: C_6  and  S_7
REMARK    4  A    between atoms: S_7  and  C_10
REMARK    5  A    between atoms: C_10  and  C_11
REMARK    6  A    between atoms: C_14  and  C_15
REMARK    7  A    between atoms: C_21  and  C_23
REMARK                            x       y       z     vdW  Elec       q    Type
REMARK                         _______ _______ _______ _____ _____    ______ ____
ROOT
ATOM      1  C   UNL     1       2.542   5.638  19.371  0.00  0.00    +0.000 A 
ATOM      2  C   UNL     1       1.987   6.029  20.571  0.00  0.00    +0.000 A 
ATOM      3  C   UNL     1       1.632   7.393  20.421  0.00  0.00    +0.000 A 
ATOM      4  C   UNL     1       2.039   7.783  19.157  0.00  0.00    +0.000 A 
ATOM      5  O   UNL     1       2.527   6.685  18.496  0.00  0.00    +0.000 OA
ENDROOT
BRANCH   4   6
ATOM      6  C   UNL     1       1.949   9.094  18.524  0.00  0.00    +0.000 C 
ATOM      7  O   UNL     1       2.362   9.258  17.376  0.00  0.00    +0.000 OA
ATOM      8  N   UNL     1       1.316  10.145  19.200  0.00  0.00    +0.000 N 
ATOM      9  C   UNL     1       1.109  11.432  18.508  0.00  0.00    +0.000 C 
ATOM     10  C   UNL     1      -0.370  11.879  18.537  0.00  0.00    +0.000 C 
ATOM     11  N   UNL     1      -0.934  11.779  19.887  0.00  0.00    +0.000 N 
ATOM     12  C   UNL     1      -1.824  12.753  20.349  0.00  0.00    +0.000 C 
ATOM     13  O   UNL     1      -2.225  13.640  19.596  0.00  0.00    +0.000 OA
ATOM     14  C   UNL     1      -0.757  10.460  20.502  0.00  0.00    +0.000 C 
ATOM     15  C   UNL     1       0.725  10.088  20.545  0.00  0.00    +0.000 C 
BRANCH  12  16
ATOM     16  C   UNL     1      -2.264  12.683  21.733  0.00  0.00    +0.000 A 
ATOM     17  C   UNL     1      -3.524  12.503  22.275  0.00  0.00    +0.000 A 
ATOM     18  C   UNL     1      -3.373  12.496  23.683  0.00  0.00    +0.000 A 
ATOM     19  C   UNL     1      -2.040  12.724  23.924  0.00  0.00    +0.000 A 
ATOM     20  O   UNL     1      -1.368  12.875  22.755  0.00  0.00    +0.000 OA
ENDBRANCH  12  16
ENDBRANCH   4   6
BRANCH   1  21
ATOM     21  C   UNL     1       3.060   4.347  18.854  0.00  0.00    +0.000 C 
BRANCH  21  22
ATOM     22  S   UNL     1       4.829   4.257  19.101  0.00  0.00    +0.000 S 
ATOM     23  O   UNL     1       5.177   2.943  19.611  0.00  0.00    +0.000 OA
ATOM     24  O   UNL     1       5.291   5.461  19.773  0.00  0.00    +0.000 OA
BRANCH  22  28
ATOM     25  C   UNL     1       6.465   4.407  14.815  0.00  0.00    +0.000 A 
ATOM     26  C   UNL     1       7.289   4.723  15.900  0.00  0.00    +0.000 A 
ATOM     27  C   UNL     1       6.799   4.673  17.209  0.00  0.00    +0.000 A 
ATOM     28  C   UNL     1       5.463   4.335  17.429  0.00  0.00    +0.000 A 
ATOM     29  C   UNL     1       4.629   4.012  16.351  0.00  0.00    +0.000 A 
ATOM     30  C   UNL     1       5.133   4.054  15.044  0.00  0.00    +0.000 A 
BRANCH  25  32
ATOM     31  C   UNL     1       6.457   3.780  12.526  0.00  0.00    +0.000 C 
ATOM     32  O   UNL     1       7.056   4.519  13.586  0.00  0.00    +0.000 OA
ENDBRANCH  25  32
ENDBRANCH  22  28
ENDBRANCH  21  22
ENDBRANCH   1  21
TORSDOF 6
ENDMDL
MODEL 8
REMARK VINA RESULT:      -7.4      2.978      4.229
REMARK  Name = 
REMARK  7 active torsions:
REMARK  status: ('A' for Active; 'I' for Inactive)
REMARK    1  A    between atoms: C_1  and  O_2
REMARK    2  A    between atoms: O_2  and  C_3
REMARK    3  A    between atoms: C_6  and  S_7
REMARK    4  A    between atoms: S_7  and  C_10
REMARK    5  A    between atoms: C_10  and  C_11
REMARK    6  A    between atoms: C_14  and  C_15
REMARK    7  A    between atoms: C_21  and  C_23
REMARK                            x       y       z     vdW  Elec       q    Type
REMARK                         _______ _______ _______ _____ _____    ______ ____
ROOT
ATOM      1  C   UNL     1       2.450   7.346  19.135  0.00  0.00    +0.000 A 
ATOM      2  C   UNL     1       2.314   7.943  17.900  0.00  0.00    +0.000 A 
ATOM      3  C   UNL     1       1.489   9.078  18.094  0.00  0.00    +0.000 A 
ATOM      4  C   UNL     1       1.115   9.087  19.426  0.00  0.00    +0.000 A 
ATOM      5  O   UNL     1       1.766   8.067  20.070  0.00  0.00    +0.000 OA
ENDROOT
BRANCH   4   6
ATOM      6  C   UNL     1       0.236  10.015  20.131  0.00  0.00    +0.000 C 
ATOM      7  O   UNL     1      -0.562   9.597  20.969  0.00  0.00    +0.000 OA
ATOM      8  N   UNL     1       0.364  11.392  19.907  0.00  0.00    +0.000 N 
ATOM      9  C   UNL     1      -0.432  12.335  20.715  0.00  0.00    +0.000 C 
ATOM     10  C   UNL     1       0.448  13.401  21.404  0.00  0.00    +0.000 C 
ATOM     11  N   UNL     1       1.396  14.005  20.461  0.00  0.00    +0.000 N 
ATOM     12  C   UNL     1       1.687  15.370  20.539  0.00  0.00    +0.000 C 
ATOM     13  O   UNL     1       1.239  16.054  21.459  0.00  0.00    +0.000 OA
ATOM     14  C   UNL     1       2.206  13.025  19.732  0.00  0.00    +0.000 C 
ATOM     15  C   UNL     1       1.306  12.042  18.984  0.00  0.00    +0.000 C 
BRANCH  12  16
ATOM     16  C   UNL     1       2.535  15.953  19.511  0.00  0.00    +0.000 A 
ATOM     17  C   UNL     1       3.863  16.340  19.545  0.00  0.00    +0.000 A 
ATOM     18  C   UNL     1       4.185  16.827  18.255  0.00  0.00    +0.000 A 
ATOM     19  C   UNL     1       3.026  16.759  17.521  0.00  0.00    +0.000 A 
ATOM     20  O   UNL     1       2.014  16.268  18.280  0.00  0.00    +0.000 OA
ENDBRANCH  12  16
ENDBRANCH   4   6
BRANCH   1  21
ATOM     21  C   UNL     1       3.215   6.173  19.628  0.00  0.00    +0.000 C 
BRANCH  21  22
ATOM     22  S   UNL     1       2.961   4.779  18.536  0.00  0.00    +0.000 S 
ATOM     23  O   UNL     1       1.771   5.007  17.736  0.00  0.00    +0.000 OA
ATOM     24  O   UNL     1       3.133   3.540  19.277  0.00  0.00    +0.000 OA
BRANCH  22  28
ATOM     25  C   UNL     1       6.561   5.065  15.702  0.00  0.00    +0.000 A 
ATOM     26  C   UNL     1       6.242   6.128  16.553  0.00  0.00    +0.000 A 
ATOM     27  C   UNL     1       5.151   6.046  17.424  0.00  0.00    +0.000 A 
ATOM     28  C   UNL     1       4.354   4.900  17.418  0.00  0.00    +0.000 A 
ATOM     29  C   UNL     1       4.666   3.827  16.573  0.00  0.00    +0.000 A 
ATOM     30  C   UNL     1       5.768   3.916  15.713  0.00  0.00    +0.000 A 
BRANCH  25  32
ATOM     31  C   UNL     1       7.443   4.992  13.500  0.00  0.00    +0.000 C 
ATOM     32  O   UNL     1       7.634   5.281  14.882  0.00  0.00    +0.000 OA
ENDBRANCH  25  32
ENDBRANCH  22  28
ENDBRANCH  21  22
ENDBRANCH   1  21
TORSDOF 6
ENDMDL
MODEL 9
REMARK VINA RESULT:      -7.4      6.292     10.826
REMARK  Name = 
REMARK  7 active torsions:
REMARK  status: ('A' for Active; 'I' for Inactive)
REMARK    1  A    between atoms: C_1  and  O_2
REMARK    2  A    between atoms: O_2  and  C_3
REMARK    3  A    between atoms: C_6  and  S_7
REMARK    4  A    between atoms: S_7  and  C_10
REMARK    5  A    between atoms: C_10  and  C_11
REMARK    6  A    between atoms: C_14  and  C_15
REMARK    7  A    between atoms: C_21  and  C_23
REMARK                            x       y       z     vdW  Elec       q    Type
REMARK                         _______ _______ _______ _____ _____    ______ ____
ROOT
ATOM      1  C   UNL     1       2.997  14.052  19.460  0.00  0.00    +0.000 A 
ATOM      2  C   UNL     1       2.704  14.279  18.132  0.00  0.00    +0.000 A 
ATOM      3  C   UNL     1       3.627  15.255  17.681  0.00  0.00    +0.000 A 
ATOM      4  C   UNL     1       4.401  15.617  18.770  0.00  0.00    +0.000 A 
ATOM      5  O   UNL     1       4.058  14.824  19.834  0.00  0.00    +0.000 OA
ENDROOT
BRANCH   4   6
ATOM      6  C   UNL     1       5.465  16.612  18.854  0.00  0.00    +0.000 C 
ATOM      7  O   UNL     1       5.200  17.779  19.144  0.00  0.00    +0.000 OA
ATOM      8  N   UNL     1       6.797  16.215  18.682  0.00  0.00    +0.000 N 
ATOM      9  C   UNL     1       7.879  17.195  18.896  0.00  0.00    +0.000 C 
ATOM     10  C   UNL     1       8.931  16.691  19.910  0.00  0.00    +0.000 C 
ATOM     11  N   UNL     1       9.357  15.321  19.604  0.00  0.00    +0.000 N 
ATOM     12  C   UNL     1      10.693  14.949  19.774  0.00  0.00    +0.000 C 
ATOM     13  O   UNL     1      11.500  15.728  20.280  0.00  0.00    +0.000 OA
ATOM     14  C   UNL     1       8.244  14.376  19.465  0.00  0.00    +0.000 C 
ATOM     15  C   UNL     1       7.271  14.855  18.388  0.00  0.00    +0.000 C 
BRANCH  12  16
ATOM     16  C   UNL     1      11.098  13.620  19.344  0.00  0.00    +0.000 A 
ATOM     17  C   UNL     1      11.467  12.505  20.076  0.00  0.00    +0.000 A 
ATOM     18  C   UNL     1      11.744  11.473  19.146  0.00  0.00    +0.000 A 
ATOM     19  C   UNL     1      11.579  12.028  17.900  0.00  0.00    +0.000 A 
ATOM     20  O   UNL     1      11.226  13.333  18.008  0.00  0.00    +0.000 OA
ENDBRANCH  12  16
ENDBRANCH   4   6
BRANCH   1  21
ATOM     21  C   UNL     1       2.454  13.127  20.486  0.00  0.00    +0.000 C 
BRANCH  21  22
ATOM     22  S   UNL     1       0.718  13.467  20.754  0.00  0.00    +0.000 S 
ATOM     23  O   UNL     1       0.417  14.813  20.299  0.00  0.00    +0.000 OA
ATOM     24  O   UNL     1       0.334  13.030  22.087  0.00  0.00    +0.000 OA
BRANCH  22  28
ATOM     25  C   UNL     1      -1.365  10.597  17.840  0.00  0.00    +0.000 A 
ATOM     26  C   UNL     1      -0.229  10.189  18.547  0.00  0.00    +0.000 A 
ATOM     27  C   UNL     1       0.407  11.056  19.442  0.00  0.00    +0.000 A 
ATOM     28  C   UNL     1      -0.082  12.354  19.604  0.00  0.00    +0.000 A 
ATOM     29  C   UNL     1      -1.221  12.772  18.904  0.00  0.00    +0.000 A 
ATOM     30  C   UNL     1      -1.856  11.892  18.019  0.00  0.00    +0.000 A 
BRANCH  25  32
ATOM     31  C   UNL     1      -2.604  10.168  15.862  0.00  0.00    +0.000 C 
ATOM     32  O   UNL     1      -1.877   9.665  16.979  0.00  0.00    +0.000 OA
ENDBRANCH  25  32
ENDBRANCH  22  28
ENDBRANCH  21  22
ENDBRANCH   1  21
TORSDOF 6
ENDMDL
