MODEL 1
REMARK VINA RESULT:      -7.2      0.000      0.000
REMARK  Name = 
REMARK  9 active torsions:
REMARK  status: ('A' for Active; 'I' for Inactive)
REMARK    1  A    between atoms: N_4  and  C_5
REMARK    2  A    between atoms: C_5  and  C_6
REMARK    3  A    between atoms: C_6  and  C_7
REMARK    4  A    between atoms: C_7  and  C_8
REMARK    5  A    between atoms: C_16  and  C_17
REMARK    6  A    between atoms: C_17  and  C_18
REMARK    7  A    between atoms: C_18  and  O_20
REMARK    8  A    between atoms: C_24  and  C_25
REMARK    9  A    between atoms: C_25  and  C_26
REMARK                            x       y       z     vdW  Elec       q    Type
REMARK                         _______ _______ _______ _____ _____    ______ ____
ROOT
ATOM      1  C   UNL     1       0.469  10.006  19.804  0.00  0.00    +0.000 C 
ATOM      2  N   UNL     1      -0.422   9.511  20.852  0.00  0.00    +0.000 N 
ATOM      3  C   UNL     1       0.092   9.397  22.127  0.00  0.00    +0.000 C 
ATOM      4  O   UNL     1       1.106   8.752  22.381  0.00  0.00    +0.000 OA
ATOM      5  C   UNL     1      -0.654  10.140  23.220  0.00  0.00    +0.000 C 
ATOM      6  C   UNL     1      -1.334  11.391  22.740  0.00  0.00    +0.000 C 
ATOM      7  O   UNL     1      -1.843  11.451  21.618  0.00  0.00    +0.000 OA
ATOM      8  N   UNL     1      -1.400  12.454  23.616  0.00  0.00    +0.000 N 
ATOM      9  C   UNL     1      -1.884  13.757  23.103  0.00  0.00    +0.000 C 
ATOM     10  C   UNL     1      -0.795  14.172  22.064  0.00  0.00    +0.000 C 
ATOM     11  O   UNL     1       0.409  14.143  22.410  0.00  0.00    +0.000 OA
ATOM     12  N   UNL     1      -1.150  14.349  20.752  0.00  0.00    +0.000 N 
ATOM     13  C   UNL     1      -0.252  14.039  19.629  0.00  0.00    +0.000 C 
ATOM     14  C   UNL     1      -0.916  12.984  18.693  0.00  0.00    +0.000 C 
ATOM     15  N   UNL     1      -0.006  11.905  18.327  0.00  0.00    +0.000 N 
ATOM     16  C   UNL     1      -0.394  10.624  18.681  0.00  0.00    +0.000 C 
ATOM     17  O   UNL     1      -1.409  10.091  18.228  0.00  0.00    +0.000 OA
ATOM     18  H   UNL     1      -1.339   9.952  20.794  0.00  0.00    +0.000 HD
ATOM     19  H   UNL     1      -0.729  12.484  24.377  0.00  0.00    +0.000 HD
ATOM     20  H   UNL     1      -2.120  14.510  20.513  0.00  0.00    +0.000 HD
ATOM     21  H   UNL     1       0.982  12.119  18.398  0.00  0.00    +0.000 HD
ENDROOT
BRANCH   1  22
ATOM     22  C   UNL     1       1.404   8.932  19.289  0.00  0.00    +0.000 C 
BRANCH  22  23
ATOM     23  C   UNL     1       1.979   9.293  17.923  0.00  0.00    +0.000 C 
BRANCH  23  24
ATOM     24  C   UNL     1       2.952   8.192  17.492  0.00  0.00    +0.000 C 
BRANCH  24  28
ATOM     25  N   UNL     1       4.741   6.013  17.734  0.00  0.00    +0.000 NA
ATOM     26  C   UNL     1       3.539   5.920  18.174  0.00  0.00    +0.000 C 
ATOM     27  N   UNL     1       3.056   4.798  18.758  0.00  0.00    +0.000 N 
ATOM     28  N   UNL     1       2.647   6.925  18.113  0.00  0.00    +0.000 N 
ATOM     29  H   UNL     1       5.238   5.135  17.880  0.00  0.00    +0.000 HD
ATOM     30  H   UNL     1       3.764   4.142  19.062  0.00  0.00    +0.000 HD
ATOM     31  H   UNL     1       2.381   4.969  19.505  0.00  0.00    +0.000 HD
ATOM     32  H   UNL     1       1.675   6.659  18.104  0.00  0.00    +0.000 HD
ENDBRANCH  24  28
ENDBRANCH  23  24
ENDBRANCH  22  23
ENDBRANCH   1  22
BRANCH   9  33
ATOM     33  C   UNL     1      -3.336  13.658  22.628  0.00  0.00    +0.000 C 
BRANCH  33  34
ATOM     34  C   UNL     1      -4.251  13.289  23.745  0.00  0.00    +0.000 C 
ATOM     35  O   UNL     1      -4.457  12.154  24.143  0.00  0.00    +0.000 OA
BRANCH  34  36
ATOM     36  O   UNL     1      -4.802  14.371  24.357  0.00  0.00    +0.000 OA
ATOM     37  H   UNL     1      -4.727  15.203  23.849  0.00  0.00    +0.000 HD
ENDBRANCH  34  36
ENDBRANCH  33  34
ENDBRANCH   9  33
BRANCH  13  38
ATOM     38  C   UNL     1       0.259  15.267  18.810  0.00  0.00    +0.000 C 
BRANCH  38  39
ATOM     39  C   UNL     1       1.759  15.360  18.600  0.00  0.00    +0.000 A 
ATOM     40  C   UNL     1       2.337  16.549  18.152  0.00  0.00    +0.000 A 
ATOM     41  C   UNL     1       3.634  16.556  17.640  0.00  0.00    +0.000 A 
ATOM     42  C   UNL     1       4.430  15.421  17.743  0.00  0.00    +0.000 A 
ATOM     43  C   UNL     1       3.934  14.295  18.397  0.00  0.00    +0.000 A 
ATOM     44  C   UNL     1       2.595  14.251  18.801  0.00  0.00    +0.000 A 
ENDBRANCH  38  39
ENDBRANCH  13  38
TORSDOF 9
ENDMDL
MODEL 2
REMARK VINA RESULT:      -7.2      1.073      1.177
REMARK  Name = 
REMARK  9 active torsions:
REMARK  status: ('A' for Active; 'I' for Inactive)
REMARK    1  A    between atoms: N_4  and  C_5
REMARK    2  A    between atoms: C_5  and  C_6
REMARK    3  A    between atoms: C_6  and  C_7
REMARK    4  A    between atoms: C_7  and  C_8
REMARK    5  A    between atoms: C_16  and  C_17
REMARK    6  A    between atoms: C_17  and  C_18
REMARK    7  A    between atoms: C_18  and  O_20
REMARK    8  A    between atoms: C_24  and  C_25
REMARK    9  A    between atoms: C_25  and  C_26
REMARK                            x       y       z     vdW  Elec       q    Type
REMARK                         _______ _______ _______ _____ _____    ______ ____
ROOT
ATOM      1  C   UNL     1      -0.003  10.398  18.837  0.00  0.00    +0.000 C 
ATOM      2  N   UNL     1      -0.841   9.841  19.898  0.00  0.00    +0.000 N 
ATOM      3  C   UNL     1      -0.208   9.368  21.030  0.00  0.00    +0.000 C 
ATOM      4  O   UNL     1       0.684   8.525  20.991  0.00  0.00    +0.000 OA
ATOM      5  C   UNL     1      -0.658   9.968  22.350  0.00  0.00    +0.000 C 
ATOM      6  C   UNL     1      -1.135  11.387  22.232  0.00  0.00    +0.000 C 
ATOM      7  O   UNL     1      -1.754  11.774  21.239  0.00  0.00    +0.000 OA
ATOM      8  N   UNL     1      -0.887  12.230  23.296  0.00  0.00    +0.000 N 
ATOM      9  C   UNL     1      -1.166  13.675  23.127  0.00  0.00    +0.000 C 
ATOM     10  C   UNL     1      -0.151  14.121  22.028  0.00  0.00    +0.000 C 
ATOM     11  O   UNL     1       1.057  13.819  22.166  0.00  0.00    +0.000 OA
ATOM     12  N   UNL     1      -0.621  14.636  20.848  0.00  0.00    +0.000 N 
ATOM     13  C   UNL     1       0.058  14.435  19.558  0.00  0.00    +0.000 C 
ATOM     14  C   UNL     1      -0.907  13.733  18.554  0.00  0.00    +0.000 C 
ATOM     15  N   UNL     1      -0.274  12.626  17.848  0.00  0.00    +0.000 N 
ATOM     16  C   UNL     1      -0.859  11.380  18.006  0.00  0.00    +0.000 C 
ATOM     17  O   UNL     1      -2.005  11.133  17.625  0.00  0.00    +0.000 OA
ATOM     18  H   UNL     1      -1.655  10.429  20.072  0.00  0.00    +0.000 HD
ATOM     19  H   UNL     1      -0.136  11.982  23.933  0.00  0.00    +0.000 HD
ATOM     20  H   UNL     1      -1.562  15.004  20.801  0.00  0.00    +0.000 HD
ATOM     21  H   UNL     1       0.737  12.653  17.802  0.00  0.00    +0.000 HD
ENDROOT
BRANCH   1  22
ATOM     22  C   UNL     1       0.636   9.323  17.984  0.00  0.00    +0.000 C 
BRANCH  22  23
ATOM     23  C   UNL     1       2.152   9.480  17.924  0.00  0.00    +0.000 C 
BRANCH  23  24
ATOM     24  C   UNL     1       2.793   8.090  17.963  0.00  0.00    +0.000 C 
BRANCH  24  28
ATOM     25  N   UNL     1       2.609   5.294  18.364  0.00  0.00    +0.000 NA
ATOM     26  C   UNL     1       2.494   6.103  19.355  0.00  0.00    +0.000 C 
ATOM     27  N   UNL     1       2.271   5.683  20.622  0.00  0.00    +0.000 N 
ATOM     28  N   UNL     1       2.596   7.439  19.238  0.00  0.00    +0.000 N 
ATOM     29  H   UNL     1       2.495   4.332  18.680  0.00  0.00    +0.000 HD
ATOM     30  H   UNL     1       2.464   4.702  20.782  0.00  0.00    +0.000 HD
ATOM     31  H   UNL     1       2.716   6.257  21.340  0.00  0.00    +0.000 HD
ATOM     32  H   UNL     1       2.119   7.986  19.936  0.00  0.00    +0.000 HD
ENDBRANCH  24  28
ENDBRANCH  23  24
ENDBRANCH  22  23
ENDBRANCH   1  22
BRANCH   9  33
ATOM     33  C   UNL     1      -2.656  13.923  22.878  0.00  0.00    +0.000 C 
BRANCH  33  34
ATOM     34  C   UNL     1      -3.494  13.355  23.972  0.00  0.00    +0.000 C 
ATOM     35  O   UNL     1      -3.942  12.221  24.001  0.00  0.00    +0.000 OA
BRANCH  34  36
ATOM     36  O   UNL     1      -3.661  14.216  25.011  0.00  0.00    +0.000 OA
ATOM     37  H   UNL     1      -4.594  14.381  25.252  0.00  0.00    +0.000 HD
ENDBRANCH  34  36
ENDBRANCH  33  34
ENDBRANCH   9  33
BRANCH  13  38
ATOM     38  C   UNL     1       0.696  15.710  18.920  0.00  0.00    +0.000 C 
BRANCH  38  39
ATOM     39  C   UNL     1       2.211  15.776  18.917  0.00  0.00    +0.000 A 
ATOM     40  C   UNL     1       2.887  16.554  19.859  0.00  0.00    +0.000 A 
ATOM     41  C   UNL     1       4.226  16.891  19.668  0.00  0.00    +0.000 A 
ATOM     42  C   UNL     1       4.953  16.304  18.638  0.00  0.00    +0.000 A 
ATOM     43  C   UNL     1       4.342  15.348  17.829  0.00  0.00    +0.000 A 
ATOM     44  C   UNL     1       2.970  15.103  17.947  0.00  0.00    +0.000 A 
ENDBRANCH  38  39
ENDBRANCH  13  38
TORSDOF 9
ENDMDL
MODEL 3
REMARK VINA RESULT:      -7.1      0.988      1.236
REMARK  Name = 
REMARK  9 active torsions:
REMARK  status: ('A' for Active; 'I' for Inactive)
REMARK    1  A    between atoms: N_4  and  C_5
REMARK    2  A    between atoms: C_5  and  C_6
REMARK    3  A    between atoms: C_6  and  C_7
REMARK    4  A    between atoms: C_7  and  C_8
REMARK    5  A    between atoms: C_16  and  C_17
REMARK    6  A    between atoms: C_17  and  C_18
REMARK    7  A    between atoms: C_18  and  O_20
REMARK    8  A    between atoms: C_24  and  C_25
REMARK    9  A    between atoms: C_25  and  C_26
REMARK                            x       y       z     vdW  Elec       q    Type
REMARK                         _______ _______ _______ _____ _____    ______ ____
ROOT
ATOM      1  C   UNL     1       0.976  10.285  19.328  0.00  0.00    +0.000 C 
ATOM      2  N   UNL     1       0.160   9.484  20.240  0.00  0.00    +0.000 N 
ATOM      3  C   UNL     1       0.671   9.226  21.496  0.00  0.00    +0.000 C 
ATOM      4  O   UNL     1       1.770   8.707  21.674  0.00  0.00    +0.000 OA
ATOM      5  C   UNL     1      -0.196   9.643  22.670  0.00  0.00    +0.000 C 
ATOM      6  C   UNL     1      -1.056  10.841  22.386  0.00  0.00    +0.000 C 
ATOM      7  O   UNL     1      -1.555  11.020  21.273  0.00  0.00    +0.000 OA
ATOM      8  N   UNL     1      -1.298  11.711  23.429  0.00  0.00    +0.000 N 
ATOM      9  C   UNL     1      -1.973  12.996  23.130  0.00  0.00    +0.000 C 
ATOM     10  C   UNL     1      -0.949  13.747  22.221  0.00  0.00    +0.000 C 
ATOM     11  O   UNL     1       0.240  13.840  22.604  0.00  0.00    +0.000 OA
ATOM     12  N   UNL     1      -1.312  14.097  20.947  0.00  0.00    +0.000 N 
ATOM     13  C   UNL     1      -0.363  14.129  19.823  0.00  0.00    +0.000 C 
ATOM     14  C   UNL     1      -0.843  13.167  18.693  0.00  0.00    +0.000 C 
ATOM     15  N   UNL     1       0.229  12.321  18.184  0.00  0.00    +0.000 N 
ATOM     16  C   UNL     1       0.041  10.953  18.296  0.00  0.00    +0.000 C 
ATOM     17  O   UNL     1      -0.873  10.361  17.718  0.00  0.00    +0.000 OA
ATOM     18  H   UNL     1      -0.814   9.784  20.223  0.00  0.00    +0.000 HD
ATOM     19  H   UNL     1      -0.649  11.707  24.210  0.00  0.00    +0.000 HD
ATOM     20  H   UNL     1      -2.293  14.149  20.701  0.00  0.00    +0.000 HD
ATOM     21  H   UNL     1       1.170  12.666  18.329  0.00  0.00    +0.000 HD
ENDROOT
BRANCH   1  22
ATOM     22  C   UNL     1       2.073   9.473  18.674  0.00  0.00    +0.000 C 
BRANCH  22  23
ATOM     23  C   UNL     1       1.570   8.103  18.229  0.00  0.00    +0.000 C 
BRANCH  23  24
ATOM     24  C   UNL     1       2.678   7.071  18.461  0.00  0.00    +0.000 C 
BRANCH  24  28
ATOM     25  N   UNL     1       2.365   4.332  19.098  0.00  0.00    +0.000 NA
ATOM     26  C   UNL     1       2.461   5.210  20.030  0.00  0.00    +0.000 C 
ATOM     27  N   UNL     1       2.409   4.893  21.345  0.00  0.00    +0.000 N 
ATOM     28  N   UNL     1       2.637   6.523  19.797  0.00  0.00    +0.000 N 
ATOM     29  H   UNL     1       2.234   3.405  19.501  0.00  0.00    +0.000 HD
ATOM     30  H   UNL     1       2.555   3.913  21.549  0.00  0.00    +0.000 HD
ATOM     31  H   UNL     1       2.998   5.475  21.942  0.00  0.00    +0.000 HD
ATOM     32  H   UNL     1       2.312   7.151  20.515  0.00  0.00    +0.000 HD
ENDBRANCH  24  28
ENDBRANCH  23  24
ENDBRANCH  22  23
ENDBRANCH   1  22
BRANCH   9  33
ATOM     33  C   UNL     1      -3.386  12.763  22.589  0.00  0.00    +0.000 C 
BRANCH  33  34
ATOM     34  C   UNL     1      -4.399  12.783  23.681  0.00  0.00    +0.000 C 
ATOM     35  O   UNL     1      -5.302  13.596  23.791  0.00  0.00    +0.000 OA
BRANCH  34  36
ATOM     36  O   UNL     1      -4.273  11.735  24.538  0.00  0.00    +0.000 OA
ATOM     37  H   UNL     1      -3.375  11.351  24.577  0.00  0.00    +0.000 HD
ENDBRANCH  34  36
ENDBRANCH  33  34
ENDBRANCH   9  33
BRANCH  13  38
ATOM     38  C   UNL     1      -0.040  15.546  19.249  0.00  0.00    +0.000 C 
BRANCH  38  39
ATOM     39  C   UNL     1       1.394  15.785  18.813  0.00  0.00    +0.000 A 
ATOM     40  C   UNL     1       1.708  16.856  17.974  0.00  0.00    +0.000 A 
ATOM     41  C   UNL     1       2.930  16.894  17.304  0.00  0.00    +0.000 A 
ATOM     42  C   UNL     1       3.920  15.968  17.607  0.00  0.00    +0.000 A 
ATOM     43  C   UNL     1       3.696  15.030  18.613  0.00  0.00    +0.000 A 
ATOM     44  C   UNL     1       2.429  14.918  19.196  0.00  0.00    +0.000 A 
ENDBRANCH  38  39
ENDBRANCH  13  38
TORSDOF 9
ENDMDL
MODEL 4
REMARK VINA RESULT:      -7.0      1.437      1.701
REMARK  Name = 
REMARK  9 active torsions:
REMARK  status: ('A' for Active; 'I' for Inactive)
REMARK    1  A    between atoms: N_4  and  C_5
REMARK    2  A    between atoms: C_5  and  C_6
REMARK    3  A    between atoms: C_6  and  C_7
REMARK    4  A    between atoms: C_7  and  C_8
REMARK    5  A    between atoms: C_16  and  C_17
REMARK    6  A    between atoms: C_17  and  C_18
REMARK    7  A    between atoms: C_18  and  O_20
REMARK    8  A    between atoms: C_24  and  C_25
REMARK    9  A    between atoms: C_25  and  C_26
REMARK                            x       y       z     vdW  Elec       q    Type
REMARK                         _______ _______ _______ _____ _____    ______ ____
ROOT
ATOM      1  C   UNL     1       0.556  11.760  19.409  0.00  0.00    +0.000 C 
ATOM      2  N   UNL     1      -0.336  10.885  20.170  0.00  0.00    +0.000 N 
ATOM      3  C   UNL     1       0.131  10.381  21.366  0.00  0.00    +0.000 C 
ATOM      4  O   UNL     1       1.184   9.754  21.459  0.00  0.00    +0.000 OA
ATOM      5  C   UNL     1      -0.720  10.663  22.591  0.00  0.00    +0.000 C 
ATOM      6  C   UNL     1      -1.480  11.956  22.508  0.00  0.00    +0.000 C 
ATOM      7  O   UNL     1      -1.944  12.358  21.439  0.00  0.00    +0.000 OA
ATOM      8  N   UNL     1      -1.672  12.655  23.682  0.00  0.00    +0.000 N 
ATOM      9  C   UNL     1      -2.240  14.022  23.600  0.00  0.00    +0.000 C 
ATOM     10  C   UNL     1      -1.145  14.831  22.836  0.00  0.00    +0.000 C 
ATOM     11  O   UNL     1       0.040  14.764  23.233  0.00  0.00    +0.000 OA
ATOM     12  N   UNL     1      -1.458  15.417  21.637  0.00  0.00    +0.000 N 
ATOM     13  C   UNL     1      -0.490  15.561  20.538  0.00  0.00    +0.000 C 
ATOM     14  C   UNL     1      -1.023  14.844  19.261  0.00  0.00    +0.000 C 
ATOM     15  N   UNL     1      -0.011  14.012  18.621  0.00  0.00    +0.000 N 
ATOM     16  C   UNL     1      -0.307  12.664  18.500  0.00  0.00    +0.000 C 
ATOM     17  O   UNL     1      -1.253  12.251  17.827  0.00  0.00    +0.000 OA
ATOM     18  H   UNL     1      -1.283  11.261  20.199  0.00  0.00    +0.000 HD
ATOM     19  H   UNL     1      -1.039  12.469  24.454  0.00  0.00    +0.000 HD
ATOM     20  H   UNL     1      -2.427  15.587  21.400  0.00  0.00    +0.000 HD
ATOM     21  H   UNL     1       0.951  14.252  18.826  0.00  0.00    +0.000 HD
ENDROOT
BRANCH   1  22
ATOM     22  C   UNL     1       1.597  10.985  18.632  0.00  0.00    +0.000 C 
BRANCH  22  23
ATOM     23  C   UNL     1       1.011   9.721  18.010  0.00  0.00    +0.000 C 
BRANCH  23  24
ATOM     24  C   UNL     1       2.058   8.606  18.078  0.00  0.00    +0.000 C 
BRANCH  24  28
ATOM     25  N   UNL     1       3.063   6.001  18.540  0.00  0.00    +0.000 NA
ATOM     26  C   UNL     1       2.504   6.661  19.489  0.00  0.00    +0.000 C 
ATOM     27  N   UNL     1       2.351   6.163  20.738  0.00  0.00    +0.000 N 
ATOM     28  N   UNL     1       2.029   7.911  19.344  0.00  0.00    +0.000 N 
ATOM     29  H   UNL     1       3.344   5.079  18.871  0.00  0.00    +0.000 HD
ATOM     30  H   UNL     1       2.932   5.360  20.946  0.00  0.00    +0.000 HD
ATOM     31  H   UNL     1       2.423   6.859  21.481  0.00  0.00    +0.000 HD
ATOM     32  H   UNL     1       1.290   8.183  19.972  0.00  0.00    +0.000 HD
ENDBRANCH  24  28
ENDBRANCH  23  24
ENDBRANCH  22  23
ENDBRANCH   1  22
BRANCH   9  33
ATOM     33  C   UNL     1      -3.657  13.996  23.022  0.00  0.00    +0.000 C 
BRANCH  33  34
ATOM     34  C   UNL     1      -4.555  13.110  23.817  0.00  0.00    +0.000 C 
ATOM     35  O   UNL     1      -5.432  12.400  23.356  0.00  0.00    +0.000 OA
BRANCH  34  36
ATOM     36  O   UNL     1      -4.252  13.104  25.142  0.00  0.00    +0.000 OA
ATOM     37  H   UNL     1      -4.030  13.982  25.509  0.00  0.00    +0.000 HD
ENDBRANCH  34  36
ENDBRANCH  33  34
ENDBRANCH   9  33
BRANCH  13  38
ATOM     38  C   UNL     1      -0.047  17.024  20.212  0.00  0.00    +0.000 C 
BRANCH  38  39
ATOM     39  C   UNL     1       1.031  17.182  19.157  0.00  0.00    +0.000 A 
ATOM     40  C   UNL     1       0.791  17.939  18.009  0.00  0.00    +0.000 A 
ATOM     41  C   UNL     1       1.623  17.821  16.897  0.00  0.00    +0.000 A 
ATOM     42  C   UNL     1       2.804  17.094  16.984  0.00  0.00    +0.000 A 
ATOM     43  C   UNL     1       3.166  16.521  18.202  0.00  0.00    +0.000 A 
ATOM     44  C   UNL     1       2.273  16.539  19.278  0.00  0.00    +0.000 A 
ENDBRANCH  38  39
ENDBRANCH  13  38
TORSDOF 9
ENDMDL
MODEL 5
REMARK VINA RESULT:      -6.9      3.483      6.106
REMARK  Name = 
REMARK  9 active torsions:
REMARK  status: ('A' for Active; 'I' for Inactive)
REMARK    1  A    between atoms: N_4  and  C_5
REMARK    2  A    between atoms: C_5  and  C_6
REMARK    3  A    between atoms: C_6  and  C_7
REMARK    4  A    between atoms: C_7  and  C_8
REMARK    5  A    between atoms: C_16  and  C_17
REMARK    6  A    between atoms: C_17  and  C_18
REMARK    7  A    between atoms: C_18  and  O_20
REMARK    8  A    between atoms: C_24  and  C_25
REMARK    9  A    between atoms: C_25  and  C_26
REMARK                            x       y       z     vdW  Elec       q    Type
REMARK                         _______ _______ _______ _____ _____    ______ ____
ROOT
ATOM      1  C   UNL     1      -2.899  10.872  18.339  0.00  0.00    +0.000 C 
ATOM      2  N   UNL     1      -3.653  12.086  18.650  0.00  0.00    +0.000 N 
ATOM      3  C   UNL     1      -4.757  11.961  19.467  0.00  0.00    +0.000 C 
ATOM      4  O   UNL     1      -5.680  11.187  19.225  0.00  0.00    +0.000 OA
ATOM      5  C   UNL     1      -4.768  12.823  20.716  0.00  0.00    +0.000 C 
ATOM      6  C   UNL     1      -3.397  13.108  21.260  0.00  0.00    +0.000 C 
ATOM      7  O   UNL     1      -2.434  13.280  20.509  0.00  0.00    +0.000 OA
ATOM      8  N   UNL     1      -3.266  13.211  22.630  0.00  0.00    +0.000 N 
ATOM      9  C   UNL     1      -1.901  13.293  23.200  0.00  0.00    +0.000 C 
ATOM     10  C   UNL     1      -1.270  11.909  22.848  0.00  0.00    +0.000 C 
ATOM     11  O   UNL     1      -1.908  10.868  23.128  0.00  0.00    +0.000 OA
ATOM     12  N   UNL     1      -0.150  11.863  22.060  0.00  0.00    +0.000 N 
ATOM     13  C   UNL     1       0.119  10.770  21.113  0.00  0.00    +0.000 C 
ATOM     14  C   UNL     1       0.268  11.340  19.670  0.00  0.00    +0.000 C 
ATOM     15  N   UNL     1      -0.489  10.579  18.684  0.00  0.00    +0.000 N 
ATOM     16  C   UNL     1      -1.453  11.275  17.974  0.00  0.00    +0.000 C 
ATOM     17  O   UNL     1      -1.174  12.212  17.222  0.00  0.00    +0.000 OA
ATOM     18  H   UNL     1      -3.028  12.857  18.882  0.00  0.00    +0.000 HD
ATOM     19  H   UNL     1      -3.977  12.774  23.208  0.00  0.00    +0.000 HD
ATOM     20  H   UNL     1       0.429  12.687  21.963  0.00  0.00    +0.000 HD
ATOM     21  H   UNL     1      -0.711   9.624  18.940  0.00  0.00    +0.000 HD
ENDROOT
BRANCH   1  22
ATOM     22  C   UNL     1      -3.559  10.047  17.256  0.00  0.00    +0.000 C 
BRANCH  22  23
ATOM     23  C   UNL     1      -3.865  10.884  16.017  0.00  0.00    +0.000 C 
BRANCH  23  24
ATOM     24  C   UNL     1      -3.080  10.315  14.832  0.00  0.00    +0.000 C 
BRANCH  24  28
ATOM     25  N   UNL     1      -2.163   9.486  12.286  0.00  0.00    +0.000 NA
ATOM     26  C   UNL     1      -3.387   9.835  12.455  0.00  0.00    +0.000 C 
ATOM     27  N   UNL     1      -4.293   9.841  11.450  0.00  0.00    +0.000 N 
ATOM     28  N   UNL     1      -3.893  10.215  13.641  0.00  0.00    +0.000 N 
ATOM     29  H   UNL     1      -1.998   9.240  11.311  0.00  0.00    +0.000 HD
ATOM     30  H   UNL     1      -4.021   9.309  10.633  0.00  0.00    +0.000 HD
ATOM     31  H   UNL     1      -5.242   9.597  11.736  0.00  0.00    +0.000 HD
ATOM     32  H   UNL     1      -4.695  10.824  13.611  0.00  0.00    +0.000 HD
ENDBRANCH  24  28
ENDBRANCH  23  24
ENDBRANCH  22  23
ENDBRANCH   1  22
BRANCH   9  33
ATOM     33  C   UNL     1      -1.181  14.558  22.727  0.00  0.00    +0.000 C 
BRANCH  33  34
ATOM     34  C   UNL     1      -1.152  15.600  23.792  0.00  0.00    +0.000 C 
ATOM     35  O   UNL     1      -1.509  16.758  23.655  0.00  0.00    +0.000 OA
BRANCH  34  36
ATOM     36  O   UNL     1      -0.748  15.115  24.996  0.00  0.00    +0.000 OA
ATOM     37  H   UNL     1      -0.196  14.310  24.941  0.00  0.00    +0.000 HD
ENDBRANCH  34  36
ENDBRANCH  33  34
ENDBRANCH   9  33
BRANCH  13  38
ATOM     38  C   UNL     1       1.324   9.842  21.472  0.00  0.00    +0.000 C 
BRANCH  38  39
ATOM     39  C   UNL     1       1.460   8.569  20.659  0.00  0.00    +0.000 A 
ATOM     40  C   UNL     1       1.110   7.336  21.213  0.00  0.00    +0.000 A 
ATOM     41  C   UNL     1       1.536   6.148  20.621  0.00  0.00    +0.000 A 
ATOM     42  C   UNL     1       2.152   6.171  19.376  0.00  0.00    +0.000 A 
ATOM     43  C   UNL     1       2.301   7.386  18.709  0.00  0.00    +0.000 A 
ATOM     44  C   UNL     1       1.983   8.584  19.357  0.00  0.00    +0.000 A 
ENDBRANCH  38  39
ENDBRANCH  13  38
TORSDOF 9
ENDMDL
MODEL 6
REMARK VINA RESULT:      -6.9      0.868      1.004
REMARK  Name = 
REMARK  9 active torsions:
REMARK  status: ('A' for Active; 'I' for Inactive)
REMARK    1  A    between atoms: N_4  and  C_5
REMARK    2  A    between atoms: C_5  and  C_6
REMARK    3  A    between atoms: C_6  and  C_7
REMARK    4  A    between atoms: C_7  and  C_8
REMARK    5  A    between atoms: C_16  and  C_17
REMARK    6  A    between atoms: C_17  and  C_18
REMARK    7  A    between atoms: C_18  and  O_20
REMARK    8  A    between atoms: C_24  and  C_25
REMARK    9  A    between atoms: C_25  and  C_26
REMARK                            x       y       z     vdW  Elec       q    Type
REMARK                         _______ _______ _______ _____ _____    ______ ____
ROOT
ATOM      1  C   UNL     1       0.601  10.120  19.754  0.00  0.00    +0.000 C 
ATOM      2  N   UNL     1      -0.420   9.742  20.730  0.00  0.00    +0.000 N 
ATOM      3  C   UNL     1      -0.025   9.589  22.043  0.00  0.00    +0.000 C 
ATOM      4  O   UNL     1       0.887   8.839  22.380  0.00  0.00    +0.000 OA
ATOM      5  C   UNL     1      -0.768  10.426  23.069  0.00  0.00    +0.000 C 
ATOM      6  C   UNL     1      -1.263  11.737  22.529  0.00  0.00    +0.000 C 
ATOM      7  O   UNL     1      -1.672  11.838  21.370  0.00  0.00    +0.000 OA
ATOM      8  N   UNL     1      -1.279  12.813  23.392  0.00  0.00    +0.000 N 
ATOM      9  C   UNL     1      -1.571  14.155  22.836  0.00  0.00    +0.000 C 
ATOM     10  C   UNL     1      -0.364  14.432  21.886  0.00  0.00    +0.000 C 
ATOM     11  O   UNL     1       0.798  14.274  22.327  0.00  0.00    +0.000 OA
ATOM     12  N   UNL     1      -0.592  14.630  20.549  0.00  0.00    +0.000 N 
ATOM     13  C   UNL     1       0.352  14.206  19.503  0.00  0.00    +0.000 C 
ATOM     14  C   UNL     1      -0.349  13.218  18.521  0.00  0.00    +0.000 C 
ATOM     15  N   UNL     1       0.461  12.040  18.235  0.00  0.00    +0.000 N 
ATOM     16  C   UNL     1      -0.096  10.815  18.563  0.00  0.00    +0.000 C 
ATOM     17  O   UNL     1      -1.124  10.392  18.032  0.00  0.00    +0.000 OA
ATOM     18  H   UNL     1      -1.275  10.282  20.596  0.00  0.00    +0.000 HD
ATOM     19  H   UNL     1      -0.672  12.778  24.205  0.00  0.00    +0.000 HD
ATOM     20  H   UNL     1      -1.516  14.894  20.232  0.00  0.00    +0.000 HD
ATOM     21  H   UNL     1       1.457  12.144  18.385  0.00  0.00    +0.000 HD
ENDROOT
BRANCH   1  22
ATOM     22  C   UNL     1       1.447   8.942  19.322  0.00  0.00    +0.000 C 
BRANCH  22  23
ATOM     23  C   UNL     1       2.085   9.178  17.956  0.00  0.00    +0.000 C 
BRANCH  23  24
ATOM     24  C   UNL     1       3.016   8.004  17.638  0.00  0.00    +0.000 C 
BRANCH  24  28
ATOM     25  N   UNL     1       4.107   5.438  17.155  0.00  0.00    +0.000 NA
ATOM     26  C   UNL     1       3.118   5.584  17.961  0.00  0.00    +0.000 C 
ATOM     27  N   UNL     1       2.540   4.545  18.608  0.00  0.00    +0.000 N 
ATOM     28  N   UNL     1       2.570   6.776  18.254  0.00  0.00    +0.000 N 
ATOM     29  H   UNL     1       4.358   4.453  17.080  0.00  0.00    +0.000 HD
ATOM     30  H   UNL     1       3.093   3.697  18.625  0.00  0.00    +0.000 HD
ATOM     31  H   UNL     1       2.199   4.769  19.544  0.00  0.00    +0.000 HD
ATOM     32  H   UNL     1       1.607   6.764  18.551  0.00  0.00    +0.000 HD
ENDBRANCH  24  28
ENDBRANCH  23  24
ENDBRANCH  22  23
ENDBRANCH   1  22
BRANCH   9  33
ATOM     33  C   UNL     1      -2.983  14.212  22.246  0.00  0.00    +0.000 C 
BRANCH  33  34
ATOM     34  C   UNL     1      -4.022  14.167  23.314  0.00  0.00    +0.000 C 
ATOM     35  O   UNL     1      -5.204  13.923  23.138  0.00  0.00    +0.000 OA
BRANCH  34  36
ATOM     36  O   UNL     1      -3.510  14.355  24.559  0.00  0.00    +0.000 OA
ATOM     37  H   UNL     1      -3.991  15.014  25.098  0.00  0.00    +0.000 HD
ENDBRANCH  34  36
ENDBRANCH  33  34
ENDBRANCH   9  33
BRANCH  13  38
ATOM     38  C   UNL     1       1.061  15.358  18.722  0.00  0.00    +0.000 C 
BRANCH  38  39
ATOM     39  C   UNL     1       2.571  15.433  18.856  0.00  0.00    +0.000 A 
ATOM     40  C   UNL     1       3.393  15.115  17.773  0.00  0.00    +0.000 A 
ATOM     41  C   UNL     1       4.748  14.855  17.967  0.00  0.00    +0.000 A 
ATOM     42  C   UNL     1       5.333  15.091  19.205  0.00  0.00    +0.000 A 
ATOM     43  C   UNL     1       4.563  15.628  20.235  0.00  0.00    +0.000 A 
ATOM     44  C   UNL     1       3.181  15.774  20.073  0.00  0.00    +0.000 A 
ENDBRANCH  38  39
ENDBRANCH  13  38
TORSDOF 9
ENDMDL
MODEL 7
REMARK VINA RESULT:      -6.8      3.245      7.789
REMARK  Name = 
REMARK  9 active torsions:
REMARK  status: ('A' for Active; 'I' for Inactive)
REMARK    1  A    between atoms: N_4  and  C_5
REMARK    2  A    between atoms: C_5  and  C_6
REMARK    3  A    between atoms: C_6  and  C_7
REMARK    4  A    between atoms: C_7  and  C_8
REMARK    5  A    between atoms: C_16  and  C_17
REMARK    6  A    between atoms: C_17  and  C_18
REMARK    7  A    between atoms: C_18  and  O_20
REMARK    8  A    between atoms: C_24  and  C_25
REMARK    9  A    between atoms: C_25  and  C_26
REMARK                            x       y       z     vdW  Elec       q    Type
REMARK                         _______ _______ _______ _____ _____    ______ ____
ROOT
ATOM      1  C   UNL     1      -2.323  14.160  22.748  0.00  0.00    +0.000 C 
ATOM      2  N   UNL     1      -1.668  15.467  22.762  0.00  0.00    +0.000 N 
ATOM      3  C   UNL     1      -0.584  15.631  23.600  0.00  0.00    +0.000 C 
ATOM      4  O   UNL     1      -0.634  15.400  24.805  0.00  0.00    +0.000 OA
ATOM      5  C   UNL     1       0.704  16.097  22.946  0.00  0.00    +0.000 C 
ATOM      6  C   UNL     1       0.854  15.640  21.523  0.00  0.00    +0.000 C 
ATOM      7  O   UNL     1      -0.120  15.561  20.771  0.00  0.00    +0.000 OA
ATOM      8  N   UNL     1       2.129  15.352  21.080  0.00  0.00    +0.000 N 
ATOM      9  C   UNL     1       2.282  14.714  19.751  0.00  0.00    +0.000 C 
ATOM     10  C   UNL     1       1.605  13.319  19.932  0.00  0.00    +0.000 C 
ATOM     11  O   UNL     1       1.936  12.611  20.910  0.00  0.00    +0.000 OA
ATOM     12  N   UNL     1       0.525  12.992  19.154  0.00  0.00    +0.000 N 
ATOM     13  C   UNL     1      -0.579  12.144  19.632  0.00  0.00    +0.000 C 
ATOM     14  C   UNL     1      -1.928  12.921  19.534  0.00  0.00    +0.000 C 
ATOM     15  N   UNL     1      -2.731  12.805  20.745  0.00  0.00    +0.000 N 
ATOM     16  C   UNL     1      -3.044  13.989  21.393  0.00  0.00    +0.000 C 
ATOM     17  O   UNL     1      -3.731  14.868  20.870  0.00  0.00    +0.000 OA
ATOM     18  H   UNL     1      -1.541  15.825  21.816  0.00  0.00    +0.000 HD
ATOM     19  H   UNL     1       2.835  15.134  21.776  0.00  0.00    +0.000 HD
ATOM     20  H   UNL     1       0.358  13.492  18.291  0.00  0.00    +0.000 HD
ATOM     21  H   UNL     1      -2.532  12.003  21.331  0.00  0.00    +0.000 HD
ENDROOT
BRANCH   1  22
ATOM     22  C   UNL     1      -3.254  13.971  23.927  0.00  0.00    +0.000 C 
BRANCH  22  23
ATOM     23  C   UNL     1      -3.820  12.555  23.976  0.00  0.00    +0.000 C 
BRANCH  23  24
ATOM     24  C   UNL     1      -5.334  12.637  24.197  0.00  0.00    +0.000 C 
BRANCH  24  28
ATOM     25  N   UNL     1      -7.916  11.567  23.753  0.00  0.00    +0.000 NA
ATOM     26  C   UNL     1      -7.278  12.146  22.800  0.00  0.00    +0.000 C 
ATOM     27  N   UNL     1      -7.781  12.270  21.550  0.00  0.00    +0.000 N 
ATOM     28  N   UNL     1      -6.061  12.698  22.950  0.00  0.00    +0.000 N 
ATOM     29  H   UNL     1      -8.814  11.222  23.417  0.00  0.00    +0.000 HD
ATOM     30  H   UNL     1      -8.780  12.120  21.480  0.00  0.00    +0.000 HD
ATOM     31  H   UNL     1      -7.515  13.132  21.072  0.00  0.00    +0.000 HD
ATOM     32  H   UNL     1      -5.495  12.762  22.119  0.00  0.00    +0.000 HD
ENDBRANCH  24  28
ENDBRANCH  23  24
ENDBRANCH  22  23
ENDBRANCH   1  22
BRANCH   9  33
ATOM     33  C   UNL     1       1.768  15.630  18.637  0.00  0.00    +0.000 C 
BRANCH  33  34
ATOM     34  C   UNL     1       2.885  16.144  17.795  0.00  0.00    +0.000 C 
ATOM     35  O   UNL     1       3.813  15.477  17.370  0.00  0.00    +0.000 OA
BRANCH  34  36
ATOM     36  O   UNL     1       2.737  17.455  17.464  0.00  0.00    +0.000 OA
ATOM     37  H   UNL     1       2.644  17.621  16.505  0.00  0.00    +0.000 HD
ENDBRANCH  34  36
ENDBRANCH  33  34
ENDBRANCH   9  33
BRANCH  13  38
ATOM     38  C   UNL     1      -0.696  10.739  18.958  0.00  0.00    +0.000 C 
BRANCH  38  39
ATOM     39  C   UNL     1       0.437   9.767  19.227  0.00  0.00    +0.000 A 
ATOM     40  C   UNL     1       1.292   9.375  18.196  0.00  0.00    +0.000 A 
ATOM     41  C   UNL     1       2.106   8.252  18.340  0.00  0.00    +0.000 A 
ATOM     42  C   UNL     1       2.214   7.623  19.575  0.00  0.00    +0.000 A 
ATOM     43  C   UNL     1       1.535   8.150  20.672  0.00  0.00    +0.000 A 
ATOM     44  C   UNL     1       0.628   9.200  20.497  0.00  0.00    +0.000 A 
ENDBRANCH  38  39
ENDBRANCH  13  38
TORSDOF 9
ENDMDL
MODEL 8
REMARK VINA RESULT:      -6.8      4.004      7.796
REMARK  Name = 
REMARK  9 active torsions:
REMARK  status: ('A' for Active; 'I' for Inactive)
REMARK    1  A    between atoms: N_4  and  C_5
REMARK    2  A    between atoms: C_5  and  C_6
REMARK    3  A    between atoms: C_6  and  C_7
REMARK    4  A    between atoms: C_7  and  C_8
REMARK    5  A    between atoms: C_16  and  C_17
REMARK    6  A    between atoms: C_17  and  C_18
REMARK    7  A    between atoms: C_18  and  O_20
REMARK    8  A    between atoms: C_24  and  C_25
REMARK    9  A    between atoms: C_25  and  C_26
REMARK                            x       y       z     vdW  Elec       q    Type
REMARK                         _______ _______ _______ _____ _____    ______ ____
ROOT
ATOM      1  C   UNL     1      -4.691  12.025  17.904  0.00  0.00    +0.000 C 
ATOM      2  N   UNL     1      -4.199  10.664  17.691  0.00  0.00    +0.000 N 
ATOM      3  C   UNL     1      -3.485  10.416  16.536  0.00  0.00    +0.000 C 
ATOM      4  O   UNL     1      -3.923  10.668  15.416  0.00  0.00    +0.000 OA
ATOM      5  C   UNL     1      -2.098   9.828  16.719  0.00  0.00    +0.000 C 
ATOM      6  C   UNL     1      -1.432  10.249  17.998  0.00  0.00    +0.000 C 
ATOM      7  O   UNL     1      -2.080  10.404  19.035  0.00  0.00    +0.000 OA
ATOM      8  N   UNL     1      -0.062  10.416  17.975  0.00  0.00    +0.000 N 
ATOM      9  C   UNL     1       0.591  11.019  19.160  0.00  0.00    +0.000 C 
ATOM     10  C   UNL     1       0.019  12.471  19.198  0.00  0.00    +0.000 C 
ATOM     11  O   UNL     1       0.059  13.160  18.153  0.00  0.00    +0.000 OA
ATOM     12  N   UNL     1      -0.697  12.883  20.291  0.00  0.00    +0.000 N 
ATOM     13  C   UNL     1      -1.818  13.832  20.205  0.00  0.00    +0.000 C 
ATOM     14  C   UNL     1      -3.115  13.178  20.769  0.00  0.00    +0.000 C 
ATOM     15  N   UNL     1      -4.270  13.382  19.903  0.00  0.00    +0.000 N 
ATOM     16  C   UNL     1      -4.889  12.240  19.421  0.00  0.00    +0.000 C 
ATOM     17  O   UNL     1      -5.432  11.418  20.162  0.00  0.00    +0.000 OA
ATOM     18  H   UNL     1      -3.789  10.284  18.543  0.00  0.00    +0.000 HD
ATOM     19  H   UNL     1       0.380  10.580  17.077  0.00  0.00    +0.000 HD
ATOM     20  H   UNL     1      -0.603  12.387  21.168  0.00  0.00    +0.000 HD
ATOM     21  H   UNL     1      -4.213  14.171  19.271  0.00  0.00    +0.000 HD
ENDROOT
BRANCH   1  22
ATOM     22  C   UNL     1      -5.948  12.313  17.111  0.00  0.00    +0.000 C 
BRANCH  22  23
ATOM     23  C   UNL     1      -6.732  13.481  17.702  0.00  0.00    +0.000 C 
BRANCH  23  24
ATOM     24  C   UNL     1      -6.848  14.582  16.645  0.00  0.00    +0.000 C 
BRANCH  24  28
ATOM     25  N   UNL     1      -7.211  17.000  15.219  0.00  0.00    +0.000 NA
ATOM     26  C   UNL     1      -7.120  17.007  16.500  0.00  0.00    +0.000 C 
ATOM     27  N   UNL     1      -7.178  18.143  17.233  0.00  0.00    +0.000 N 
ATOM     28  N   UNL     1      -6.972  15.893  17.239  0.00  0.00    +0.000 N 
ATOM     29  H   UNL     1      -7.316  17.951  14.868  0.00  0.00    +0.000 HD
ATOM     30  H   UNL     1      -7.558  18.943  16.743  0.00  0.00    +0.000 HD
ATOM     31  H   UNL     1      -7.626  18.034  18.144  0.00  0.00    +0.000 HD
ATOM     32  H   UNL     1      -6.526  16.008  18.135  0.00  0.00    +0.000 HD
ENDBRANCH  24  28
ENDBRANCH  23  24
ENDBRANCH  22  23
ENDBRANCH   1  22
BRANCH   9  33
ATOM     33  C   UNL     1       0.409  10.137  20.399  0.00  0.00    +0.000 C 
BRANCH  33  34
ATOM     34  C   UNL     1       1.266   8.920  20.333  0.00  0.00    +0.000 C 
ATOM     35  O   UNL     1       1.726   8.435  19.312  0.00  0.00    +0.000 OA
BRANCH  34  36
ATOM     36  O   UNL     1       1.565   8.417  21.560  0.00  0.00    +0.000 OA
ATOM     37  H   UNL     1       2.093   9.017  22.124  0.00  0.00    +0.000 HD
ENDBRANCH  34  36
ENDBRANCH  33  34
ENDBRANCH   9  33
BRANCH  13  38
ATOM     38  C   UNL     1      -1.572  15.232  20.853  0.00  0.00    +0.000 C 
BRANCH  38  39
ATOM     39  C   UNL     1      -1.380  16.394  19.897  0.00  0.00    +0.000 A 
ATOM     40  C   UNL     1      -2.298  17.445  19.869  0.00  0.00    +0.000 A 
ATOM     41  C   UNL     1      -2.327  18.331  18.792  0.00  0.00    +0.000 A 
ATOM     42  C   UNL     1      -1.325  18.290  17.829  0.00  0.00    +0.000 A 
ATOM     43  C   UNL     1      -0.274  17.387  17.973  0.00  0.00    +0.000 A 
ATOM     44  C   UNL     1      -0.312  16.423  18.986  0.00  0.00    +0.000 A 
ENDBRANCH  38  39
ENDBRANCH  13  38
TORSDOF 9
ENDMDL
MODEL 9
REMARK VINA RESULT:      -6.8      3.531      7.202
REMARK  Name = 
REMARK  9 active torsions:
REMARK  status: ('A' for Active; 'I' for Inactive)
REMARK    1  A    between atoms: N_4  and  C_5
REMARK    2  A    between atoms: C_5  and  C_6
REMARK    3  A    between atoms: C_6  and  C_7
REMARK    4  A    between atoms: C_7  and  C_8
REMARK    5  A    between atoms: C_16  and  C_17
REMARK    6  A    between atoms: C_17  and  C_18
REMARK    7  A    between atoms: C_18  and  O_20
REMARK    8  A    between atoms: C_24  and  C_25
REMARK    9  A    between atoms: C_25  and  C_26
REMARK                            x       y       z     vdW  Elec       q    Type
REMARK                         _______ _______ _______ _____ _____    ______ ____
ROOT
ATOM      1  C   UNL     1      -4.458  12.338  18.580  0.00  0.00    +0.000 C 
ATOM      2  N   UNL     1      -4.150  10.934  18.307  0.00  0.00    +0.000 N 
ATOM      3  C   UNL     1      -3.666  10.618  17.055  0.00  0.00    +0.000 C 
ATOM      4  O   UNL     1      -4.255  10.918  16.019  0.00  0.00    +0.000 OA
ATOM      5  C   UNL     1      -2.336   9.889  17.014  0.00  0.00    +0.000 C 
ATOM      6  C   UNL     1      -1.427  10.233  18.160  0.00  0.00    +0.000 C 
ATOM      7  O   UNL     1      -1.875  10.451  19.288  0.00  0.00    +0.000 OA
ATOM      8  N   UNL     1      -0.071  10.257  17.909  0.00  0.00    +0.000 N 
ATOM      9  C   UNL     1       0.828  10.785  18.962  0.00  0.00    +0.000 C 
ATOM     10  C   UNL     1       0.423  12.288  19.074  0.00  0.00    +0.000 C 
ATOM     11  O   UNL     1       0.359  12.974  18.027  0.00  0.00    +0.000 OA
ATOM     12  N   UNL     1      -0.057  12.768  20.264  0.00  0.00    +0.000 N 
ATOM     13  C   UNL     1      -1.073  13.829  20.351  0.00  0.00    +0.000 C 
ATOM     14  C   UNL     1      -2.319  13.311  21.130  0.00  0.00    +0.000 C 
ATOM     15  N   UNL     1      -3.574  13.636  20.464  0.00  0.00    +0.000 N 
ATOM     16  C   UNL     1      -4.378  12.566  20.106  0.00  0.00    +0.000 C 
ATOM     17  O   UNL     1      -4.872  11.803  20.938  0.00  0.00    +0.000 OA
ATOM     18  H   UNL     1      -3.646  10.510  19.085  0.00  0.00    +0.000 HD
ATOM     19  H   UNL     1       0.232  10.378  16.948  0.00  0.00    +0.000 HD
ATOM     20  H   UNL     1       0.130  12.262  21.121  0.00  0.00    +0.000 HD
ATOM     21  H   UNL     1      -3.541  14.418  19.820  0.00  0.00    +0.000 HD
ENDROOT
BRANCH   1  22
ATOM     22  C   UNL     1      -5.791  12.757  18.001  0.00  0.00    +0.000 C 
BRANCH  22  23
ATOM     23  C   UNL     1      -6.539  13.704  18.936  0.00  0.00    +0.000 C 
BRANCH  23  24
ATOM     24  C   UNL     1      -7.882  13.070  19.309  0.00  0.00    +0.000 C 
BRANCH  24  28
ATOM     25  N   UNL     1      -7.589  10.357  20.062  0.00  0.00    +0.000 NA
ATOM     26  C   UNL     1      -7.768  11.265  20.953  0.00  0.00    +0.000 C 
ATOM     27  N   UNL     1      -7.838  10.990  22.276  0.00  0.00    +0.000 N 
ATOM     28  N   UNL     1      -7.889  12.573  20.665  0.00  0.00    +0.000 N 
ATOM     29  H   UNL     1      -7.527   9.440  20.502  0.00  0.00    +0.000 HD
ATOM     30  H   UNL     1      -7.481  10.079  22.538  0.00  0.00    +0.000 HD
ATOM     31  H   UNL     1      -7.446  11.715  22.879  0.00  0.00    +0.000 HD
ATOM     32  H   UNL     1      -8.401  13.131  21.330  0.00  0.00    +0.000 HD
ENDBRANCH  24  28
ENDBRANCH  23  24
ENDBRANCH  22  23
ENDBRANCH   1  22
BRANCH   9  33
ATOM     33  C   UNL     1       0.764   9.922  20.225  0.00  0.00    +0.000 C 
BRANCH  33  34
ATOM     34  C   UNL     1       1.502   8.640  20.049  0.00  0.00    +0.000 C 
ATOM     35  O   UNL     1       1.910   8.202  18.987  0.00  0.00    +0.000 OA
BRANCH  34  36
ATOM     36  O   UNL     1       1.758   8.011  21.227  0.00  0.00    +0.000 OA
ATOM     37  H   UNL     1       1.274   8.377  21.993  0.00  0.00    +0.000 HD
ENDBRANCH  34  36
ENDBRANCH  33  34
ENDBRANCH   9  33
BRANCH  13  38
ATOM     38  C   UNL     1      -0.581  15.194  20.931  0.00  0.00    +0.000 C 
BRANCH  38  39
ATOM     39  C   UNL     1      -0.609  16.379  19.984  0.00  0.00    +0.000 A 
ATOM     40  C   UNL     1      -1.025  17.633  20.434  0.00  0.00    +0.000 A 
ATOM     41  C   UNL     1      -1.375  18.630  19.524  0.00  0.00    +0.000 A 
ATOM     42  C   UNL     1      -1.137  18.451  18.167  0.00  0.00    +0.000 A 
ATOM     43  C   UNL     1      -0.509  17.286  17.731  0.00  0.00    +0.000 A 
ATOM     44  C   UNL     1      -0.270  16.240  18.629  0.00  0.00    +0.000 A 
ENDBRANCH  38  39
ENDBRANCH  13  38
TORSDOF 9
ENDMDL
