MODEL 1
REMARK VINA RESULT:      -6.9      0.000      0.000
REMARK  Name = 
REMARK  2 active torsions:
REMARK  status: ('A' for Active; 'I' for Inactive)
REMARK    1  A    between atoms: C_1  and  C_2
REMARK    2  A    between atoms: N_4  and  C_5
REMARK                            x       y       z     vdW  Elec       q    Type
REMARK                         _______ _______ _______ _____ _____    ______ ____
ROOT
ATOM      1  C   UNL     1       5.234   4.986  18.195  0.00  0.00    +0.000 C 
ATOM      2  C   UNL     1       4.418   4.730  16.927  0.00  0.00    +0.000 C 
ATOM      3  C   UNL     1       3.484   3.538  17.099  0.00  0.00    +0.000 C 
ATOM      4  C   UNL     1       2.664   3.610  18.361  0.00  0.00    +0.000 A 
ATOM      5  C   UNL     1       1.487   2.849  18.455  0.00  0.00    +0.000 A 
ATOM      6  C   UNL     1       0.721   2.866  19.620  0.00  0.00    +0.000 A 
ATOM      7  C   UNL     1       1.130   3.632  20.706  0.00  0.00    +0.000 A 
ATOM      8  C   UNL     1       2.303   4.383  20.628  0.00  0.00    +0.000 A 
ATOM      9  C   UNL     1       3.083   4.376  19.462  0.00  0.00    +0.000 A 
ATOM     10  C   UNL     1       4.313   5.251  19.399  0.00  0.00    +0.000 C 
ENDROOT
BRANCH   1  14
ATOM     11  C   UNL     1       8.139   7.442  18.214  0.00  0.00    +0.000 C 
ATOM     12  C   UNL     1       7.408   6.159  18.513  0.00  0.00    +0.000 C 
ATOM     13  O   UNL     1       7.905   5.254  19.172  0.00  0.00    +0.000 OA
ATOM     14  N   UNL     1       6.141   6.116  17.975  0.00  0.00    +0.000 N 
ATOM     15  H   UNL     1       5.738   6.989  17.660  0.00  0.00    +0.000 HD
ENDBRANCH   1  14
TORSDOF 1
ENDMDL
MODEL 2
REMARK VINA RESULT:      -6.8      1.945      2.924
REMARK  Name = 
REMARK  2 active torsions:
REMARK  status: ('A' for Active; 'I' for Inactive)
REMARK    1  A    between atoms: C_1  and  C_2
REMARK    2  A    between atoms: N_4  and  C_5
REMARK                            x       y       z     vdW  Elec       q    Type
REMARK                         _______ _______ _______ _____ _____    ______ ____
ROOT
ATOM      1  C   UNL     1       4.430   4.695  17.002  0.00  0.00    +0.000 C 
ATOM      2  C   UNL     1       5.191   4.906  18.312  0.00  0.00    +0.000 C 
ATOM      3  C   UNL     1       4.253   5.333  19.436  0.00  0.00    +0.000 C 
ATOM      4  C   UNL     1       3.039   4.448  19.558  0.00  0.00    +0.000 A 
ATOM      5  C   UNL     1       2.323   4.434  20.766  0.00  0.00    +0.000 A 
ATOM      6  C   UNL     1       1.176   3.652  20.904  0.00  0.00    +0.000 A 
ATOM      7  C   UNL     1       0.726   2.889  19.831  0.00  0.00    +0.000 A 
ATOM      8  C   UNL     1       1.424   2.904  18.623  0.00  0.00    +0.000 A 
ATOM      9  C   UNL     1       2.580   3.685  18.471  0.00  0.00    +0.000 A 
ATOM     10  C   UNL     1       3.337   3.625  17.166  0.00  0.00    +0.000 C 
ENDROOT
BRANCH   1  14
ATOM     11  C   UNL     1       6.780   4.624  14.012  0.00  0.00    +0.000 C 
ATOM     12  C   UNL     1       5.885   5.239  15.056  0.00  0.00    +0.000 C 
ATOM     13  O   UNL     1       5.646   6.441  15.097  0.00  0.00    +0.000 OA
ATOM     14  N   UNL     1       5.372   4.321  15.944  0.00  0.00    +0.000 N 
ATOM     15  H   UNL     1       5.429   3.344  15.689  0.00  0.00    +0.000 HD
ENDBRANCH   1  14
TORSDOF 1
ENDMDL
MODEL 3
REMARK VINA RESULT:      -6.5      1.312      1.636
REMARK  Name = 
REMARK  2 active torsions:
REMARK  status: ('A' for Active; 'I' for Inactive)
REMARK    1  A    between atoms: C_1  and  C_2
REMARK    2  A    between atoms: N_4  and  C_5
REMARK                            x       y       z     vdW  Elec       q    Type
REMARK                         _______ _______ _______ _____ _____    ______ ____
ROOT
ATOM      1  C   UNL     1       5.888   6.024  17.376  0.00  0.00    +0.000 C 
ATOM      2  C   UNL     1       5.474   5.445  16.022  0.00  0.00    +0.000 C 
ATOM      3  C   UNL     1       4.759   4.109  16.185  0.00  0.00    +0.000 C 
ATOM      4  C   UNL     1       3.652   4.154  17.206  0.00  0.00    +0.000 A 
ATOM      5  C   UNL     1       2.647   3.173  17.168  0.00  0.00    +0.000 A 
ATOM      6  C   UNL     1       1.625   3.165  18.117  0.00  0.00    +0.000 A 
ATOM      7  C   UNL     1       1.605   4.128  19.120  0.00  0.00    +0.000 A 
ATOM      8  C   UNL     1       2.604   5.100  19.174  0.00  0.00    +0.000 A 
ATOM      9  C   UNL     1       3.638   5.121  18.226  0.00  0.00    +0.000 A 
ATOM     10  C   UNL     1       4.664   6.227  18.286  0.00  0.00    +0.000 C 
ENDROOT
BRANCH   1  14
ATOM     11  C   UNL     1       8.233   9.012  17.585  0.00  0.00    +0.000 C 
ATOM     12  C   UNL     1       7.701   7.643  17.919  0.00  0.00    +0.000 C 
ATOM     13  O   UNL     1       8.208   6.928  18.776  0.00  0.00    +0.000 OA
ATOM     14  N   UNL     1       6.601   7.287  17.171  0.00  0.00    +0.000 N 
ATOM     15  H   UNL     1       6.119   8.024  16.672  0.00  0.00    +0.000 HD
ENDBRANCH   1  14
TORSDOF 1
ENDMDL
MODEL 4
REMARK VINA RESULT:      -6.4      1.119      1.119
REMARK  Name = 
REMARK  2 active torsions:
REMARK  status: ('A' for Active; 'I' for Inactive)
REMARK    1  A    between atoms: C_1  and  C_2
REMARK    2  A    between atoms: N_4  and  C_5
REMARK                            x       y       z     vdW  Elec       q    Type
REMARK                         _______ _______ _______ _____ _____    ______ ____
ROOT
ATOM      1  C   UNL     1       5.475   5.209  18.138  0.00  0.00    +0.000 C 
ATOM      2  C   UNL     1       4.639   5.139  16.859  0.00  0.00    +0.000 C 
ATOM      3  C   UNL     1       3.897   3.812  16.751  0.00  0.00    +0.000 C 
ATOM      4  C   UNL     1       3.142   3.457  18.006  0.00  0.00    +0.000 A 
ATOM      5  C   UNL     1       2.094   2.524  17.932  0.00  0.00    +0.000 A 
ATOM      6  C   UNL     1       1.395   2.148  19.079  0.00  0.00    +0.000 A 
ATOM      7  C   UNL     1       1.745   2.688  20.312  0.00  0.00    +0.000 A 
ATOM      8  C   UNL     1       2.792   3.607  20.399  0.00  0.00    +0.000 A 
ATOM      9  C   UNL     1       3.504   3.995  19.253  0.00  0.00    +0.000 A 
ATOM     10  C   UNL     1       4.589   5.037  19.384  0.00  0.00    +0.000 C 
ENDROOT
BRANCH   1  14
ATOM     11  C   UNL     1       7.854   8.122  17.571  0.00  0.00    +0.000 C 
ATOM     12  C   UNL     1       7.206   6.789  17.299  0.00  0.00    +0.000 C 
ATOM     13  O   UNL     1       7.557   6.060  16.378  0.00  0.00    +0.000 OA
ATOM     14  N   UNL     1       6.196   6.483  18.183  0.00  0.00    +0.000 N 
ATOM     15  H   UNL     1       6.144   7.024  19.036  0.00  0.00    +0.000 HD
ENDBRANCH   1  14
TORSDOF 1
ENDMDL
MODEL 5
REMARK VINA RESULT:      -6.3      2.556      5.563
REMARK  Name = 
REMARK  2 active torsions:
REMARK  status: ('A' for Active; 'I' for Inactive)
REMARK    1  A    between atoms: C_1  and  C_2
REMARK    2  A    between atoms: N_4  and  C_5
REMARK                            x       y       z     vdW  Elec       q    Type
REMARK                         _______ _______ _______ _____ _____    ______ ____
ROOT
ATOM      1  C   UNL     1       4.188   3.785  19.104  0.00  0.00    +0.000 C 
ATOM      2  C   UNL     1       4.808   5.154  19.389  0.00  0.00    +0.000 C 
ATOM      3  C   UNL     1       6.158   5.308  18.699  0.00  0.00    +0.000 C 
ATOM      4  C   UNL     1       6.119   4.936  17.239  0.00  0.00    +0.000 A 
ATOM      5  C   UNL     1       7.127   5.414  16.385  0.00  0.00    +0.000 A 
ATOM      6  C   UNL     1       7.140   5.064  15.035  0.00  0.00    +0.000 A 
ATOM      7  C   UNL     1       6.156   4.221  14.529  0.00  0.00    +0.000 A 
ATOM      8  C   UNL     1       5.157   3.731  15.371  0.00  0.00    +0.000 A 
ATOM      9  C   UNL     1       5.131   4.076  16.731  0.00  0.00    +0.000 A 
ATOM     10  C   UNL     1       3.997   3.571  17.592  0.00  0.00    +0.000 C 
ENDROOT
BRANCH   1  14
ATOM     11  C   UNL     1       1.345   2.847  21.450  0.00  0.00    +0.000 C 
ATOM     12  C   UNL     1       2.756   2.870  20.924  0.00  0.00    +0.000 C 
ATOM     13  O   UNL     1       3.665   2.234  21.444  0.00  0.00    +0.000 OA
ATOM     14  N   UNL     1       2.911   3.667  19.812  0.00  0.00    +0.000 N 
ATOM     15  H   UNL     1       2.073   3.952  19.323  0.00  0.00    +0.000 HD
ENDBRANCH   1  14
TORSDOF 1
ENDMDL
MODEL 6
REMARK VINA RESULT:      -6.2      2.384      2.597
REMARK  Name = 
REMARK  2 active torsions:
REMARK  status: ('A' for Active; 'I' for Inactive)
REMARK    1  A    between atoms: C_1  and  C_2
REMARK    2  A    between atoms: N_4  and  C_5
REMARK                            x       y       z     vdW  Elec       q    Type
REMARK                         _______ _______ _______ _____ _____    ______ ____
ROOT
ATOM      1  C   UNL     1       4.391   4.125  17.373  0.00  0.00    +0.000 C 
ATOM      2  C   UNL     1       3.435   5.313  17.491  0.00  0.00    +0.000 C 
ATOM      3  C   UNL     1       2.081   4.885  18.044  0.00  0.00    +0.000 C 
ATOM      4  C   UNL     1       2.192   4.052  19.294  0.00  0.00    +0.000 A 
ATOM      5  C   UNL     1       1.080   3.944  20.145  0.00  0.00    +0.000 A 
ATOM      6  C   UNL     1       1.137   3.155  21.294  0.00  0.00    +0.000 A 
ATOM      7  C   UNL     1       2.301   2.456  21.597  0.00  0.00    +0.000 A 
ATOM      8  C   UNL     1       3.408   2.547  20.752  0.00  0.00    +0.000 A 
ATOM      9  C   UNL     1       3.365   3.337  19.593  0.00  0.00    +0.000 A 
ATOM     10  C   UNL     1       4.606   3.454  18.741  0.00  0.00    +0.000 C 
ENDROOT
BRANCH   1  14
ATOM     11  C   UNL     1       7.320   4.982  15.103  0.00  0.00    +0.000 C 
ATOM     12  C   UNL     1       5.925   4.535  15.455  0.00  0.00    +0.000 C 
ATOM     13  O   UNL     1       5.114   4.174  14.611  0.00  0.00    +0.000 OA
ATOM     14  N   UNL     1       5.665   4.574  16.807  0.00  0.00    +0.000 N 
ATOM     15  H   UNL     1       6.457   4.652  17.432  0.00  0.00    +0.000 HD
ENDBRANCH   1  14
TORSDOF 1
ENDMDL
MODEL 7
REMARK VINA RESULT:      -6.2      2.258      3.019
REMARK  Name = 
REMARK  2 active torsions:
REMARK  status: ('A' for Active; 'I' for Inactive)
REMARK    1  A    between atoms: C_1  and  C_2
REMARK    2  A    between atoms: N_4  and  C_5
REMARK                            x       y       z     vdW  Elec       q    Type
REMARK                         _______ _______ _______ _____ _____    ______ ____
ROOT
ATOM      1  C   UNL     1       4.831   4.428  17.070  0.00  0.00    +0.000 C 
ATOM      2  C   UNL     1       3.954   3.242  17.475  0.00  0.00    +0.000 C 
ATOM      3  C   UNL     1       3.525   3.340  18.934  0.00  0.00    +0.000 C 
ATOM      4  C   UNL     1       2.950   4.687  19.289  0.00  0.00    +0.000 A 
ATOM      5  C   UNL     1       2.137   4.804  20.429  0.00  0.00    +0.000 A 
ATOM      6  C   UNL     1       1.614   6.041  20.805  0.00  0.00    +0.000 A 
ATOM      7  C   UNL     1       1.910   7.174  20.056  0.00  0.00    +0.000 A 
ATOM      8  C   UNL     1       2.726   7.072  18.929  0.00  0.00    +0.000 A 
ATOM      9  C   UNL     1       3.258   5.834  18.537  0.00  0.00    +0.000 A 
ATOM     10  C   UNL     1       4.087   5.759  17.277  0.00  0.00    +0.000 C 
ENDROOT
BRANCH   1  14
ATOM     11  C   UNL     1       6.750   4.281  13.790  0.00  0.00    +0.000 C 
ATOM     12  C   UNL     1       6.560   4.412  15.278  0.00  0.00    +0.000 C 
ATOM     13  O   UNL     1       7.491   4.621  16.048  0.00  0.00    +0.000 OA
ATOM     14  N   UNL     1       5.248   4.276  15.674  0.00  0.00    +0.000 N 
ATOM     15  H   UNL     1       4.536   4.347  14.960  0.00  0.00    +0.000 HD
ENDBRANCH   1  14
TORSDOF 1
ENDMDL
MODEL 8
REMARK VINA RESULT:      -6.2      2.013      2.339
REMARK  Name = 
REMARK  2 active torsions:
REMARK  status: ('A' for Active; 'I' for Inactive)
REMARK    1  A    between atoms: C_1  and  C_2
REMARK    2  A    between atoms: N_4  and  C_5
REMARK                            x       y       z     vdW  Elec       q    Type
REMARK                         _______ _______ _______ _____ _____    ______ ____
ROOT
ATOM      1  C   UNL     1       4.828   3.841  17.154  0.00  0.00    +0.000 C 
ATOM      2  C   UNL     1       3.971   2.582  17.007  0.00  0.00    +0.000 C 
ATOM      3  C   UNL     1       3.404   2.136  18.350  0.00  0.00    +0.000 C 
ATOM      4  C   UNL     1       2.738   3.256  19.108  0.00  0.00    +0.000 A 
ATOM      5  C   UNL     1       1.818   2.942  20.122  0.00  0.00    +0.000 A 
ATOM      6  C   UNL     1       1.207   3.951  20.866  0.00  0.00    +0.000 A 
ATOM      7  C   UNL     1       1.521   5.283  20.614  0.00  0.00    +0.000 A 
ATOM      8  C   UNL     1       2.442   5.606  19.617  0.00  0.00    +0.000 A 
ATOM      9  C   UNL     1       3.064   4.600  18.860  0.00  0.00    +0.000 A 
ATOM     10  C   UNL     1       4.009   4.998  17.752  0.00  0.00    +0.000 C 
ENDROOT
BRANCH   1  14
ATOM     11  C   UNL     1       7.042   4.948  14.266  0.00  0.00    +0.000 C 
ATOM     12  C   UNL     1       6.708   4.532  15.675  0.00  0.00    +0.000 C 
ATOM     13  O   UNL     1       7.547   4.489  16.567  0.00  0.00    +0.000 OA
ATOM     14  N   UNL     1       5.380   4.212  15.849  0.00  0.00    +0.000 N 
ATOM     15  H   UNL     1       4.732   4.506  15.130  0.00  0.00    +0.000 HD
ENDBRANCH   1  14
TORSDOF 1
ENDMDL
MODEL 9
REMARK VINA RESULT:      -6.2      1.630      2.040
REMARK  Name = 
REMARK  2 active torsions:
REMARK  status: ('A' for Active; 'I' for Inactive)
REMARK    1  A    between atoms: C_1  and  C_2
REMARK    2  A    between atoms: N_4  and  C_5
REMARK                            x       y       z     vdW  Elec       q    Type
REMARK                         _______ _______ _______ _____ _____    ______ ____
ROOT
ATOM      1  C   UNL     1       4.689   6.192  17.529  0.00  0.00    +0.000 C 
ATOM      2  C   UNL     1       3.383   6.787  18.060  0.00  0.00    +0.000 C 
ATOM      3  C   UNL     1       2.194   5.887  17.744  0.00  0.00    +0.000 C 
ATOM      4  C   UNL     1       2.425   4.449  18.133  0.00  0.00    +0.000 A 
ATOM      5  C   UNL     1       1.318   3.602  18.308  0.00  0.00    +0.000 A 
ATOM      6  C   UNL     1       1.495   2.258  18.635  0.00  0.00    +0.000 A 
ATOM      7  C   UNL     1       2.780   1.744  18.777  0.00  0.00    +0.000 A 
ATOM      8  C   UNL     1       3.887   2.573  18.594  0.00  0.00    +0.000 A 
ATOM      9  C   UNL     1       3.724   3.928  18.265  0.00  0.00    +0.000 A 
ATOM     10  C   UNL     1       4.948   4.802  18.135  0.00  0.00    +0.000 C 
ENDROOT
BRANCH   1  14
ATOM     11  C   UNL     1       8.023   8.017  17.676  0.00  0.00    +0.000 C 
ATOM     12  C   UNL     1       7.007   7.028  17.169  0.00  0.00    +0.000 C 
ATOM     13  O   UNL     1       7.249   6.238  16.263  0.00  0.00    +0.000 OA
ATOM     14  N   UNL     1       5.797   7.104  17.822  0.00  0.00    +0.000 N 
ATOM     15  H   UNL     1       5.772   7.609  18.698  0.00  0.00    +0.000 HD
ENDBRANCH   1  14
TORSDOF 1
ENDMDL
