MODEL 1
REMARK VINA RESULT:      -8.4      0.000      0.000
REMARK  Name = 
REMARK  7 active torsions:
REMARK  status: ('A' for Active; 'I' for Inactive)
REMARK    1  A    between atoms: C_1  and  O_2
REMARK    2  A    between atoms: O_2  and  C_3
REMARK    3  A    between atoms: C_4  and  C_5
REMARK    4  A    between atoms: C_8  and  C_9
REMARK    5  A    between atoms: C_9  and  N_10
REMARK    6  A    between atoms: C_15  and  C_16
REMARK    7  A    between atoms: C_26  and  C_27
REMARK                            x       y       z     vdW  Elec       q    Type
REMARK                         _______ _______ _______ _____ _____    ______ ____
ROOT
ATOM      1  N   UNL     1       6.133   5.324  17.059  0.00  0.00    +0.000 N 
ATOM      2  C   UNL     1       6.855   4.774  18.114  0.00  0.00    +0.000 A 
ATOM      3  C   UNL     1       7.729   5.518  18.806  0.00  0.00    +0.000 A 
ATOM      4  N   UNL     1       7.907   6.855  18.491  0.00  0.00    +0.000 N 
ATOM      5  N   UNL     1       8.746   7.744  19.077  0.00  0.00    +0.000 NA
ATOM      6  C   UNL     1       8.512   8.916  18.462  0.00  0.00    +0.000 A 
ATOM      7  C   UNL     1       7.553   8.761  17.433  0.00  0.00    +0.000 A 
ATOM      8  C   UNL     1       7.189   7.438  17.475  0.00  0.00    +0.000 A 
ATOM      9  C   UNL     1       6.250   6.676  16.693  0.00  0.00    +0.000 A 
ATOM     10  O   UNL     1       5.619   7.176  15.761  0.00  0.00    +0.000 OA
ENDROOT
BRANCH   6  11
ATOM     11  C   UNL     1       9.199  10.149  18.852  0.00  0.00    +0.000 A 
ATOM     12  C   UNL     1       9.317  10.506  20.202  0.00  0.00    +0.000 A 
ATOM     13  C   UNL     1       9.979  11.681  20.570  0.00  0.00    +0.000 A 
ATOM     14  C   UNL     1      10.519  12.514  19.592  0.00  0.00    +0.000 A 
ATOM     15  C   UNL     1      10.403  12.174  18.247  0.00  0.00    +0.000 A 
ATOM     16  C   UNL     1       9.748  10.995  17.878  0.00  0.00    +0.000 A 
ENDBRANCH   6  11
BRANCH   1  17
ATOM     17  C   UNL     1       5.114   4.520  16.373  0.00  0.00    +0.000 C 
BRANCH  17  23
ATOM     18  C   UNL     1       2.166   4.031  18.800  0.00  0.00    +0.000 A 
ATOM     19  C   UNL     1       2.115   2.634  18.827  0.00  0.00    +0.000 A 
ATOM     20  C   UNL     1       1.124   1.753  19.527  0.00  0.00    +0.000 C 
ATOM     21  C   UNL     1       3.112   1.964  18.124  0.00  0.00    +0.000 A 
ATOM     22  N   UNL     1       4.057   2.549  17.367  0.00  0.00    +0.000 NA
ATOM     23  C   UNL     1       4.075   3.900  17.300  0.00  0.00    +0.000 A 
ATOM     24  C   UNL     1       3.160   4.685  18.022  0.00  0.00    +0.000 A 
ATOM     25  C   UNL     1       3.219   6.193  18.005  0.00  0.00    +0.000 C 
BRANCH  18  27
ATOM     26  C   UNL     1       1.450   5.226  20.779  0.00  0.00    +0.000 C 
ATOM     27  O   UNL     1       1.293   4.903  19.407  0.00  0.00    +0.000 OA
ENDBRANCH  18  27
ENDBRANCH  17  23
ENDBRANCH   1  17
TORSDOF 4
ENDMDL
MODEL 2
REMARK VINA RESULT:      -8.0      1.200      1.437
REMARK  Name = 
REMARK  7 active torsions:
REMARK  status: ('A' for Active; 'I' for Inactive)
REMARK    1  A    between atoms: C_1  and  O_2
REMARK    2  A    between atoms: O_2  and  C_3
REMARK    3  A    between atoms: C_4  and  C_5
REMARK    4  A    between atoms: C_8  and  C_9
REMARK    5  A    between atoms: C_9  and  N_10
REMARK    6  A    between atoms: C_15  and  C_16
REMARK    7  A    between atoms: C_26  and  C_27
REMARK                            x       y       z     vdW  Elec       q    Type
REMARK                         _______ _______ _______ _____ _____    ______ ____
ROOT
ATOM      1  N   UNL     1       6.510   5.522  17.844  0.00  0.00    +0.000 N 
ATOM      2  C   UNL     1       7.369   5.274  18.911  0.00  0.00    +0.000 A 
ATOM      3  C   UNL     1       8.214   6.220  19.342  0.00  0.00    +0.000 A 
ATOM      4  N   UNL     1       8.227   7.469  18.742  0.00  0.00    +0.000 N 
ATOM      5  N   UNL     1       9.014   8.530  19.045  0.00  0.00    +0.000 NA
ATOM      6  C   UNL     1       8.611   9.519  18.228  0.00  0.00    +0.000 A 
ATOM      7  C   UNL     1       7.593   9.066  17.357  0.00  0.00    +0.000 A 
ATOM      8  C   UNL     1       7.372   7.758  17.706  0.00  0.00    +0.000 A 
ATOM      9  C   UNL     1       6.457   6.769  17.197  0.00  0.00    +0.000 A 
ATOM     10  O   UNL     1       5.704   7.002  16.251  0.00  0.00    +0.000 OA
ENDROOT
BRANCH   6  11
ATOM     11  C   UNL     1       9.196  10.860  18.285  0.00  0.00    +0.000 A 
ATOM     12  C   UNL     1       8.541  11.952  17.701  0.00  0.00    +0.000 A 
ATOM     13  C   UNL     1       9.102  13.231  17.763  0.00  0.00    +0.000 A 
ATOM     14  C   UNL     1      10.325  13.428  18.401  0.00  0.00    +0.000 A 
ATOM     15  C   UNL     1      10.989  12.349  18.980  0.00  0.00    +0.000 A 
ATOM     16  C   UNL     1      10.426  11.071  18.926  0.00  0.00    +0.000 A 
ENDBRANCH   6  11
BRANCH   1  17
ATOM     17  C   UNL     1       5.528   4.507  17.444  0.00  0.00    +0.000 C 
BRANCH  17  23
ATOM     18  C   UNL     1       2.500   4.340  19.816  0.00  0.00    +0.000 A 
ATOM     19  C   UNL     1       2.794   3.148  20.487  0.00  0.00    +0.000 A 
ATOM     20  C   UNL     1       1.970   2.432  21.513  0.00  0.00    +0.000 C 
ATOM     21  C   UNL     1       4.010   2.547  20.176  0.00  0.00    +0.000 A 
ATOM     22  N   UNL     1       4.872   2.974  19.236  0.00  0.00    +0.000 NA
ATOM     23  C   UNL     1       4.562   4.099  18.551  0.00  0.00    +0.000 A 
ATOM     24  C   UNL     1       3.394   4.830  18.826  0.00  0.00    +0.000 A 
ATOM     25  C   UNL     1       3.079   6.123  18.113  0.00  0.00    +0.000 C 
BRANCH  18  27
ATOM     26  C   UNL     1       1.319   6.146  20.912  0.00  0.00    +0.000 C 
ATOM     27  O   UNL     1       1.365   5.106  19.949  0.00  0.00    +0.000 OA
ENDBRANCH  18  27
ENDBRANCH  17  23
ENDBRANCH   1  17
TORSDOF 4
ENDMDL
MODEL 3
REMARK VINA RESULT:      -7.8      6.708      9.349
REMARK  Name = 
REMARK  7 active torsions:
REMARK  status: ('A' for Active; 'I' for Inactive)
REMARK    1  A    between atoms: C_1  and  O_2
REMARK    2  A    between atoms: O_2  and  C_3
REMARK    3  A    between atoms: C_4  and  C_5
REMARK    4  A    between atoms: C_8  and  C_9
REMARK    5  A    between atoms: C_9  and  N_10
REMARK    6  A    between atoms: C_15  and  C_16
REMARK    7  A    between atoms: C_26  and  C_27
REMARK                            x       y       z     vdW  Elec       q    Type
REMARK                         _______ _______ _______ _____ _____    ______ ____
ROOT
ATOM      1  N   UNL     1       0.512  10.714  20.568  0.00  0.00    +0.000 N 
ATOM      2  C   UNL     1       0.565   9.825  21.638  0.00  0.00    +0.000 A 
ATOM      3  C   UNL     1       1.082   8.598  21.482  0.00  0.00    +0.000 A 
ATOM      4  N   UNL     1       1.590   8.208  20.254  0.00  0.00    +0.000 N 
ATOM      5  N   UNL     1       2.139   7.014  19.921  0.00  0.00    +0.000 NA
ATOM      6  C   UNL     1       2.532   7.144  18.642  0.00  0.00    +0.000 A 
ATOM      7  C   UNL     1       2.181   8.418  18.137  0.00  0.00    +0.000 A 
ATOM      8  C   UNL     1       1.582   9.070  19.185  0.00  0.00    +0.000 A 
ATOM      9  C   UNL     1       1.023  10.393  19.299  0.00  0.00    +0.000 A 
ATOM     10  O   UNL     1       0.981  11.169  18.343  0.00  0.00    +0.000 OA
ENDROOT
BRANCH   6  11
ATOM     11  C   UNL     1       3.223   6.068  17.929  0.00  0.00    +0.000 A 
ATOM     12  C   UNL     1       2.713   4.763  17.933  0.00  0.00    +0.000 A 
ATOM     13  C   UNL     1       3.374   3.741  17.246  0.00  0.00    +0.000 A 
ATOM     14  C   UNL     1       4.555   4.012  16.557  0.00  0.00    +0.000 A 
ATOM     15  C   UNL     1       5.075   5.304  16.550  0.00  0.00    +0.000 A 
ATOM     16  C   UNL     1       4.412   6.328  17.230  0.00  0.00    +0.000 A 
ENDBRANCH   6  11
BRANCH   1  17
ATOM     17  C   UNL     1       0.028  12.084  20.780  0.00  0.00    +0.000 C 
BRANCH  17  23
ATOM     18  C   UNL     1      -3.626  12.675  21.837  0.00  0.00    +0.000 A 
ATOM     19  C   UNL     1      -4.243  12.624  20.582  0.00  0.00    +0.000 A 
ATOM     20  C   UNL     1      -5.684  12.862  20.245  0.00  0.00    +0.000 C 
ATOM     21  C   UNL     1      -3.425  12.303  19.503  0.00  0.00    +0.000 A 
ATOM     22  N   UNL     1      -2.094  12.121  19.561  0.00  0.00    +0.000 NA
ATOM     23  C   UNL     1      -1.489  12.223  20.768  0.00  0.00    +0.000 A 
ATOM     24  C   UNL     1      -2.222  12.475  21.940  0.00  0.00    +0.000 A 
ATOM     25  C   UNL     1      -1.562  12.519  23.296  0.00  0.00    +0.000 C 
BRANCH  18  27
ATOM     26  C   UNL     1      -4.680  14.293  23.293  0.00  0.00    +0.000 C 
ATOM     27  O   UNL     1      -4.220  12.977  23.040  0.00  0.00    +0.000 OA
ENDBRANCH  18  27
ENDBRANCH  17  23
ENDBRANCH   1  17
TORSDOF 4
ENDMDL
MODEL 4
REMARK VINA RESULT:      -7.8      7.097      9.653
REMARK  Name = 
REMARK  7 active torsions:
REMARK  status: ('A' for Active; 'I' for Inactive)
REMARK    1  A    between atoms: C_1  and  O_2
REMARK    2  A    between atoms: O_2  and  C_3
REMARK    3  A    between atoms: C_4  and  C_5
REMARK    4  A    between atoms: C_8  and  C_9
REMARK    5  A    between atoms: C_9  and  N_10
REMARK    6  A    between atoms: C_15  and  C_16
REMARK    7  A    between atoms: C_26  and  C_27
REMARK                            x       y       z     vdW  Elec       q    Type
REMARK                         _______ _______ _______ _____ _____    ______ ____
ROOT
ATOM      1  N   UNL     1      -0.050  11.086  20.760  0.00  0.00    +0.000 N 
ATOM      2  C   UNL     1       0.111  10.224  21.841  0.00  0.00    +0.000 A 
ATOM      3  C   UNL     1       0.738   9.049  21.690  0.00  0.00    +0.000 A 
ATOM      4  N   UNL     1       1.254   8.688  20.456  0.00  0.00    +0.000 N 
ATOM      5  N   UNL     1       1.906   7.546  20.128  0.00  0.00    +0.000 NA
ATOM      6  C   UNL     1       2.257   7.692  18.839  0.00  0.00    +0.000 A 
ATOM      7  C   UNL     1       1.776   8.918  18.324  0.00  0.00    +0.000 A 
ATOM      8  C   UNL     1       1.140   9.528  19.375  0.00  0.00    +0.000 A 
ATOM      9  C   UNL     1       0.461  10.794  19.484  0.00  0.00    +0.000 A 
ATOM     10  O   UNL     1       0.325  11.547  18.518  0.00  0.00    +0.000 OA
ENDROOT
BRANCH   6  11
ATOM     11  C   UNL     1       3.031   6.675  18.125  0.00  0.00    +0.000 A 
ATOM     12  C   UNL     1       4.144   7.032  17.352  0.00  0.00    +0.000 A 
ATOM     13  C   UNL     1       4.883   6.056  16.678  0.00  0.00    +0.000 A 
ATOM     14  C   UNL     1       4.509   4.716  16.759  0.00  0.00    +0.000 A 
ATOM     15  C   UNL     1       3.400   4.348  17.518  0.00  0.00    +0.000 A 
ATOM     16  C   UNL     1       2.666   5.322  18.200  0.00  0.00    +0.000 A 
ENDBRANCH   6  11
BRANCH   1  17
ATOM     17  C   UNL     1      -0.656  12.408  20.963  0.00  0.00    +0.000 C 
BRANCH  17  23
ATOM     18  C   UNL     1      -4.367  12.571  21.978  0.00  0.00    +0.000 A 
ATOM     19  C   UNL     1      -4.955  12.581  20.709  0.00  0.00    +0.000 A 
ATOM     20  C   UNL     1      -6.406  12.720  20.359  0.00  0.00    +0.000 C 
ATOM     21  C   UNL     1      -4.094  12.434  19.625  0.00  0.00    +0.000 A 
ATOM     22  N   UNL     1      -2.753  12.367  19.701  0.00  0.00    +0.000 NA
ATOM     23  C   UNL     1      -2.180  12.411  20.926  0.00  0.00    +0.000 A 
ATOM     24  C   UNL     1      -2.952  12.488  22.097  0.00  0.00    +0.000 A 
ATOM     25  C   UNL     1      -2.322  12.466  23.468  0.00  0.00    +0.000 C 
BRANCH  18  27
ATOM     26  C   UNL     1      -5.493  13.975  23.594  0.00  0.00    +0.000 C 
ATOM     27  O   UNL     1      -5.006  12.707  23.188  0.00  0.00    +0.000 OA
ENDBRANCH  18  27
ENDBRANCH  17  23
ENDBRANCH   1  17
TORSDOF 4
ENDMDL
MODEL 5
REMARK VINA RESULT:      -7.7      6.729      9.548
REMARK  Name = 
REMARK  7 active torsions:
REMARK  status: ('A' for Active; 'I' for Inactive)
REMARK    1  A    between atoms: C_1  and  O_2
REMARK    2  A    between atoms: O_2  and  C_3
REMARK    3  A    between atoms: C_4  and  C_5
REMARK    4  A    between atoms: C_8  and  C_9
REMARK    5  A    between atoms: C_9  and  N_10
REMARK    6  A    between atoms: C_15  and  C_16
REMARK    7  A    between atoms: C_26  and  C_27
REMARK                            x       y       z     vdW  Elec       q    Type
REMARK                         _______ _______ _______ _____ _____    ______ ____
ROOT
ATOM      1  N   UNL     1       0.644  10.906  20.806  0.00  0.00    +0.000 N 
ATOM      2  C   UNL     1       0.702  10.048  21.900  0.00  0.00    +0.000 A 
ATOM      3  C   UNL     1       1.124   8.784  21.756  0.00  0.00    +0.000 A 
ATOM      4  N   UNL     1       1.529   8.323  20.514  0.00  0.00    +0.000 N 
ATOM      5  N   UNL     1       1.975   7.084  20.191  0.00  0.00    +0.000 NA
ATOM      6  C   UNL     1       2.297   7.148  18.887  0.00  0.00    +0.000 A 
ATOM      7  C   UNL     1       2.002   8.428  18.360  0.00  0.00    +0.000 A 
ATOM      8  C   UNL     1       1.513   9.151  19.418  0.00  0.00    +0.000 A 
ATOM      9  C   UNL     1       1.053  10.512  19.521  0.00  0.00    +0.000 A 
ATOM     10  O   UNL     1       1.005  11.261  18.543  0.00  0.00    +0.000 OA
ENDROOT
BRANCH   6  11
ATOM     11  C   UNL     1       2.869   6.007  18.171  0.00  0.00    +0.000 A 
ATOM     12  C   UNL     1       4.142   6.089  17.592  0.00  0.00    +0.000 A 
ATOM     13  C   UNL     1       4.685   4.993  16.914  0.00  0.00    +0.000 A 
ATOM     14  C   UNL     1       3.957   3.810  16.801  0.00  0.00    +0.000 A 
ATOM     15  C   UNL     1       2.687   3.718  17.366  0.00  0.00    +0.000 A 
ATOM     16  C   UNL     1       2.146   4.810  18.051  0.00  0.00    +0.000 A 
ENDBRANCH   6  11
BRANCH   1  17
ATOM     17  C   UNL     1       0.267  12.312  20.999  0.00  0.00    +0.000 C 
BRANCH  17  23
ATOM     18  C   UNL     1      -3.487  12.592  21.803  0.00  0.00    +0.000 A 
ATOM     19  C   UNL     1      -3.419  12.723  23.194  0.00  0.00    +0.000 A 
ATOM     20  C   UNL     1      -4.548  12.796  24.177  0.00  0.00    +0.000 C 
ATOM     21  C   UNL     1      -2.144  12.808  23.746  0.00  0.00    +0.000 A 
ATOM     22  N   UNL     1      -0.991  12.693  23.064  0.00  0.00    +0.000 NA
ATOM     23  C   UNL     1      -1.058  12.513  21.724  0.00  0.00    +0.000 A 
ATOM     24  C   UNL     1      -2.289  12.481  21.047  0.00  0.00    +0.000 A 
ATOM     25  C   UNL     1      -2.366  12.351  19.545  0.00  0.00    +0.000 C 
BRANCH  18  27
ATOM     26  C   UNL     1      -5.474  13.604  20.864  0.00  0.00    +0.000 C 
ATOM     27  O   UNL     1      -4.624  12.483  21.037  0.00  0.00    +0.000 OA
ENDBRANCH  18  27
ENDBRANCH  17  23
ENDBRANCH   1  17
TORSDOF 4
ENDMDL
MODEL 6
REMARK VINA RESULT:      -7.7      5.868      9.103
REMARK  Name = 
REMARK  7 active torsions:
REMARK  status: ('A' for Active; 'I' for Inactive)
REMARK    1  A    between atoms: C_1  and  O_2
REMARK    2  A    between atoms: O_2  and  C_3
REMARK    3  A    between atoms: C_4  and  C_5
REMARK    4  A    between atoms: C_8  and  C_9
REMARK    5  A    between atoms: C_9  and  N_10
REMARK    6  A    between atoms: C_15  and  C_16
REMARK    7  A    between atoms: C_26  and  C_27
REMARK                            x       y       z     vdW  Elec       q    Type
REMARK                         _______ _______ _______ _____ _____    ______ ____
ROOT
ATOM      1  N   UNL     1       1.189   9.840  19.480  0.00  0.00    +0.000 N 
ATOM      2  C   UNL     1       0.953   9.405  20.781  0.00  0.00    +0.000 A 
ATOM      3  C   UNL     1       1.180   8.130  21.127  0.00  0.00    +0.000 A 
ATOM      4  N   UNL     1       1.674   7.233  20.195  0.00  0.00    +0.000 N 
ATOM      5  N   UNL     1       1.953   5.918  20.370  0.00  0.00    +0.000 NA
ATOM      6  C   UNL     1       2.461   5.500  19.198  0.00  0.00    +0.000 A 
ATOM      7  C   UNL     1       2.454   6.547  18.246  0.00  0.00    +0.000 A 
ATOM      8  C   UNL     1       1.946   7.635  18.910  0.00  0.00    +0.000 A 
ATOM      9  C   UNL     1       1.704   8.991  18.486  0.00  0.00    +0.000 A 
ATOM     10  O   UNL     1       1.915   9.362  17.330  0.00  0.00    +0.000 OA
ENDROOT
BRANCH   6  11
ATOM     11  C   UNL     1       2.933   4.128  19.001  0.00  0.00    +0.000 A 
ATOM     12  C   UNL     1       2.441   3.345  17.948  0.00  0.00    +0.000 A 
ATOM     13  C   UNL     1       2.901   2.038  17.762  0.00  0.00    +0.000 A 
ATOM     14  C   UNL     1       3.847   1.498  18.632  0.00  0.00    +0.000 A 
ATOM     15  C   UNL     1       4.338   2.265  19.686  0.00  0.00    +0.000 A 
ATOM     16  C   UNL     1       3.887   3.575  19.869  0.00  0.00    +0.000 A 
ENDBRANCH   6  11
BRANCH   1  17
ATOM     17  C   UNL     1       1.022  11.259  19.143  0.00  0.00    +0.000 C 
BRANCH  17  23
ATOM     18  C   UNL     1      -2.791  11.785  19.083  0.00  0.00    +0.000 A 
ATOM     19  C   UNL     1      -2.906  12.773  20.066  0.00  0.00    +0.000 A 
ATOM     20  C   UNL     1      -4.153  13.393  20.619  0.00  0.00    +0.000 C 
ATOM     21  C   UNL     1      -1.715  13.257  20.599  0.00  0.00    +0.000 A 
ATOM     22  N   UNL     1      -0.486  12.796  20.305  0.00  0.00    +0.000 NA
ATOM     23  C   UNL     1      -0.379  11.804  19.392  0.00  0.00    +0.000 A 
ATOM     24  C   UNL     1      -1.507  11.283  18.735  0.00  0.00    +0.000 A 
ATOM     25  C   UNL     1      -1.386  10.224  17.666  0.00  0.00    +0.000 C 
BRANCH  18  27
ATOM     26  C   UNL     1      -4.561  11.849  17.435  0.00  0.00    +0.000 C 
ATOM     27  O   UNL     1      -3.817  11.153  18.420  0.00  0.00    +0.000 OA
ENDBRANCH  18  27
ENDBRANCH  17  23
ENDBRANCH   1  17
TORSDOF 4
ENDMDL
MODEL 7
REMARK VINA RESULT:      -7.7      8.163     10.679
REMARK  Name = 
REMARK  7 active torsions:
REMARK  status: ('A' for Active; 'I' for Inactive)
REMARK    1  A    between atoms: C_1  and  O_2
REMARK    2  A    between atoms: O_2  and  C_3
REMARK    3  A    between atoms: C_4  and  C_5
REMARK    4  A    between atoms: C_8  and  C_9
REMARK    5  A    between atoms: C_9  and  N_10
REMARK    6  A    between atoms: C_15  and  C_16
REMARK    7  A    between atoms: C_26  and  C_27
REMARK                            x       y       z     vdW  Elec       q    Type
REMARK                         _______ _______ _______ _____ _____    ______ ____
ROOT
ATOM      1  N   UNL     1      -1.385  11.589  22.005  0.00  0.00    +0.000 N 
ATOM      2  C   UNL     1      -1.169  10.721  23.071  0.00  0.00    +0.000 A 
ATOM      3  C   UNL     1      -0.419   9.621  22.916  0.00  0.00    +0.000 A 
ATOM      4  N   UNL     1       0.169   9.346  21.692  0.00  0.00    +0.000 N 
ATOM      5  N   UNL     1       0.945   8.286  21.360  0.00  0.00    +0.000 NA
ATOM      6  C   UNL     1       1.318   8.499  20.086  0.00  0.00    +0.000 A 
ATOM      7  C   UNL     1       0.727   9.682  19.582  0.00  0.00    +0.000 A 
ATOM      8  C   UNL     1       0.000  10.196  20.626  0.00  0.00    +0.000 A 
ATOM      9  C   UNL     1      -0.809  11.383  20.740  0.00  0.00    +0.000 A 
ATOM     10  O   UNL     1      -0.993  12.141  19.787  0.00  0.00    +0.000 OA
ENDROOT
BRANCH   6  11
ATOM     11  C   UNL     1       2.214   7.585  19.376  0.00  0.00    +0.000 A 
ATOM     12  C   UNL     1       2.523   6.326  19.909  0.00  0.00    +0.000 A 
ATOM     13  C   UNL     1       3.375   5.455  19.224  0.00  0.00    +0.000 A 
ATOM     14  C   UNL     1       3.933   5.838  18.005  0.00  0.00    +0.000 A 
ATOM     15  C   UNL     1       3.638   7.089  17.468  0.00  0.00    +0.000 A 
ATOM     16  C   UNL     1       2.781   7.957  18.148  0.00  0.00    +0.000 A 
ENDBRANCH   6  11
BRANCH   1  17
ATOM     17  C   UNL     1      -2.132  12.835  22.217  0.00  0.00    +0.000 C 
BRANCH  17  23
ATOM     18  C   UNL     1      -5.930  12.637  22.812  0.00  0.00    +0.000 A 
ATOM     19  C   UNL     1      -6.375  12.649  21.486  0.00  0.00    +0.000 A 
ATOM     20  C   UNL     1      -7.786  12.677  20.980  0.00  0.00    +0.000 C 
ATOM     21  C   UNL     1      -5.391  12.622  20.503  0.00  0.00    +0.000 A 
ATOM     22  N   UNL     1      -4.066  12.668  20.726  0.00  0.00    +0.000 NA
ATOM     23  C   UNL     1      -3.636  12.709  22.009  0.00  0.00    +0.000 A 
ATOM     24  C   UNL     1      -4.535  12.670  23.087  0.00  0.00    +0.000 A 
ATOM     25  C   UNL     1      -4.059  12.645  24.519  0.00  0.00    +0.000 C 
BRANCH  18  27
ATOM     26  C   UNL     1      -7.538  13.784  24.209  0.00  0.00    +0.000 C 
ATOM     27  O   UNL     1      -6.707  12.666  23.947  0.00  0.00    +0.000 OA
ENDBRANCH  18  27
ENDBRANCH  17  23
ENDBRANCH   1  17
TORSDOF 4
ENDMDL
MODEL 8
REMARK VINA RESULT:      -7.6      6.346      9.283
REMARK  Name = 
REMARK  7 active torsions:
REMARK  status: ('A' for Active; 'I' for Inactive)
REMARK    1  A    between atoms: C_1  and  O_2
REMARK    2  A    between atoms: O_2  and  C_3
REMARK    3  A    between atoms: C_4  and  C_5
REMARK    4  A    between atoms: C_8  and  C_9
REMARK    5  A    between atoms: C_9  and  N_10
REMARK    6  A    between atoms: C_15  and  C_16
REMARK    7  A    between atoms: C_26  and  C_27
REMARK                            x       y       z     vdW  Elec       q    Type
REMARK                         _______ _______ _______ _____ _____    ______ ____
ROOT
ATOM      1  N   UNL     1       0.762  10.615  19.400  0.00  0.00    +0.000 N 
ATOM      2  C   UNL     1       1.432  10.424  18.195  0.00  0.00    +0.000 A 
ATOM      3  C   UNL     1       2.073   9.274  17.944  0.00  0.00    +0.000 A 
ATOM      4  N   UNL     1       2.056   8.249  18.877  0.00  0.00    +0.000 N 
ATOM      5  N   UNL     1       2.650   7.034  18.790  0.00  0.00    +0.000 NA
ATOM      6  C   UNL     1       2.296   6.382  19.911  0.00  0.00    +0.000 A 
ATOM      7  C   UNL     1       1.513   7.211  20.748  0.00  0.00    +0.000 A 
ATOM      8  C   UNL     1       1.379   8.393  20.064  0.00  0.00    +0.000 A 
ATOM      9  C   UNL     1       0.689   9.616  20.385  0.00  0.00    +0.000 A 
ATOM     10  O   UNL     1       0.101   9.771  21.456  0.00  0.00    +0.000 OA
ENDROOT
BRANCH   6  11
ATOM     11  C   UNL     1       2.707   5.000  20.168  0.00  0.00    +0.000 A 
ATOM     12  C   UNL     1       2.071   4.235  21.154  0.00  0.00    +0.000 A 
ATOM     13  C   UNL     1       2.464   2.915  21.391  0.00  0.00    +0.000 A 
ATOM     14  C   UNL     1       3.502   2.351  20.652  0.00  0.00    +0.000 A 
ATOM     15  C   UNL     1       4.147   3.103  19.673  0.00  0.00    +0.000 A 
ATOM     16  C   UNL     1       3.750   4.421  19.430  0.00  0.00    +0.000 A 
ENDBRANCH   6  11
BRANCH   1  17
ATOM     17  C   UNL     1      -0.011  11.844  19.619  0.00  0.00    +0.000 C 
BRANCH  17  23
ATOM     18  C   UNL     1      -3.829  12.289  19.404  0.00  0.00    +0.000 A 
ATOM     19  C   UNL     1      -4.067  11.672  18.171  0.00  0.00    +0.000 A 
ATOM     20  C   UNL     1      -5.360  11.561  17.422  0.00  0.00    +0.000 C 
ATOM     21  C   UNL     1      -2.971  11.074  17.556  0.00  0.00    +0.000 A 
ATOM     22  N   UNL     1      -1.705  11.115  18.010  0.00  0.00    +0.000 NA
ATOM     23  C   UNL     1      -1.467  11.757  19.178  0.00  0.00    +0.000 A 
ATOM     24  C   UNL     1      -2.506  12.339  19.923  0.00  0.00    +0.000 A 
ATOM     25  C   UNL     1      -2.256  12.995  21.259  0.00  0.00    +0.000 C 
BRANCH  18  27
ATOM     26  C   UNL     1      -5.779  12.222  20.834  0.00  0.00    +0.000 C 
ATOM     27  O   UNL     1      -4.745  12.947  20.191  0.00  0.00    +0.000 OA
ENDBRANCH  18  27
ENDBRANCH  17  23
ENDBRANCH   1  17
TORSDOF 4
ENDMDL
MODEL 9
REMARK VINA RESULT:      -7.6      7.425      9.861
REMARK  Name = 
REMARK  7 active torsions:
REMARK  status: ('A' for Active; 'I' for Inactive)
REMARK    1  A    between atoms: C_1  and  O_2
REMARK    2  A    between atoms: O_2  and  C_3
REMARK    3  A    between atoms: C_4  and  C_5
REMARK    4  A    between atoms: C_8  and  C_9
REMARK    5  A    between atoms: C_9  and  N_10
REMARK    6  A    between atoms: C_15  and  C_16
REMARK    7  A    between atoms: C_26  and  C_27
REMARK                            x       y       z     vdW  Elec       q    Type
REMARK                         _______ _______ _______ _____ _____    ______ ____
ROOT
ATOM      1  N   UNL     1      -0.563  11.468  20.422  0.00  0.00    +0.000 N 
ATOM      2  C   UNL     1      -0.219  10.793  21.590  0.00  0.00    +0.000 A 
ATOM      3  C   UNL     1       0.528   9.682  21.543  0.00  0.00    +0.000 A 
ATOM      4  N   UNL     1       0.987   9.202  20.327  0.00  0.00    +0.000 N 
ATOM      5  N   UNL     1       1.741   8.100  20.098  0.00  0.00    +0.000 NA
ATOM      6  C   UNL     1       1.973   8.094  18.774  0.00  0.00    +0.000 A 
ATOM      7  C   UNL     1       1.312   9.175  18.144  0.00  0.00    +0.000 A 
ATOM      8  C   UNL     1       0.692   9.860  19.158  0.00  0.00    +0.000 A 
ATOM      9  C   UNL     1      -0.121  11.049  19.156  0.00  0.00    +0.000 A 
ATOM     10  O   UNL     1      -0.418  11.635  18.114  0.00  0.00    +0.000 OA
ENDROOT
BRANCH   6  11
ATOM     11  C   UNL     1       2.804   7.071  18.136  0.00  0.00    +0.000 A 
ATOM     12  C   UNL     1       2.482   5.712  18.251  0.00  0.00    +0.000 A 
ATOM     13  C   UNL     1       3.276   4.740  17.635  0.00  0.00    +0.000 A 
ATOM     14  C   UNL     1       4.403   5.117  16.908  0.00  0.00    +0.000 A 
ATOM     15  C   UNL     1       4.738   6.464  16.791  0.00  0.00    +0.000 A 
ATOM     16  C   UNL     1       3.940   7.437  17.400  0.00  0.00    +0.000 A 
ENDBRANCH   6  11
BRANCH   1  17
ATOM     17  C   UNL     1      -1.304  12.733  20.500  0.00  0.00    +0.000 C 
BRANCH  17  23
ATOM     18  C   UNL     1      -4.887  12.572  21.898  0.00  0.00    +0.000 A 
ATOM     19  C   UNL     1      -5.598  12.424  20.702  0.00  0.00    +0.000 A 
ATOM     20  C   UNL     1      -7.083  12.379  20.503  0.00  0.00    +0.000 C 
ATOM     21  C   UNL     1      -4.838  12.291  19.543  0.00  0.00    +0.000 A 
ATOM     22  N   UNL     1      -3.498  12.374  19.477  0.00  0.00    +0.000 NA
ATOM     23  C   UNL     1      -2.814  12.570  20.628  0.00  0.00    +0.000 A 
ATOM     24  C   UNL     1      -3.468  12.650  21.868  0.00  0.00    +0.000 A 
ATOM     25  C   UNL     1      -2.704  12.798  23.162  0.00  0.00    +0.000 C 
BRANCH  18  27
ATOM     26  C   UNL     1      -6.036  13.947  23.522  0.00  0.00    +0.000 C 
ATOM     27  O   UNL     1      -5.413  12.727  23.159  0.00  0.00    +0.000 OA
ENDBRANCH  18  27
ENDBRANCH  17  23
ENDBRANCH   1  17
TORSDOF 4
ENDMDL
