MODEL 1
REMARK VINA RESULT:      -8.3      0.000      0.000
REMARK  Name = 
REMARK  5 active torsions:
REMARK  status: ('A' for Active; 'I' for Inactive)
REMARK    1  A    between atoms: C_2  and  C_11
REMARK    2  A    between atoms: N_3  and  C_4
REMARK    3  A    between atoms: C_4  and  C_5
REMARK    4  A    between atoms: N_13  and  C_14
REMARK    5  A    between atoms: C_14  and  C_15
REMARK                            x       y       z     vdW  Elec       q    Type
REMARK                         _______ _______ _______ _____ _____    ______ ____
ROOT
ATOM      1  C   UNL     1       6.934   6.076  16.962  0.00  0.00    +0.000 C 
ATOM      2  C   UNL     1       6.688   4.623  17.418  0.00  0.00    +0.000 C 
ATOM      3  N   UNL     1       5.800   3.864  16.503  0.00  0.00    +0.000 NA
ATOM      4  C   UNL     1       6.445   3.893  15.166  0.00  0.00    +0.000 C 
ATOM      5  C   UNL     1       6.801   5.315  14.657  0.00  0.00    +0.000 C 
ATOM      6  N   UNL     1       7.576   6.136  15.612  0.00  0.00    +0.000 NA
ATOM      7  H   UNL     1       7.549   7.106  15.295  0.00  0.00    +0.000 HD
ENDROOT
BRANCH   1   9
ATOM      8  O   UNL     1       8.100   6.216  19.076  0.00  0.00    +0.000 OA
ATOM      9  C   UNL     1       7.754   6.790  18.039  0.00  0.00    +0.000 C 
ATOM     10  N   UNL     1       8.033   8.109  17.804  0.00  0.00    +0.000 N 
ATOM     11  H   UNL     1       7.960   8.431  16.841  0.00  0.00    +0.000 HD
BRANCH  10  12
ATOM     12  C   UNL     1       8.746   8.893  18.788  0.00  0.00    +0.000 C 
BRANCH  12  13
ATOM     13  C   UNL     1       8.899  10.345  18.407  0.00  0.00    +0.000 A 
ATOM     14  C   UNL     1       9.987  11.088  18.865  0.00  0.00    +0.000 A 
ATOM     15  C   UNL     1      10.075  12.435  18.517  0.00  0.00    +0.000 A 
ATOM     16  C   UNL     1       9.075  13.002  17.736  0.00  0.00    +0.000 A 
ATOM     17  C   UNL     1       8.029  12.195  17.326  0.00  0.00    +0.000 A 
ATOM     18  N   UNL     1       7.922  10.884  17.633  0.00  0.00    +0.000 NA
ENDBRANCH  12  13
ENDBRANCH  10  12
ENDBRANCH   1   9
BRANCH   3  19
ATOM     19  C   UNL     1       4.432   4.431  16.426  0.00  0.00    +0.000 C 
BRANCH  19  20
ATOM     20  C   UNL     1       3.588   4.163  17.625  0.00  0.00    +0.000 A 
ATOM     21  C   UNL     1       2.264   4.412  17.921  0.00  0.00    +0.000 A 
ATOM     22  C   UNL     1       2.027   3.886  19.217  0.00  0.00    +0.000 A 
ATOM     23  C   UNL     1       0.917   3.781  20.068  0.00  0.00    +0.000 A 
ATOM     24  C   UNL     1       1.068   3.121  21.296  0.00  0.00    +0.000 A 
ATOM     25  C   UNL     1       2.301   2.583  21.678  0.00  0.00    +0.000 A 
ATOM     26  C   UNL     1       3.430   2.705  20.856  0.00  0.00    +0.000 A 
ATOM     27  C   UNL     1       3.245   3.359  19.641  0.00  0.00    +0.000 A 
ATOM     28  O   UNL     1       4.200   3.559  18.688  0.00  0.00    +0.000 OA
ENDBRANCH  19  20
ENDBRANCH   3  19
TORSDOF 5
ENDMDL
MODEL 2
REMARK VINA RESULT:      -8.3      4.334      7.096
REMARK  Name = 
REMARK  5 active torsions:
REMARK  status: ('A' for Active; 'I' for Inactive)
REMARK    1  A    between atoms: C_2  and  C_11
REMARK    2  A    between atoms: N_3  and  C_4
REMARK    3  A    between atoms: C_4  and  C_5
REMARK    4  A    between atoms: N_13  and  C_14
REMARK    5  A    between atoms: C_14  and  C_15
REMARK                            x       y       z     vdW  Elec       q    Type
REMARK                         _______ _______ _______ _____ _____    ______ ____
ROOT
ATOM      1  C   UNL     1       2.260   5.093  19.610  0.00  0.00    +0.000 C 
ATOM      2  C   UNL     1       1.890   4.363  18.302  0.00  0.00    +0.000 C 
ATOM      3  N   UNL     1       2.035   2.889  18.393  0.00  0.00    +0.000 NA
ATOM      4  C   UNL     1       1.159   2.446  19.507  0.00  0.00    +0.000 C 
ATOM      5  C   UNL     1       1.407   3.183  20.850  0.00  0.00    +0.000 C 
ATOM      6  N   UNL     1       1.398   4.658  20.754  0.00  0.00    +0.000 NA
ATOM      7  H   UNL     1       1.801   5.038  21.612  0.00  0.00    +0.000 HD
ENDROOT
BRANCH   1   9
ATOM      8  O   UNL     1       2.543   7.094  18.282  0.00  0.00    +0.000 OA
ATOM      9  C   UNL     1       2.194   6.601  19.359  0.00  0.00    +0.000 C 
ATOM     10  N   UNL     1       1.775   7.367  20.413  0.00  0.00    +0.000 N 
ATOM     11  H   UNL     1       1.257   6.892  21.150  0.00  0.00    +0.000 HD
BRANCH  10  12
ATOM     12  C   UNL     1       1.738   8.808  20.302  0.00  0.00    +0.000 C 
BRANCH  12  13
ATOM     13  C   UNL     1       0.755   9.461  21.243  0.00  0.00    +0.000 A 
ATOM     14  C   UNL     1      -0.039  10.524  20.813  0.00  0.00    +0.000 A 
ATOM     15  C   UNL     1      -0.911  11.121  21.721  0.00  0.00    +0.000 A 
ATOM     16  C   UNL     1      -0.958  10.651  23.028  0.00  0.00    +0.000 A 
ATOM     17  C   UNL     1      -0.135   9.594  23.373  0.00  0.00    +0.000 A 
ATOM     18  N   UNL     1       0.710   8.984  22.513  0.00  0.00    +0.000 NA
ENDBRANCH  12  13
ENDBRANCH  10  12
ENDBRANCH   1   9
BRANCH   3  19
ATOM     19  C   UNL     1       3.433   2.461  18.637  0.00  0.00    +0.000 C 
BRANCH  19  20
ATOM     20  C   UNL     1       4.460   3.466  18.242  0.00  0.00    +0.000 A 
ATOM     21  C   UNL     1       4.757   4.092  17.049  0.00  0.00    +0.000 A 
ATOM     22  C   UNL     1       5.827   4.986  17.310  0.00  0.00    +0.000 A 
ATOM     23  C   UNL     1       6.558   5.920  16.559  0.00  0.00    +0.000 A 
ATOM     24  C   UNL     1       7.541   6.683  17.206  0.00  0.00    +0.000 A 
ATOM     25  C   UNL     1       7.802   6.517  18.569  0.00  0.00    +0.000 A 
ATOM     26  C   UNL     1       7.104   5.569  19.330  0.00  0.00    +0.000 A 
ATOM     27  C   UNL     1       6.130   4.832  18.661  0.00  0.00    +0.000 A 
ATOM     28  O   UNL     1       5.322   3.884  19.218  0.00  0.00    +0.000 OA
ENDBRANCH  19  20
ENDBRANCH   3  19
TORSDOF 5
ENDMDL
MODEL 3
REMARK VINA RESULT:      -8.2      4.412      6.984
REMARK  Name = 
REMARK  5 active torsions:
REMARK  status: ('A' for Active; 'I' for Inactive)
REMARK    1  A    between atoms: C_2  and  C_11
REMARK    2  A    between atoms: N_3  and  C_4
REMARK    3  A    between atoms: C_4  and  C_5
REMARK    4  A    between atoms: N_13  and  C_14
REMARK    5  A    between atoms: C_14  and  C_15
REMARK                            x       y       z     vdW  Elec       q    Type
REMARK                         _______ _______ _______ _____ _____    ______ ____
ROOT
ATOM      1  C   UNL     1       3.792   5.194  18.123  0.00  0.00    +0.000 C 
ATOM      2  C   UNL     1       3.938   5.639  19.593  0.00  0.00    +0.000 C 
ATOM      3  N   UNL     1       2.671   6.140  20.182  0.00  0.00    +0.000 NA
ATOM      4  C   UNL     1       1.684   5.037  20.062  0.00  0.00    +0.000 C 
ATOM      5  C   UNL     1       1.526   4.471  18.626  0.00  0.00    +0.000 C 
ATOM      6  N   UNL     1       2.795   4.088  17.972  0.00  0.00    +0.000 NA
ATOM      7  H   UNL     1       2.615   3.963  16.974  0.00  0.00    +0.000 HD
ENDROOT
BRANCH   1   9
ATOM      8  O   UNL     1       5.850   3.924  18.110  0.00  0.00    +0.000 OA
ATOM      9  C   UNL     1       5.176   4.819  17.589  0.00  0.00    +0.000 C 
ATOM     10  N   UNL     1       5.637   5.566  16.540  0.00  0.00    +0.000 N 
ATOM     11  H   UNL     1       4.944   6.083  16.003  0.00  0.00    +0.000 HD
BRANCH  10  12
ATOM     12  C   UNL     1       6.960   5.337  16.003  0.00  0.00    +0.000 C 
BRANCH  12  13
ATOM     13  C   UNL     1       6.959   4.912  14.555  0.00  0.00    +0.000 A 
ATOM     14  C   UNL     1       6.108   3.899  14.114  0.00  0.00    +0.000 A 
ATOM     15  C   UNL     1       6.160   3.514  12.775  0.00  0.00    +0.000 A 
ATOM     16  C   UNL     1       7.062   4.138  11.923  0.00  0.00    +0.000 A 
ATOM     17  C   UNL     1       7.872   5.132  12.442  0.00  0.00    +0.000 A 
ATOM     18  N   UNL     1       7.836   5.539  13.730  0.00  0.00    +0.000 NA
ENDBRANCH  12  13
ENDBRANCH  10  12
ENDBRANCH   1   9
BRANCH   3  19
ATOM     19  C   UNL     1       2.164   7.358  19.507  0.00  0.00    +0.000 C 
BRANCH  19  20
ATOM     20  C   UNL     1       1.337   8.242  20.379  0.00  0.00    +0.000 A 
ATOM     21  C   UNL     1       0.935   8.159  21.696  0.00  0.00    +0.000 A 
ATOM     22  C   UNL     1       0.191   9.334  21.972  0.00  0.00    +0.000 A 
ATOM     23  C   UNL     1      -0.452   9.871  23.099  0.00  0.00    +0.000 A 
ATOM     24  C   UNL     1      -1.059  11.130  22.992  0.00  0.00    +0.000 A 
ATOM     25  C   UNL     1      -1.038  11.841  21.788  0.00  0.00    +0.000 A 
ATOM     26  C   UNL     1      -0.429  11.309  20.644  0.00  0.00    +0.000 A 
ATOM     27  C   UNL     1       0.170  10.060  20.784  0.00  0.00    +0.000 A 
ATOM     28  O   UNL     1       0.839   9.380  19.808  0.00  0.00    +0.000 OA
ENDBRANCH  19  20
ENDBRANCH   3  19
TORSDOF 5
ENDMDL
MODEL 4
REMARK VINA RESULT:      -8.2      4.398      7.103
REMARK  Name = 
REMARK  5 active torsions:
REMARK  status: ('A' for Active; 'I' for Inactive)
REMARK    1  A    between atoms: C_2  and  C_11
REMARK    2  A    between atoms: N_3  and  C_4
REMARK    3  A    between atoms: C_4  and  C_5
REMARK    4  A    between atoms: N_13  and  C_14
REMARK    5  A    between atoms: C_14  and  C_15
REMARK                            x       y       z     vdW  Elec       q    Type
REMARK                         _______ _______ _______ _____ _____    ______ ____
ROOT
ATOM      1  C   UNL     1       3.066   4.485  19.851  0.00  0.00    +0.000 C 
ATOM      2  C   UNL     1       2.817   4.258  18.346  0.00  0.00    +0.000 C 
ATOM      3  N   UNL     1       3.894   3.479  17.685  0.00  0.00    +0.000 NA
ATOM      4  C   UNL     1       3.980   2.183  18.404  0.00  0.00    +0.000 C 
ATOM      5  C   UNL     1       4.155   2.313  19.940  0.00  0.00    +0.000 C 
ATOM      6  N   UNL     1       3.168   3.193  20.600  0.00  0.00    +0.000 NA
ATOM      7  H   UNL     1       3.505   3.402  21.542  0.00  0.00    +0.000 HD
ENDROOT
BRANCH   1   9
ATOM      8  O   UNL     1       0.815   4.986  20.577  0.00  0.00    +0.000 OA
ATOM      9  C   UNL     1       1.965   5.398  20.393  0.00  0.00    +0.000 C 
ATOM     10  N   UNL     1       2.319   6.701  20.612  0.00  0.00    +0.000 N 
ATOM     11  H   UNL     1       3.313   6.899  20.701  0.00  0.00    +0.000 HD
BRANCH  10  12
ATOM     12  C   UNL     1       1.336   7.662  21.062  0.00  0.00    +0.000 C 
BRANCH  12  13
ATOM     13  C   UNL     1       1.242   8.886  20.185  0.00  0.00    +0.000 A 
ATOM     14  C   UNL     1       1.682   8.847  18.862  0.00  0.00    +0.000 A 
ATOM     15  C   UNL     1       1.608  10.008  18.095  0.00  0.00    +0.000 A 
ATOM     16  C   UNL     1       1.112  11.172  18.669  0.00  0.00    +0.000 A 
ATOM     17  C   UNL     1       0.699  11.125  19.989  0.00  0.00    +0.000 A 
ATOM     18  N   UNL     1       0.743  10.013  20.754  0.00  0.00    +0.000 NA
ENDBRANCH  12  13
ENDBRANCH  10  12
ENDBRANCH   1   9
BRANCH   3  19
ATOM     19  C   UNL     1       5.205   4.170  17.711  0.00  0.00    +0.000 C 
BRANCH  19  20
ATOM     20  C   UNL     1       5.809   4.391  16.366  0.00  0.00    +0.000 A 
ATOM     21  C   UNL     1       6.843   5.187  15.916  0.00  0.00    +0.000 A 
ATOM     22  C   UNL     1       6.978   4.935  14.526  0.00  0.00    +0.000 A 
ATOM     23  C   UNL     1       7.834   5.378  13.507  0.00  0.00    +0.000 A 
ATOM     24  C   UNL     1       7.686   4.841  12.221  0.00  0.00    +0.000 A 
ATOM     25  C   UNL     1       6.700   3.889  11.947  0.00  0.00    +0.000 A 
ATOM     26  C   UNL     1       5.814   3.456  12.943  0.00  0.00    +0.000 A 
ATOM     27  C   UNL     1       5.992   4.003  14.211  0.00  0.00    +0.000 A 
ATOM     28  O   UNL     1       5.261   3.699  15.322  0.00  0.00    +0.000 OA
ENDBRANCH  19  20
ENDBRANCH   3  19
TORSDOF 5
ENDMDL
MODEL 5
REMARK VINA RESULT:      -8.1      3.853      6.472
REMARK  Name = 
REMARK  5 active torsions:
REMARK  status: ('A' for Active; 'I' for Inactive)
REMARK    1  A    between atoms: C_2  and  C_11
REMARK    2  A    between atoms: N_3  and  C_4
REMARK    3  A    between atoms: C_4  and  C_5
REMARK    4  A    between atoms: N_13  and  C_14
REMARK    5  A    between atoms: C_14  and  C_15
REMARK                            x       y       z     vdW  Elec       q    Type
REMARK                         _______ _______ _______ _____ _____    ______ ____
ROOT
ATOM      1  C   UNL     1       4.469   3.979  18.612  0.00  0.00    +0.000 C 
ATOM      2  C   UNL     1       4.327   4.798  19.911  0.00  0.00    +0.000 C 
ATOM      3  N   UNL     1       3.038   4.570  20.610  0.00  0.00    +0.000 NA
ATOM      4  C   UNL     1       2.963   3.115  20.895  0.00  0.00    +0.000 C 
ATOM      5  C   UNL     1       3.171   2.207  19.655  0.00  0.00    +0.000 C 
ATOM      6  N   UNL     1       4.387   2.507  18.869  0.00  0.00    +0.000 NA
ATOM      7  H   UNL     1       4.310   2.035  17.967  0.00  0.00    +0.000 HD
ENDROOT
BRANCH   1   9
ATOM      8  O   UNL     1       6.868   4.252  18.473  0.00  0.00    +0.000 OA
ATOM      9  C   UNL     1       5.771   4.387  17.921  0.00  0.00    +0.000 C 
ATOM     10  N   UNL     1       5.641   4.954  16.682  0.00  0.00    +0.000 N 
ATOM     11  H   UNL     1       4.767   4.787  16.189  0.00  0.00    +0.000 HD
BRANCH  10  12
ATOM     12  C   UNL     1       6.805   5.434  15.970  0.00  0.00    +0.000 C 
BRANCH  12  13
ATOM     13  C   UNL     1       6.876   4.960  14.540  0.00  0.00    +0.000 A 
ATOM     14  C   UNL     1       6.022   3.957  14.081  0.00  0.00    +0.000 A 
ATOM     15  C   UNL     1       6.141   3.524  12.762  0.00  0.00    +0.000 A 
ATOM     16  C   UNL     1       7.111   4.093  11.945  0.00  0.00    +0.000 A 
ATOM     17  C   UNL     1       7.919   5.081  12.479  0.00  0.00    +0.000 A 
ATOM     18  N   UNL     1       7.819   5.533  13.748  0.00  0.00    +0.000 NA
ENDBRANCH  12  13
ENDBRANCH  10  12
ENDBRANCH   1   9
BRANCH   3  19
ATOM     19  C   UNL     1       1.865   4.998  19.810  0.00  0.00    +0.000 C 
BRANCH  19  20
ATOM     20  C   UNL     1       1.841   6.453  19.486  0.00  0.00    +0.000 A 
ATOM     21  C   UNL     1       2.238   7.180  18.383  0.00  0.00    +0.000 A 
ATOM     22  C   UNL     1       1.923   8.537  18.650  0.00  0.00    +0.000 A 
ATOM     23  C   UNL     1       2.032   9.748  17.950  0.00  0.00    +0.000 A 
ATOM     24  C   UNL     1       1.543  10.918  18.547  0.00  0.00    +0.000 A 
ATOM     25  C   UNL     1       0.965  10.891  19.820  0.00  0.00    +0.000 A 
ATOM     26  C   UNL     1       0.875   9.698  20.549  0.00  0.00    +0.000 A 
ATOM     27  C   UNL     1       1.363   8.552  19.926  0.00  0.00    +0.000 A 
ATOM     28  O   UNL     1       1.345   7.291  20.445  0.00  0.00    +0.000 OA
ENDBRANCH  19  20
ENDBRANCH   3  19
TORSDOF 5
ENDMDL
MODEL 6
REMARK VINA RESULT:      -8.1      0.950      1.231
REMARK  Name = 
REMARK  5 active torsions:
REMARK  status: ('A' for Active; 'I' for Inactive)
REMARK    1  A    between atoms: C_2  and  C_11
REMARK    2  A    between atoms: N_3  and  C_4
REMARK    3  A    between atoms: C_4  and  C_5
REMARK    4  A    between atoms: N_13  and  C_14
REMARK    5  A    between atoms: C_14  and  C_15
REMARK                            x       y       z     vdW  Elec       q    Type
REMARK                         _______ _______ _______ _____ _____    ______ ____
ROOT
ATOM      1  C   UNL     1       6.970   6.082  16.907  0.00  0.00    +0.000 C 
ATOM      2  C   UNL     1       6.740   4.610  17.304  0.00  0.00    +0.000 C 
ATOM      3  N   UNL     1       5.898   3.867  16.334  0.00  0.00    +0.000 NA
ATOM      4  C   UNL     1       6.586   3.955  15.021  0.00  0.00    +0.000 C 
ATOM      5  C   UNL     1       6.929   5.401  14.573  0.00  0.00    +0.000 C 
ATOM      6  N   UNL     1       7.655   6.202  15.582  0.00  0.00    +0.000 NA
ATOM      7  H   UNL     1       7.619   7.183  15.297  0.00  0.00    +0.000 HD
ENDROOT
BRANCH   1   9
ATOM      8  O   UNL     1       8.038   6.179  19.075  0.00  0.00    +0.000 OA
ATOM      9  C   UNL     1       7.739   6.775  18.034  0.00  0.00    +0.000 C 
ATOM     10  N   UNL     1       8.028   8.098  17.840  0.00  0.00    +0.000 N 
ATOM     11  H   UNL     1       7.999   8.439  16.881  0.00  0.00    +0.000 HD
BRANCH  10  12
ATOM     12  C   UNL     1       8.694   8.862  18.871  0.00  0.00    +0.000 C 
BRANCH  12  13
ATOM     13  C   UNL     1       8.951  10.298  18.488  0.00  0.00    +0.000 A 
ATOM     14  C   UNL     1       8.030  11.001  17.711  0.00  0.00    +0.000 A 
ATOM     15  C   UNL     1       8.319  12.316  17.351  0.00  0.00    +0.000 A 
ATOM     16  C   UNL     1       9.517  12.886  17.766  0.00  0.00    +0.000 A 
ATOM     17  C   UNL     1      10.375  12.119  18.533  0.00  0.00    +0.000 A 
ATOM     18  N   UNL     1      10.118  10.848  18.911  0.00  0.00    +0.000 NA
ENDBRANCH  12  13
ENDBRANCH  10  12
ENDBRANCH   1   9
BRANCH   3  19
ATOM     19  C   UNL     1       4.522   4.409  16.230  0.00  0.00    +0.000 C 
BRANCH  19  20
ATOM     20  C   UNL     1       3.618   4.005  17.344  0.00  0.00    +0.000 A 
ATOM     21  C   UNL     1       2.727   2.963  17.505  0.00  0.00    +0.000 A 
ATOM     22  C   UNL     1       2.185   3.084  18.810  0.00  0.00    +0.000 A 
ATOM     23  C   UNL     1       1.277   2.352  19.590  0.00  0.00    +0.000 A 
ATOM     24  C   UNL     1       1.026   2.771  20.904  0.00  0.00    +0.000 A 
ATOM     25  C   UNL     1       1.655   3.903  21.432  0.00  0.00    +0.000 A 
ATOM     26  C   UNL     1       2.541   4.665  20.660  0.00  0.00    +0.000 A 
ATOM     27  C   UNL     1       2.775   4.219  19.362  0.00  0.00    +0.000 A 
ATOM     28  O   UNL     1       3.619   4.796  18.459  0.00  0.00    +0.000 OA
ENDBRANCH  19  20
ENDBRANCH   3  19
TORSDOF 5
ENDMDL
MODEL 7
REMARK VINA RESULT:      -8.0      4.343      6.890
REMARK  Name = 
REMARK  5 active torsions:
REMARK  status: ('A' for Active; 'I' for Inactive)
REMARK    1  A    between atoms: C_2  and  C_11
REMARK    2  A    between atoms: N_3  and  C_4
REMARK    3  A    between atoms: C_4  and  C_5
REMARK    4  A    between atoms: N_13  and  C_14
REMARK    5  A    between atoms: C_14  and  C_15
REMARK                            x       y       z     vdW  Elec       q    Type
REMARK                         _______ _______ _______ _____ _____    ______ ____
ROOT
ATOM      1  C   UNL     1       3.662   5.005  18.104  0.00  0.00    +0.000 C 
ATOM      2  C   UNL     1       3.898   5.711  19.454  0.00  0.00    +0.000 C 
ATOM      3  N   UNL     1       2.664   6.294  20.034  0.00  0.00    +0.000 NA
ATOM      4  C   UNL     1       1.699   5.176  20.188  0.00  0.00    +0.000 C 
ATOM      5  C   UNL     1       1.455   4.357  18.892  0.00  0.00    +0.000 C 
ATOM      6  N   UNL     1       2.685   3.878  18.227  0.00  0.00    +0.000 NA
ATOM      7  H   UNL     1       2.439   3.571  17.284  0.00  0.00    +0.000 HD
ENDROOT
BRANCH   1   9
ATOM      8  O   UNL     1       5.524   3.480  17.873  0.00  0.00    +0.000 OA
ATOM      9  C   UNL     1       5.015   4.557  17.546  0.00  0.00    +0.000 C 
ATOM     10  N   UNL     1       5.642   5.439  16.711  0.00  0.00    +0.000 N 
ATOM     11  H   UNL     1       5.063   6.158  16.281  0.00  0.00    +0.000 HD
BRANCH  10  12
ATOM     12  C   UNL     1       6.955   5.141  16.182  0.00  0.00    +0.000 C 
BRANCH  12  13
ATOM     13  C   UNL     1       6.954   4.829  14.705  0.00  0.00    +0.000 A 
ATOM     14  C   UNL     1       6.092   3.864  14.185  0.00  0.00    +0.000 A 
ATOM     15  C   UNL     1       6.144   3.582  12.821  0.00  0.00    +0.000 A 
ATOM     16  C   UNL     1       7.057   4.259  12.022  0.00  0.00    +0.000 A 
ATOM     17  C   UNL     1       7.878   5.199  12.618  0.00  0.00    +0.000 A 
ATOM     18  N   UNL     1       7.841   5.507  13.933  0.00  0.00    +0.000 NA
ENDBRANCH  12  13
ENDBRANCH  10  12
ENDBRANCH   1   9
BRANCH   3  19
ATOM     19  C   UNL     1       2.079   7.364  19.190  0.00  0.00    +0.000 C 
BRANCH  19  20
ATOM     20  C   UNL     1       1.383   8.437  19.955  0.00  0.00    +0.000 A 
ATOM     21  C   UNL     1       1.068   9.749  19.666  0.00  0.00    +0.000 A 
ATOM     22  C   UNL     1       0.359  10.257  20.785  0.00  0.00    +0.000 A 
ATOM     23  C   UNL     1      -0.255  11.476  21.113  0.00  0.00    +0.000 A 
ATOM     24  C   UNL     1      -0.930  11.582  22.337  0.00  0.00    +0.000 A 
ATOM     25  C   UNL     1      -0.986  10.504  23.226  0.00  0.00    +0.000 A 
ATOM     26  C   UNL     1      -0.353   9.290  22.931  0.00  0.00    +0.000 A 
ATOM     27  C   UNL     1       0.302   9.213  21.705  0.00  0.00    +0.000 A 
ATOM     28  O   UNL     1       0.954   8.119  21.214  0.00  0.00    +0.000 OA
ENDBRANCH  19  20
ENDBRANCH   3  19
TORSDOF 5
ENDMDL
MODEL 8
REMARK VINA RESULT:      -8.0      4.160      6.840
REMARK  Name = 
REMARK  5 active torsions:
REMARK  status: ('A' for Active; 'I' for Inactive)
REMARK    1  A    between atoms: C_2  and  C_11
REMARK    2  A    between atoms: N_3  and  C_4
REMARK    3  A    between atoms: C_4  and  C_5
REMARK    4  A    between atoms: N_13  and  C_14
REMARK    5  A    between atoms: C_14  and  C_15
REMARK                            x       y       z     vdW  Elec       q    Type
REMARK                         _______ _______ _______ _____ _____    ______ ____
ROOT
ATOM      1  C   UNL     1       2.204   4.958  19.615  0.00  0.00    +0.000 C 
ATOM      2  C   UNL     1       1.705   4.666  18.185  0.00  0.00    +0.000 C 
ATOM      3  N   UNL     1       1.650   3.218  17.869  0.00  0.00    +0.000 NA
ATOM      4  C   UNL     1       0.750   2.599  18.875  0.00  0.00    +0.000 C 
ATOM      5  C   UNL     1       1.130   2.903  20.348  0.00  0.00    +0.000 C 
ATOM      6  N   UNL     1       1.320   4.338  20.651  0.00  0.00    +0.000 NA
ATOM      7  H   UNL     1       1.793   4.414  21.554  0.00  0.00    +0.000 HD
ENDROOT
BRANCH   1   9
ATOM      8  O   UNL     1       3.138   7.130  19.109  0.00  0.00    +0.000 OA
ATOM      9  C   UNL     1       2.338   6.473  19.783  0.00  0.00    +0.000 C 
ATOM     10  N   UNL     1       1.559   7.041  20.753  0.00  0.00    +0.000 N 
ATOM     11  H   UNL     1       0.752   6.506  21.068  0.00  0.00    +0.000 HD
BRANCH  10  12
ATOM     12  C   UNL     1       1.657   8.456  21.037  0.00  0.00    +0.000 C 
BRANCH  12  13
ATOM     13  C   UNL     1       0.678   9.298  20.256  0.00  0.00    +0.000 A 
ATOM     14  C   UNL     1       0.774   9.394  18.868  0.00  0.00    +0.000 A 
ATOM     15  C   UNL     1      -0.129  10.208  18.187  0.00  0.00    +0.000 A 
ATOM     16  C   UNL     1      -1.090  10.907  18.907  0.00  0.00    +0.000 A 
ATOM     17  C   UNL     1      -1.115  10.757  20.282  0.00  0.00    +0.000 A 
ATOM     18  N   UNL     1      -0.264   9.966  20.970  0.00  0.00    +0.000 NA
ENDBRANCH  12  13
ENDBRANCH  10  12
ENDBRANCH   1   9
BRANCH   3  19
ATOM     19  C   UNL     1       2.982   2.568  17.903  0.00  0.00    +0.000 C 
BRANCH  19  20
ATOM     20  C   UNL     1       4.125   3.501  17.690  0.00  0.00    +0.000 A 
ATOM     21  C   UNL     1       4.618   4.150  16.576  0.00  0.00    +0.000 A 
ATOM     22  C   UNL     1       5.711   4.942  17.013  0.00  0.00    +0.000 A 
ATOM     23  C   UNL     1       6.601   5.842  16.407  0.00  0.00    +0.000 A 
ATOM     24  C   UNL     1       7.548   6.494  17.208  0.00  0.00    +0.000 A 
ATOM     25  C   UNL     1       7.620   6.252  18.583  0.00  0.00    +0.000 A 
ATOM     26  C   UNL     1       6.761   5.333  19.202  0.00  0.00    +0.000 A 
ATOM     27  C   UNL     1       5.827   4.707  18.381  0.00  0.00    +0.000 A 
ATOM     28  O   UNL     1       4.885   3.807  18.784  0.00  0.00    +0.000 OA
ENDBRANCH  19  20
ENDBRANCH   3  19
TORSDOF 5
ENDMDL
MODEL 9
REMARK VINA RESULT:      -8.0      4.540      7.600
REMARK  Name = 
REMARK  5 active torsions:
REMARK  status: ('A' for Active; 'I' for Inactive)
REMARK    1  A    between atoms: C_2  and  C_11
REMARK    2  A    between atoms: N_3  and  C_4
REMARK    3  A    between atoms: C_4  and  C_5
REMARK    4  A    between atoms: N_13  and  C_14
REMARK    5  A    between atoms: C_14  and  C_15
REMARK                            x       y       z     vdW  Elec       q    Type
REMARK                         _______ _______ _______ _____ _____    ______ ____
ROOT
ATOM      1  C   UNL     1       3.212   6.437  18.892  0.00  0.00    +0.000 C 
ATOM      2  C   UNL     1       2.968   5.498  17.692  0.00  0.00    +0.000 C 
ATOM      3  N   UNL     1       3.720   4.223  17.784  0.00  0.00    +0.000 NA
ATOM      4  C   UNL     1       3.301   3.574  19.052  0.00  0.00    +0.000 C 
ATOM      5  C   UNL     1       3.439   4.474  20.309  0.00  0.00    +0.000 C 
ATOM      6  N   UNL     1       2.806   5.805  20.186  0.00  0.00    +0.000 NA
ATOM      7  H   UNL     1       3.152   6.394  20.945  0.00  0.00    +0.000 HD
ENDROOT
BRANCH   1   9
ATOM      8  O   UNL     1       2.648   8.385  17.574  0.00  0.00    +0.000 OA
ATOM      9  C   UNL     1       2.490   7.760  18.628  0.00  0.00    +0.000 C 
ATOM     10  N   UNL     1       1.705   8.228  19.645  0.00  0.00    +0.000 N 
ATOM     11  H   UNL     1       1.411   7.553  20.349  0.00  0.00    +0.000 HD
BRANCH  10  12
ATOM     12  C   UNL     1       1.030   9.502  19.524  0.00  0.00    +0.000 C 
BRANCH  12  13
ATOM     13  C   UNL     1       0.290   9.915  20.772  0.00  0.00    +0.000 A 
ATOM     14  C   UNL     1      -0.441  11.102  20.804  0.00  0.00    +0.000 A 
ATOM     15  C   UNL     1      -1.085  11.464  21.986  0.00  0.00    +0.000 A 
ATOM     16  C   UNL     1      -0.972  10.641  23.100  0.00  0.00    +0.000 A 
ATOM     17  C   UNL     1      -0.226   9.482  22.984  0.00  0.00    +0.000 A 
ATOM     18  N   UNL     1       0.397   9.095  21.850  0.00  0.00    +0.000 NA
ENDBRANCH  12  13
ENDBRANCH  10  12
ENDBRANCH   1   9
BRANCH   3  19
ATOM     19  C   UNL     1       5.190   4.417  17.769  0.00  0.00    +0.000 C 
BRANCH  19  20
ATOM     20  C   UNL     1       5.776   4.553  16.404  0.00  0.00    +0.000 A 
ATOM     21  C   UNL     1       6.804   5.318  15.891  0.00  0.00    +0.000 A 
ATOM     22  C   UNL     1       6.921   4.980  14.519  0.00  0.00    +0.000 A 
ATOM     23  C   UNL     1       7.764   5.357  13.463  0.00  0.00    +0.000 A 
ATOM     24  C   UNL     1       7.599   4.740  12.215  0.00  0.00    +0.000 A 
ATOM     25  C   UNL     1       6.608   3.774  12.014  0.00  0.00    +0.000 A 
ATOM     26  C   UNL     1       5.736   3.406  13.047  0.00  0.00    +0.000 A 
ATOM     27  C   UNL     1       5.930   4.031  14.275  0.00  0.00    +0.000 A 
ATOM     28  O   UNL     1       5.214   3.798  15.413  0.00  0.00    +0.000 OA
ENDBRANCH  19  20
ENDBRANCH   3  19
TORSDOF 5
ENDMDL
