MODEL 1
REMARK VINA RESULT:      -8.5      0.000      0.000
REMARK  Name = 
REMARK  6 active torsions:
REMARK  status: ('A' for Active; 'I' for Inactive)
REMARK    1  A    between atoms: N_10  and  C_11
REMARK    2  A    between atoms: C_11  and  C_12
REMARK    3  A    between atoms: C_12  and  N_13
REMARK    4  A    between atoms: N_13  and  C_14
REMARK    5  A    between atoms: C_14  and  N_16
REMARK    6  A    between atoms: N_16  and  C_17
REMARK                            x       y       z     vdW  Elec       q    Type
REMARK                         _______ _______ _______ _____ _____    ______ ____
ROOT
ATOM      1  N   UNL     1       2.172   4.885  18.147  0.00  0.00    +0.000 N 
ATOM      2  H   UNL     1       1.752   5.573  17.529  0.00  0.00    +0.000 HD
ENDROOT
BRANCH   1   3
ATOM      3  C   UNL     1       2.203   5.193  19.489  0.00  0.00    +0.000 C 
ATOM      4  S   UNL     1       1.632   4.194  20.695  0.00  0.00    +0.000 S 
BRANCH   3   5
ATOM      5  N   UNL     1       2.737   6.428  19.805  0.00  0.00    +0.000 N 
ATOM      6  H   UNL     1       3.736   6.434  19.984  0.00  0.00    +0.000 HD
BRANCH   5   7
ATOM      7  C   UNL     1       2.178   7.686  19.442  0.00  0.00    +0.000 A 
ATOM      8  C   UNL     1       2.566   8.226  18.193  0.00  0.00    +0.000 A 
ATOM      9  C   UNL     1       1.919   9.321  17.659  0.00  0.00    +0.000 A 
ATOM     10  C   UNL     1       1.111  10.065  18.492  0.00  0.00    +0.000 A 
ATOM     11  C   UNL     1       0.903   9.688  19.824  0.00  0.00    +0.000 A 
ATOM     12  C   UNL     1       0.282  10.596  20.678  0.00  0.00    +0.000 A 
ATOM     13  C   UNL     1       0.099  10.279  22.010  0.00  0.00    +0.000 A 
ATOM     14  C   UNL     1      -0.223   8.963  22.209  0.00  0.00    +0.000 A 
ATOM     15  C   UNL     1       0.582   8.036  21.527  0.00  0.00    +0.000 A 
ATOM     16  C   UNL     1       1.277   8.414  20.309  0.00  0.00    +0.000 A 
ENDBRANCH   5   7
ENDBRANCH   3   5
ENDBRANCH   1   3
BRANCH   1  17
ATOM     17  C   UNL     1       2.860   3.760  17.519  0.00  0.00    +0.000 C 
BRANCH  17  18
ATOM     18  C   UNL     1       4.352   3.658  17.830  0.00  0.00    +0.000 C 
BRANCH  18  28
ATOM     19  O   UNL     1       7.918   8.362  17.146  0.00  0.00    +0.000 OA
ATOM     20  C   UNL     1       7.560   7.359  17.746  0.00  0.00    +0.000 A 
ATOM     21  N   UNL     1       8.222   6.861  18.866  0.00  0.00    +0.000 N 
ATOM     22  C   UNL     1       7.870   5.711  19.516  0.00  0.00    +0.000 A 
ATOM     23  N   UNL     1       6.865   4.937  19.198  0.00  0.00    +0.000 NA
ATOM     24  C   UNL     1       6.182   5.409  18.125  0.00  0.00    +0.000 A 
ATOM     25  C   UNL     1       6.433   6.521  17.372  0.00  0.00    +0.000 A 
ATOM     26  N   UNL     1       5.515   6.661  16.356  0.00  0.00    +0.000 NA
ATOM     27  N   UNL     1       4.687   5.627  16.462  0.00  0.00    +0.000 NA
ATOM     28  N   UNL     1       5.073   4.861  17.488  0.00  0.00    +0.000 N 
ATOM     29  H   UNL     1       9.026   7.413  19.166  0.00  0.00    +0.000 HD
ENDBRANCH  18  28
ENDBRANCH  17  18
ENDBRANCH   1  17
TORSDOF 6
ENDMDL
MODEL 2
REMARK VINA RESULT:      -8.3      1.493      2.120
REMARK  Name = 
REMARK  6 active torsions:
REMARK  status: ('A' for Active; 'I' for Inactive)
REMARK    1  A    between atoms: N_10  and  C_11
REMARK    2  A    between atoms: C_11  and  C_12
REMARK    3  A    between atoms: C_12  and  N_13
REMARK    4  A    between atoms: N_13  and  C_14
REMARK    5  A    between atoms: C_14  and  N_16
REMARK    6  A    between atoms: N_16  and  C_17
REMARK                            x       y       z     vdW  Elec       q    Type
REMARK                         _______ _______ _______ _____ _____    ______ ____
ROOT
ATOM      1  N   UNL     1       1.360   4.306  19.108  0.00  0.00    +0.000 N 
ATOM      2  H   UNL     1       0.747   5.039  18.764  0.00  0.00    +0.000 HD
ENDROOT
BRANCH   1   3
ATOM      3  C   UNL     1       2.005   4.547  20.301  0.00  0.00    +0.000 C 
ATOM      4  S   UNL     1       1.953   3.528  21.620  0.00  0.00    +0.000 S 
BRANCH   3   5
ATOM      5  N   UNL     1       2.715   5.731  20.367  0.00  0.00    +0.000 N 
ATOM      6  H   UNL     1       3.698   5.634  20.605  0.00  0.00    +0.000 HD
BRANCH   5   7
ATOM      7  C   UNL     1       2.370   6.938  19.696  0.00  0.00    +0.000 A 
ATOM      8  C   UNL     1       2.942   7.151  18.420  0.00  0.00    +0.000 A 
ATOM      9  C   UNL     1       2.504   8.173  17.604  0.00  0.00    +0.000 A 
ATOM     10  C   UNL     1       1.734   9.167  18.170  0.00  0.00    +0.000 A 
ATOM     11  C   UNL     1       1.354   9.110  19.516  0.00  0.00    +0.000 A 
ATOM     12  C   UNL     1       0.788  10.245  20.091  0.00  0.00    +0.000 A 
ATOM     13  C   UNL     1       0.443  10.243  21.429  0.00  0.00    +0.000 A 
ATOM     14  C   UNL     1      -0.074   9.046  21.847  0.00  0.00    +0.000 A 
ATOM     15  C   UNL     1       0.654   7.908  21.465  0.00  0.00    +0.000 A 
ATOM     16  C   UNL     1       1.503   7.934  20.287  0.00  0.00    +0.000 A 
ENDBRANCH   5   7
ENDBRANCH   3   5
ENDBRANCH   1   3
BRANCH   1  17
ATOM     17  C   UNL     1       1.631   3.188  18.209  0.00  0.00    +0.000 C 
BRANCH  17  18
ATOM     18  C   UNL     1       2.704   3.451  17.155  0.00  0.00    +0.000 C 
BRANCH  18  28
ATOM     19  O   UNL     1       8.232   4.972  18.721  0.00  0.00    +0.000 OA
ATOM     20  C   UNL     1       7.317   4.915  17.910  0.00  0.00    +0.000 A 
ATOM     21  N   UNL     1       7.391   5.471  16.636  0.00  0.00    +0.000 N 
ATOM     22  C   UNL     1       6.360   5.466  15.737  0.00  0.00    +0.000 A 
ATOM     23  N   UNL     1       5.185   4.930  15.934  0.00  0.00    +0.000 NA
ATOM     24  C   UNL     1       5.089   4.356  17.159  0.00  0.00    +0.000 A 
ATOM     25  C   UNL     1       6.022   4.305  18.157  0.00  0.00    +0.000 A 
ATOM     26  N   UNL     1       5.544   3.636  19.261  0.00  0.00    +0.000 NA
ATOM     27  N   UNL     1       4.302   3.272  18.964  0.00  0.00    +0.000 NA
ATOM     28  N   UNL     1       4.001   3.704  17.735  0.00  0.00    +0.000 N 
ATOM     29  H   UNL     1       8.281   5.917  16.415  0.00  0.00    +0.000 HD
ENDBRANCH  18  28
ENDBRANCH  17  18
ENDBRANCH   1  17
TORSDOF 6
ENDMDL
MODEL 3
REMARK VINA RESULT:      -8.1      1.440      2.253
REMARK  Name = 
REMARK  6 active torsions:
REMARK  status: ('A' for Active; 'I' for Inactive)
REMARK    1  A    between atoms: N_10  and  C_11
REMARK    2  A    between atoms: C_11  and  C_12
REMARK    3  A    between atoms: C_12  and  N_13
REMARK    4  A    between atoms: N_13  and  C_14
REMARK    5  A    between atoms: C_14  and  N_16
REMARK    6  A    between atoms: N_16  and  C_17
REMARK                            x       y       z     vdW  Elec       q    Type
REMARK                         _______ _______ _______ _____ _____    ______ ____
ROOT
ATOM      1  N   UNL     1       3.407   3.372  20.621  0.00  0.00    +0.000 N 
ATOM      2  H   UNL     1       3.911   3.349  21.503  0.00  0.00    +0.000 HD
ENDROOT
BRANCH   1   3
ATOM      3  C   UNL     1       2.466   4.366  20.470  0.00  0.00    +0.000 C 
ATOM      4  S   UNL     1       0.852   4.091  20.157  0.00  0.00    +0.000 S 
BRANCH   3   5
ATOM      5  N   UNL     1       2.941   5.659  20.578  0.00  0.00    +0.000 N 
ATOM      6  H   UNL     1       3.845   5.751  21.033  0.00  0.00    +0.000 HD
BRANCH   5   7
ATOM      7  C   UNL     1       2.571   6.747  19.739  0.00  0.00    +0.000 A 
ATOM      8  C   UNL     1       3.120   6.769  18.435  0.00  0.00    +0.000 A 
ATOM      9  C   UNL     1       2.656   7.653  17.482  0.00  0.00    +0.000 A 
ATOM     10  C   UNL     1       1.883   8.713  17.905  0.00  0.00    +0.000 A 
ATOM     11  C   UNL     1       1.526   8.857  19.251  0.00  0.00    +0.000 A 
ATOM     12  C   UNL     1       0.955  10.060  19.657  0.00  0.00    +0.000 A 
ATOM     13  C   UNL     1       0.631  10.258  20.985  0.00  0.00    +0.000 A 
ATOM     14  C   UNL     1       0.135   9.133  21.589  0.00  0.00    +0.000 A 
ATOM     15  C   UNL     1       0.871   7.957  21.370  0.00  0.00    +0.000 A 
ATOM     16  C   UNL     1       1.701   7.813  20.187  0.00  0.00    +0.000 A 
ENDBRANCH   5   7
ENDBRANCH   3   5
ENDBRANCH   1   3
BRANCH   1  17
ATOM     17  C   UNL     1       3.601   2.243  19.715  0.00  0.00    +0.000 C 
BRANCH  17  18
ATOM     18  C   UNL     1       3.914   2.621  18.269  0.00  0.00    +0.000 C 
BRANCH  18  28
ATOM     19  O   UNL     1       7.865   6.853  16.927  0.00  0.00    +0.000 OA
ATOM     20  C   UNL     1       7.003   6.043  16.613  0.00  0.00    +0.000 A 
ATOM     21  N   UNL     1       6.524   5.902  15.313  0.00  0.00    +0.000 N 
ATOM     22  C   UNL     1       5.523   5.042  14.955  0.00  0.00    +0.000 A 
ATOM     23  N   UNL     1       4.898   4.227  15.763  0.00  0.00    +0.000 NA
ATOM     24  C   UNL     1       5.359   4.322  17.035  0.00  0.00    +0.000 A 
ATOM     25  C   UNL     1       6.329   5.145  17.535  0.00  0.00    +0.000 A 
ATOM     26  N   UNL     1       6.510   4.949  18.885  0.00  0.00    +0.000 NA
ATOM     27  N   UNL     1       5.644   4.006  19.242  0.00  0.00    +0.000 NA
ATOM     28  N   UNL     1       4.938   3.633  18.169  0.00  0.00    +0.000 N 
ATOM     29  H   UNL     1       6.964   6.516  14.628  0.00  0.00    +0.000 HD
ENDBRANCH  18  28
ENDBRANCH  17  18
ENDBRANCH   1  17
TORSDOF 6
ENDMDL
MODEL 4
REMARK VINA RESULT:      -7.8      1.259      1.440
REMARK  Name = 
REMARK  6 active torsions:
REMARK  status: ('A' for Active; 'I' for Inactive)
REMARK    1  A    between atoms: N_10  and  C_11
REMARK    2  A    between atoms: C_11  and  C_12
REMARK    3  A    between atoms: C_12  and  N_13
REMARK    4  A    between atoms: N_13  and  C_14
REMARK    5  A    between atoms: C_14  and  N_16
REMARK    6  A    between atoms: N_16  and  C_17
REMARK                            x       y       z     vdW  Elec       q    Type
REMARK                         _______ _______ _______ _____ _____    ______ ____
ROOT
ATOM      1  N   UNL     1       3.405   3.338  20.657  0.00  0.00    +0.000 N 
ATOM      2  H   UNL     1       3.351   2.948  21.593  0.00  0.00    +0.000 HD
ENDROOT
BRANCH   1   3
ATOM      3  C   UNL     1       2.557   4.385  20.371  0.00  0.00    +0.000 C 
ATOM      4  S   UNL     1       0.927   4.216  20.063  0.00  0.00    +0.000 S 
BRANCH   3   5
ATOM      5  N   UNL     1       3.144   5.635  20.334  0.00  0.00    +0.000 N 
ATOM      6  H   UNL     1       4.137   5.653  20.545  0.00  0.00    +0.000 HD
BRANCH   5   7
ATOM      7  C   UNL     1       2.661   6.752  19.594  0.00  0.00    +0.000 A 
ATOM      8  C   UNL     1       3.111   6.882  18.260  0.00  0.00    +0.000 A 
ATOM      9  C   UNL     1       2.537   7.796  17.400  0.00  0.00    +0.000 A 
ATOM     10  C   UNL     1       1.747   8.787  17.944  0.00  0.00    +0.000 A 
ATOM     11  C   UNL     1       1.483   8.829  19.319  0.00  0.00    +0.000 A 
ATOM     12  C   UNL     1       0.887   9.974  19.841  0.00  0.00    +0.000 A 
ATOM     13  C   UNL     1       0.652  10.072  21.199  0.00  0.00    +0.000 A 
ATOM     14  C   UNL     1       0.257   8.888  21.762  0.00  0.00    +0.000 A 
ATOM     15  C   UNL     1       1.030   7.769  21.417  0.00  0.00    +0.000 A 
ATOM     16  C   UNL     1       1.777   7.741  20.171  0.00  0.00    +0.000 A 
ENDBRANCH   5   7
ENDBRANCH   3   5
ENDBRANCH   1   3
BRANCH   1  17
ATOM     17  C   UNL     1       4.222   2.619  19.683  0.00  0.00    +0.000 C 
BRANCH  17  18
ATOM     18  C   UNL     1       3.831   2.837  18.223  0.00  0.00    +0.000 C 
BRANCH  18  28
ATOM     19  O   UNL     1       7.836   6.793  16.318  0.00  0.00    +0.000 OA
ATOM     20  C   UNL     1       7.276   6.169  17.209  0.00  0.00    +0.000 A 
ATOM     21  N   UNL     1       7.638   6.260  18.550  0.00  0.00    +0.000 N 
ATOM     22  C   UNL     1       7.060   5.529  19.551  0.00  0.00    +0.000 A 
ATOM     23  N   UNL     1       6.087   4.669  19.398  0.00  0.00    +0.000 NA
ATOM     24  C   UNL     1       5.693   4.576  18.103  0.00  0.00    +0.000 A 
ATOM     25  C   UNL     1       6.190   5.223  17.007  0.00  0.00    +0.000 A 
ATOM     26  N   UNL     1       5.528   4.855  15.859  0.00  0.00    +0.000 NA
ATOM     27  N   UNL     1       4.614   3.964  16.229  0.00  0.00    +0.000 NA
ATOM     28  N   UNL     1       4.706   3.766  17.548  0.00  0.00    +0.000 N 
ATOM     29  H   UNL     1       8.401   6.909  18.743  0.00  0.00    +0.000 HD
ENDBRANCH  18  28
ENDBRANCH  17  18
ENDBRANCH   1  17
TORSDOF 6
ENDMDL
MODEL 5
REMARK VINA RESULT:      -7.6      1.733      1.938
REMARK  Name = 
REMARK  6 active torsions:
REMARK  status: ('A' for Active; 'I' for Inactive)
REMARK    1  A    between atoms: N_10  and  C_11
REMARK    2  A    between atoms: C_11  and  C_12
REMARK    3  A    between atoms: C_12  and  N_13
REMARK    4  A    between atoms: N_13  and  C_14
REMARK    5  A    between atoms: C_14  and  N_16
REMARK    6  A    between atoms: N_16  and  C_17
REMARK                            x       y       z     vdW  Elec       q    Type
REMARK                         _______ _______ _______ _____ _____    ______ ____
ROOT
ATOM      1  N   UNL     1       2.616   5.236  20.563  0.00  0.00    +0.000 N 
ATOM      2  H   UNL     1       2.555   5.365  21.569  0.00  0.00    +0.000 HD
ENDROOT
BRANCH   1   3
ATOM      3  C   UNL     1       2.475   6.362  19.784  0.00  0.00    +0.000 C 
ATOM      4  S   UNL     1       2.523   6.363  18.117  0.00  0.00    +0.000 S 
BRANCH   3   5
ATOM      5  N   UNL     1       2.300   7.547  20.473  0.00  0.00    +0.000 N 
ATOM      6  H   UNL     1       3.077   7.820  21.067  0.00  0.00    +0.000 HD
BRANCH   5   7
ATOM      7  C   UNL     1       1.430   8.606  20.088  0.00  0.00    +0.000 A 
ATOM      8  C   UNL     1       1.490   9.028  18.739  0.00  0.00    +0.000 A 
ATOM      9  C   UNL     1       0.543   9.887  18.220  0.00  0.00    +0.000 A 
ATOM     10  C   UNL     1      -0.266  10.569  19.103  0.00  0.00    +0.000 A 
ATOM     11  C   UNL     1      -0.175  10.351  20.484  0.00  0.00    +0.000 A 
ATOM     12  C   UNL     1      -0.837  11.231  21.335  0.00  0.00    +0.000 A 
ATOM     13  C   UNL     1      -0.734  11.077  22.705  0.00  0.00    +0.000 A 
ATOM     14  C   UNL     1      -0.725   9.765  23.097  0.00  0.00    +0.000 A 
ATOM     15  C   UNL     1       0.145   8.928  22.382  0.00  0.00    +0.000 A 
ATOM     16  C   UNL     1       0.540   9.258  21.023  0.00  0.00    +0.000 A 
ENDBRANCH   5   7
ENDBRANCH   3   5
ENDBRANCH   1   3
BRANCH   1  17
ATOM     17  C   UNL     1       2.648   3.861  20.071  0.00  0.00    +0.000 C 
BRANCH  17  18
ATOM     18  C   UNL     1       4.043   3.259  19.923  0.00  0.00    +0.000 C 
BRANCH  18  28
ATOM     19  O   UNL     1       7.351   5.410  15.479  0.00  0.00    +0.000 OA
ATOM     20  C   UNL     1       7.052   5.336  16.663  0.00  0.00    +0.000 A 
ATOM     21  N   UNL     1       7.749   5.998  17.670  0.00  0.00    +0.000 N 
ATOM     22  C   UNL     1       7.464   5.883  19.003  0.00  0.00    +0.000 A 
ATOM     23  N   UNL     1       6.498   5.165  19.512  0.00  0.00    +0.000 NA
ATOM     24  C   UNL     1       5.782   4.526  18.554  0.00  0.00    +0.000 A 
ATOM     25  C   UNL     1       5.967   4.532  17.200  0.00  0.00    +0.000 A 
ATOM     26  N   UNL     1       5.034   3.749  16.559  0.00  0.00    +0.000 NA
ATOM     27  N   UNL     1       4.262   3.238  17.513  0.00  0.00    +0.000 NA
ATOM     28  N   UNL     1       4.697   3.666  18.703  0.00  0.00    +0.000 N 
ATOM     29  H   UNL     1       8.525   6.574  17.344  0.00  0.00    +0.000 HD
ENDBRANCH  18  28
ENDBRANCH  17  18
ENDBRANCH   1  17
TORSDOF 6
ENDMDL
MODEL 6
REMARK VINA RESULT:      -7.6      2.381      2.940
REMARK  Name = 
REMARK  6 active torsions:
REMARK  status: ('A' for Active; 'I' for Inactive)
REMARK    1  A    between atoms: N_10  and  C_11
REMARK    2  A    between atoms: C_11  and  C_12
REMARK    3  A    between atoms: C_12  and  N_13
REMARK    4  A    between atoms: N_13  and  C_14
REMARK    5  A    between atoms: C_14  and  N_16
REMARK    6  A    between atoms: N_16  and  C_17
REMARK                            x       y       z     vdW  Elec       q    Type
REMARK                         _______ _______ _______ _____ _____    ______ ____
ROOT
ATOM      1  N   UNL     1       3.761   5.166  18.685  0.00  0.00    +0.000 N 
ATOM      2  H   UNL     1       4.723   5.253  19.000  0.00  0.00    +0.000 HD
ENDROOT
BRANCH   1   3
ATOM      3  C   UNL     1       2.779   5.381  19.626  0.00  0.00    +0.000 C 
ATOM      4  S   UNL     1       1.626   4.256  20.055  0.00  0.00    +0.000 S 
BRANCH   3   5
ATOM      5  N   UNL     1       2.781   6.632  20.215  0.00  0.00    +0.000 N 
ATOM      6  H   UNL     1       3.597   6.842  20.781  0.00  0.00    +0.000 HD
BRANCH   5   7
ATOM      7  C   UNL     1       2.060   7.766  19.745  0.00  0.00    +0.000 A 
ATOM      8  C   UNL     1       2.277   8.155  18.402  0.00  0.00    +0.000 A 
ATOM      9  C   UNL     1       1.471   9.095  17.794  0.00  0.00    +0.000 A 
ATOM     10  C   UNL     1       0.665   9.873  18.598  0.00  0.00    +0.000 A 
ATOM     11  C   UNL     1       0.616   9.673  19.983  0.00  0.00    +0.000 A 
ATOM     12  C   UNL     1      -0.022  10.632  20.766  0.00  0.00    +0.000 A 
ATOM     13  C   UNL     1      -0.051  10.494  22.140  0.00  0.00    +0.000 A 
ATOM     14  C   UNL     1      -0.211   9.196  22.546  0.00  0.00    +0.000 A 
ATOM     15  C   UNL     1       0.626   8.261  21.916  0.00  0.00    +0.000 A 
ATOM     16  C   UNL     1       1.166   8.523  20.593  0.00  0.00    +0.000 A 
ENDBRANCH   5   7
ENDBRANCH   3   5
ENDBRANCH   1   3
BRANCH   1  17
ATOM     17  C   UNL     1       3.547   4.635  17.341  0.00  0.00    +0.000 C 
BRANCH  17  18
ATOM     18  C   UNL     1       4.616   3.661  16.852  0.00  0.00    +0.000 C 
BRANCH  18  28
ATOM     19  O   UNL     1       8.652   5.908  13.113  0.00  0.00    +0.000 OA
ATOM     20  C   UNL     1       7.723   5.156  13.373  0.00  0.00    +0.000 A 
ATOM     21  N   UNL     1       7.122   4.329  12.427  0.00  0.00    +0.000 N 
ATOM     22  C   UNL     1       6.048   3.524  12.685  0.00  0.00    +0.000 A 
ATOM     23  N   UNL     1       5.455   3.399  13.843  0.00  0.00    +0.000 NA
ATOM     24  C   UNL     1       6.034   4.173  14.795  0.00  0.00    +0.000 A 
ATOM     25  C   UNL     1       7.087   5.035  14.674  0.00  0.00    +0.000 A 
ATOM     26  N   UNL     1       7.379   5.647  15.871  0.00  0.00    +0.000 NA
ATOM     27  N   UNL     1       6.499   5.179  16.750  0.00  0.00    +0.000 NA
ATOM     28  N   UNL     1       5.680   4.321  16.134  0.00  0.00    +0.000 N 
ATOM     29  H   UNL     1       7.531   4.382  11.494  0.00  0.00    +0.000 HD
ENDBRANCH  18  28
ENDBRANCH  17  18
ENDBRANCH   1  17
TORSDOF 6
ENDMDL
MODEL 7
REMARK VINA RESULT:      -7.5      2.000      2.599
REMARK  Name = 
REMARK  6 active torsions:
REMARK  status: ('A' for Active; 'I' for Inactive)
REMARK    1  A    between atoms: N_10  and  C_11
REMARK    2  A    between atoms: C_11  and  C_12
REMARK    3  A    between atoms: C_12  and  N_13
REMARK    4  A    between atoms: N_13  and  C_14
REMARK    5  A    between atoms: C_14  and  N_16
REMARK    6  A    between atoms: N_16  and  C_17
REMARK                            x       y       z     vdW  Elec       q    Type
REMARK                         _______ _______ _______ _____ _____    ______ ____
ROOT
ATOM      1  N   UNL     1       1.958   5.633  18.857  0.00  0.00    +0.000 N 
ATOM      2  H   UNL     1       1.584   5.378  19.767  0.00  0.00    +0.000 HD
ENDROOT
BRANCH   1   3
ATOM      3  C   UNL     1       2.544   6.875  18.755  0.00  0.00    +0.000 C 
ATOM      4  S   UNL     1       3.637   7.303  17.570  0.00  0.00    +0.000 S 
BRANCH   3   5
ATOM      5  N   UNL     1       2.185   7.787  19.729  0.00  0.00    +0.000 N 
ATOM      6  H   UNL     1       2.898   7.979  20.426  0.00  0.00    +0.000 HD
BRANCH   5   7
ATOM      7  C   UNL     1       1.186   8.791  19.591  0.00  0.00    +0.000 A 
ATOM      8  C   UNL     1       0.955   9.295  18.289  0.00  0.00    +0.000 A 
ATOM      9  C   UNL     1      -0.131  10.102  18.019  0.00  0.00    +0.000 A 
ATOM     10  C   UNL     1      -0.799  10.664  19.086  0.00  0.00    +0.000 A 
ATOM     11  C   UNL     1      -0.430  10.375  20.406  0.00  0.00    +0.000 A 
ATOM     12  C   UNL     1      -0.974  11.147  21.428  0.00  0.00    +0.000 A 
ATOM     13  C   UNL     1      -0.600  10.924  22.738  0.00  0.00    +0.000 A 
ATOM     14  C   UNL     1      -0.425   9.597  23.027  0.00  0.00    +0.000 A 
ATOM     15  C   UNL     1       0.347   8.875  22.102  0.00  0.00    +0.000 A 
ATOM     16  C   UNL     1       0.449   9.314  20.721  0.00  0.00    +0.000 A 
ENDBRANCH   5   7
ENDBRANCH   3   5
ENDBRANCH   1   3
BRANCH   1  17
ATOM     17  C   UNL     1       1.654   4.744  17.739  0.00  0.00    +0.000 C 
BRANCH  17  18
ATOM     18  C   UNL     1       2.522   3.491  17.655  0.00  0.00    +0.000 C 
BRANCH  18  28
ATOM     19  O   UNL     1       8.302   4.681  18.352  0.00  0.00    +0.000 OA
ATOM     20  C   UNL     1       7.314   4.505  17.653  0.00  0.00    +0.000 A 
ATOM     21  N   UNL     1       7.323   4.644  16.267  0.00  0.00    +0.000 N 
ATOM     22  C   UNL     1       6.216   4.505  15.476  0.00  0.00    +0.000 A 
ATOM     23  N   UNL     1       5.016   4.207  15.897  0.00  0.00    +0.000 NA
ATOM     24  C   UNL     1       4.977   4.040  17.242  0.00  0.00    +0.000 A 
ATOM     25  C   UNL     1       5.990   4.168  18.151  0.00  0.00    +0.000 A 
ATOM     26  N   UNL     1       5.553   3.925  19.432  0.00  0.00    +0.000 NA
ATOM     27  N   UNL     1       4.257   3.652  19.335  0.00  0.00    +0.000 NA
ATOM     28  N   UNL     1       3.887   3.734  18.053  0.00  0.00    +0.000 N 
ATOM     29  H   UNL     1       8.231   4.885  15.869  0.00  0.00    +0.000 HD
ENDBRANCH  18  28
ENDBRANCH  17  18
ENDBRANCH   1  17
TORSDOF 6
ENDMDL
MODEL 8
REMARK VINA RESULT:      -7.5      1.609      1.905
REMARK  Name = 
REMARK  6 active torsions:
REMARK  status: ('A' for Active; 'I' for Inactive)
REMARK    1  A    between atoms: N_10  and  C_11
REMARK    2  A    between atoms: C_11  and  C_12
REMARK    3  A    between atoms: C_12  and  N_13
REMARK    4  A    between atoms: N_13  and  C_14
REMARK    5  A    between atoms: C_14  and  N_16
REMARK    6  A    between atoms: N_16  and  C_17
REMARK                            x       y       z     vdW  Elec       q    Type
REMARK                         _______ _______ _______ _____ _____    ______ ____
ROOT
ATOM      1  N   UNL     1       2.876   3.499  21.218  0.00  0.00    +0.000 N 
ATOM      2  H   UNL     1       3.045   3.506  22.220  0.00  0.00    +0.000 HD
ENDROOT
BRANCH   1   3
ATOM      3  C   UNL     1       2.011   4.453  20.729  0.00  0.00    +0.000 C 
ATOM      4  S   UNL     1       0.641   4.112  19.842  0.00  0.00    +0.000 S 
BRANCH   3   5
ATOM      5  N   UNL     1       2.352   5.764  21.002  0.00  0.00    +0.000 N 
ATOM      6  H   UNL     1       3.086   5.885  21.693  0.00  0.00    +0.000 HD
BRANCH   5   7
ATOM      7  C   UNL     1       2.159   6.867  20.124  0.00  0.00    +0.000 A 
ATOM      8  C   UNL     1       2.832   6.825  18.880  0.00  0.00    +0.000 A 
ATOM      9  C   UNL     1       2.539   7.730  17.881  0.00  0.00    +0.000 A 
ATOM     10  C   UNL     1       1.821   8.857  18.219  0.00  0.00    +0.000 A 
ATOM     11  C   UNL     1       1.348   9.050  19.523  0.00  0.00    +0.000 A 
ATOM     12  C   UNL     1       0.844  10.302  19.864  0.00  0.00    +0.000 A 
ATOM     13  C   UNL     1       0.410  10.545  21.153  0.00  0.00    +0.000 A 
ATOM     14  C   UNL     1      -0.235   9.474  21.712  0.00  0.00    +0.000 A 
ATOM     15  C   UNL     1       0.417   8.238  21.574  0.00  0.00    +0.000 A 
ATOM     16  C   UNL     1       1.342   8.008  20.478  0.00  0.00    +0.000 A 
ENDBRANCH   5   7
ENDBRANCH   3   5
ENDBRANCH   1   3
BRANCH   1  17
ATOM     17  C   UNL     1       3.408   2.369  20.461  0.00  0.00    +0.000 C 
BRANCH  17  18
ATOM     18  C   UNL     1       4.804   2.579  19.880  0.00  0.00    +0.000 C 
BRANCH  18  28
ATOM     19  O   UNL     1       5.628   6.466  15.460  0.00  0.00    +0.000 OA
ATOM     20  C   UNL     1       5.942   5.971  16.534  0.00  0.00    +0.000 A 
ATOM     21  N   UNL     1       7.079   6.347  17.245  0.00  0.00    +0.000 N 
ATOM     22  C   UNL     1       7.476   5.766  18.418  0.00  0.00    +0.000 A 
ATOM     23  N   UNL     1       6.845   4.805  19.040  0.00  0.00    +0.000 NA
ATOM     24  C   UNL     1       5.717   4.432  18.385  0.00  0.00    +0.000 A 
ATOM     25  C   UNL     1       5.216   4.906  17.205  0.00  0.00    +0.000 A 
ATOM     26  N   UNL     1       4.047   4.266  16.860  0.00  0.00    +0.000 NA
ATOM     27  N   UNL     1       3.814   3.379  17.821  0.00  0.00    +0.000 NA
ATOM     28  N   UNL     1       4.798   3.443  18.723  0.00  0.00    +0.000 N 
ATOM     29  H   UNL     1       7.627   7.090  16.812  0.00  0.00    +0.000 HD
ENDBRANCH  18  28
ENDBRANCH  17  18
ENDBRANCH   1  17
TORSDOF 6
ENDMDL
MODEL 9
REMARK VINA RESULT:      -7.4      3.796      7.373
REMARK  Name = 
REMARK  6 active torsions:
REMARK  status: ('A' for Active; 'I' for Inactive)
REMARK    1  A    between atoms: N_10  and  C_11
REMARK    2  A    between atoms: C_11  and  C_12
REMARK    3  A    between atoms: C_12  and  N_13
REMARK    4  A    between atoms: N_13  and  C_14
REMARK    5  A    between atoms: C_14  and  N_16
REMARK    6  A    between atoms: N_16  and  C_17
REMARK                            x       y       z     vdW  Elec       q    Type
REMARK                         _______ _______ _______ _____ _____    ______ ____
ROOT
ATOM      1  N   UNL     1       1.474   8.179  20.945  0.00  0.00    +0.000 N 
ATOM      2  H   UNL     1       2.078   8.396  21.733  0.00  0.00    +0.000 HD
ENDROOT
BRANCH   1   3
ATOM      3  C   UNL     1       2.089   7.985  19.728  0.00  0.00    +0.000 C 
ATOM      4  S   UNL     1       1.660   8.775  18.323  0.00  0.00    +0.000 S 
BRANCH   3   5
ATOM      5  N   UNL     1       3.112   7.056  19.717  0.00  0.00    +0.000 N 
ATOM      6  H   UNL     1       3.663   7.009  20.568  0.00  0.00    +0.000 HD
BRANCH   5   7
ATOM      7  C   UNL     1       3.161   5.892  18.899  0.00  0.00    +0.000 A 
ATOM      8  C   UNL     1       3.965   5.956  17.737  0.00  0.00    +0.000 A 
ATOM      9  C   UNL     1       4.250   4.822  17.004  0.00  0.00    +0.000 A 
ATOM     10  C   UNL     1       3.489   3.696  17.235  0.00  0.00    +0.000 A 
ATOM     11  C   UNL     1       2.499   3.681  18.225  0.00  0.00    +0.000 A 
ATOM     12  C   UNL     1       1.608   2.612  18.252  0.00  0.00    +0.000 A 
ATOM     13  C   UNL     1       0.590   2.583  19.185  0.00  0.00    +0.000 A 
ATOM     14  C   UNL     1       0.969   3.069  20.407  0.00  0.00    +0.000 A 
ATOM     15  C   UNL     1       1.660   4.291  20.382  0.00  0.00    +0.000 A 
ATOM     16  C   UNL     1       2.404   4.697  19.202  0.00  0.00    +0.000 A 
ENDBRANCH   5   7
ENDBRANCH   3   5
ENDBRANCH   1   3
BRANCH   1  17
ATOM     17  C   UNL     1       0.034   8.293  21.159  0.00  0.00    +0.000 C 
BRANCH  17  18
ATOM     18  C   UNL     1      -0.422   9.601  21.801  0.00  0.00    +0.000 C 
BRANCH  18  28
ATOM     19  O   UNL     1       0.916  14.288  18.401  0.00  0.00    +0.000 OA
ATOM     20  C   UNL     1       0.239  13.304  18.663  0.00  0.00    +0.000 A 
ATOM     21  N   UNL     1      -0.874  12.923  17.918  0.00  0.00    +0.000 N 
ATOM     22  C   UNL     1      -1.675  11.858  18.228  0.00  0.00    +0.000 A 
ATOM     23  N   UNL     1      -1.501  11.047  19.237  0.00  0.00    +0.000 NA
ATOM     24  C   UNL     1      -0.408  11.376  19.970  0.00  0.00    +0.000 A 
ATOM     25  C   UNL     1       0.462  12.415  19.791  0.00  0.00    +0.000 A 
ATOM     26  N   UNL     1       1.447  12.419  20.751  0.00  0.00    +0.000 NA
ATOM     27  N   UNL     1       1.195  11.385  21.545  0.00  0.00    +0.000 NA
ATOM     28  N   UNL     1       0.091  10.764  21.117  0.00  0.00    +0.000 N 
ATOM     29  H   UNL     1      -1.075  13.519  17.116  0.00  0.00    +0.000 HD
ENDBRANCH  18  28
ENDBRANCH  17  18
ENDBRANCH   1  17
TORSDOF 6
ENDMDL
