MODEL 1
REMARK VINA RESULT:      -9.4      0.000      0.000
REMARK  Name = 
REMARK  3 active torsions:
REMARK  status: ('A' for Active; 'I' for Inactive)
REMARK    1  A    between atoms: C_1  and  C_2
REMARK    2  A    between atoms: C_4  and  N_5
REMARK    3  A    between atoms: N_5  and  C_6
REMARK                            x       y       z     vdW  Elec       q    Type
REMARK                         _______ _______ _______ _____ _____    ______ ____
ROOT
ATOM      1  C   UNL     1       1.903   3.683  21.520  0.00  0.00    +0.000 C 
ATOM      2  C   UNL     1       2.478   4.631  20.512  0.00  0.00    +0.000 A 
ATOM      3  C   UNL     1       1.902   5.956  20.410  0.00  0.00    +0.000 A 
ATOM      4  C   UNL     1       2.321   6.872  19.513  0.00  0.00    +0.000 A 
ATOM      5  C   UNL     1       3.500   6.502  18.615  0.00  0.00    +0.000 A 
ATOM      6  O   UNL     1       3.936   7.331  17.819  0.00  0.00    +0.000 OA
ATOM      7  N   UNL     1       3.984   5.222  18.762  0.00  0.00    +0.000 N 
ATOM      8  C   UNL     1       3.487   4.328  19.687  0.00  0.00    +0.000 A 
ATOM      9  C   UNL     1       4.243   3.057  19.587  0.00  0.00    +0.000 C 
ATOM     10  O   UNL     1       4.090   2.038  20.229  0.00  0.00    +0.000 OA
ATOM     11  N   UNL     1       5.172   3.277  18.598  0.00  0.00    +0.000 N 
ATOM     12  C   UNL     1       5.086   4.603  18.004  0.00  0.00    +0.000 C 
ATOM     13  C   UNL     1       4.758   4.466  16.502  0.00  0.00    +0.000 C 
ATOM     14  C   UNL     1       5.911   3.838  15.713  0.00  0.00    +0.000 C 
ATOM     15  C   UNL     1       7.221   4.590  15.929  0.00  0.00    +0.000 C 
ATOM     16  C   UNL     1       7.565   4.717  17.411  0.00  0.00    +0.000 C 
ATOM     17  C   UNL     1       6.420   5.348  18.207  0.00  0.00    +0.000 C 
ATOM     18  H   UNL     1       5.822   2.551  18.329  0.00  0.00    +0.000 HD
ENDROOT
BRANCH   4  19
ATOM     19  N   UNL     1       1.777   8.139  19.356  0.00  0.00    +0.000 N 
ATOM     20  H   UNL     1       1.335   8.248  18.440  0.00  0.00    +0.000 HD
BRANCH  19  21
ATOM     21  C   UNL     1       1.078   8.846  20.364  0.00  0.00    +0.000 A 
ATOM     22  C   UNL     1       1.289   8.646  21.732  0.00  0.00    +0.000 A 
ATOM     23  C   UNL     1       0.605   9.410  22.676  0.00  0.00    +0.000 A 
ATOM     24  C   UNL     1      -0.288  10.365  22.224  0.00  0.00    +0.000 A 
ATOM     25  N   UNL     1      -0.541  10.590  20.916  0.00  0.00    +0.000 NA
ATOM     26  C   UNL     1       0.147   9.830  20.026  0.00  0.00    +0.000 A 
ENDBRANCH  19  21
ENDBRANCH   4  19
TORSDOF 2
ENDMDL
MODEL 2
REMARK VINA RESULT:      -8.6      1.181      1.672
REMARK  Name = 
REMARK  3 active torsions:
REMARK  status: ('A' for Active; 'I' for Inactive)
REMARK    1  A    between atoms: C_1  and  C_2
REMARK    2  A    between atoms: C_4  and  N_5
REMARK    3  A    between atoms: N_5  and  C_6
REMARK                            x       y       z     vdW  Elec       q    Type
REMARK                         _______ _______ _______ _____ _____    ______ ____
ROOT
ATOM      1  C   UNL     1       1.274   2.740  20.417  0.00  0.00    +0.000 C 
ATOM      2  C   UNL     1       2.095   3.899  19.939  0.00  0.00    +0.000 A 
ATOM      3  C   UNL     1       1.806   5.212  20.477  0.00  0.00    +0.000 A 
ATOM      4  C   UNL     1       2.461   6.326  20.087  0.00  0.00    +0.000 A 
ATOM      5  C   UNL     1       3.598   6.169  19.080  0.00  0.00    +0.000 A 
ATOM      6  O   UNL     1       4.245   7.157  18.740  0.00  0.00    +0.000 OA
ATOM      7  N   UNL     1       3.803   4.892  18.607  0.00  0.00    +0.000 N 
ATOM      8  C   UNL     1       3.075   3.802  19.033  0.00  0.00    +0.000 A 
ATOM      9  C   UNL     1       3.564   2.590  18.335  0.00  0.00    +0.000 C 
ATOM     10  O   UNL     1       3.167   1.447  18.442  0.00  0.00    +0.000 OA
ATOM     11  N   UNL     1       4.583   3.036  17.527  0.00  0.00    +0.000 N 
ATOM     12  C   UNL     1       4.807   4.472  17.612  0.00  0.00    +0.000 C 
ATOM     13  C   UNL     1       4.559   5.106  16.227  0.00  0.00    +0.000 C 
ATOM     14  C   UNL     1       5.612   4.682  15.199  0.00  0.00    +0.000 C 
ATOM     15  C   UNL     1       7.029   4.959  15.693  0.00  0.00    +0.000 C 
ATOM     16  C   UNL     1       7.292   4.321  17.054  0.00  0.00    +0.000 C 
ATOM     17  C   UNL     1       6.246   4.744  18.089  0.00  0.00    +0.000 C 
ATOM     18  H   UNL     1       5.090   2.394  16.933  0.00  0.00    +0.000 HD
ENDROOT
BRANCH   4  19
ATOM     19  N   UNL     1       2.195   7.608  20.549  0.00  0.00    +0.000 N 
ATOM     20  H   UNL     1       3.037   8.056  20.920  0.00  0.00    +0.000 HD
BRANCH  19  21
ATOM     21  C   UNL     1       1.348   8.538  19.900  0.00  0.00    +0.000 A 
ATOM     22  C   UNL     1       1.465   8.870  18.546  0.00  0.00    +0.000 A 
ATOM     23  C   UNL     1       0.568   9.757  17.952  0.00  0.00    +0.000 A 
ATOM     24  C   UNL     1      -0.435  10.299  18.736  0.00  0.00    +0.000 A 
ATOM     25  N   UNL     1      -0.585  10.023  20.050  0.00  0.00    +0.000 NA
ATOM     26  C   UNL     1       0.304   9.154  20.592  0.00  0.00    +0.000 A 
ENDBRANCH  19  21
ENDBRANCH   4  19
TORSDOF 2
ENDMDL
MODEL 3
REMARK VINA RESULT:      -8.3      1.332      1.722
REMARK  Name = 
REMARK  3 active torsions:
REMARK  status: ('A' for Active; 'I' for Inactive)
REMARK    1  A    between atoms: C_1  and  C_2
REMARK    2  A    between atoms: C_4  and  N_5
REMARK    3  A    between atoms: N_5  and  C_6
REMARK                            x       y       z     vdW  Elec       q    Type
REMARK                         _______ _______ _______ _____ _____    ______ ____
ROOT
ATOM      1  C   UNL     1       1.471   4.897  20.834  0.00  0.00    +0.000 C 
ATOM      2  C   UNL     1       2.259   5.611  19.778  0.00  0.00    +0.000 A 
ATOM      3  C   UNL     1       1.891   6.974  19.452  0.00  0.00    +0.000 A 
ATOM      4  C   UNL     1       2.511   7.693  18.494  0.00  0.00    +0.000 A 
ATOM      5  C   UNL     1       3.695   7.050  17.774  0.00  0.00    +0.000 A 
ATOM      6  O   UNL     1       4.310   7.695  16.929  0.00  0.00    +0.000 OA
ATOM      7  N   UNL     1       3.975   5.750  18.130  0.00  0.00    +0.000 N 
ATOM      8  C   UNL     1       3.278   5.067  19.104  0.00  0.00    +0.000 A 
ATOM      9  C   UNL     1       3.849   3.706  19.243  0.00  0.00    +0.000 C 
ATOM     10  O   UNL     1       3.498   2.815  19.989  0.00  0.00    +0.000 OA
ATOM     11  N   UNL     1       4.879   3.662  18.334  0.00  0.00    +0.000 N 
ATOM     12  C   UNL     1       5.036   4.892  17.572  0.00  0.00    +0.000 C 
ATOM     13  C   UNL     1       4.817   4.592  16.074  0.00  0.00    +0.000 C 
ATOM     14  C   UNL     1       5.929   3.715  15.491  0.00  0.00    +0.000 C 
ATOM     15  C   UNL     1       7.311   4.310  15.743  0.00  0.00    +0.000 C 
ATOM     16  C   UNL     1       7.546   4.595  17.224  0.00  0.00    +0.000 C 
ATOM     17  C   UNL     1       6.441   5.476  17.814  0.00  0.00    +0.000 C 
ATOM     18  H   UNL     1       5.438   2.826  18.226  0.00  0.00    +0.000 HD
ENDROOT
BRANCH   4  19
ATOM     19  N   UNL     1       2.170   8.987  18.124  0.00  0.00    +0.000 N 
ATOM     20  H   UNL     1       2.354   9.155  17.132  0.00  0.00    +0.000 HD
BRANCH  19  21
ATOM     21  C   UNL     1       1.014   9.673  18.567  0.00  0.00    +0.000 A 
ATOM     22  C   UNL     1      -0.211   9.633  17.893  0.00  0.00    +0.000 A 
ATOM     23  C   UNL     1      -1.327  10.290  18.407  0.00  0.00    +0.000 A 
ATOM     24  C   UNL     1      -1.191  10.982  19.597  0.00  0.00    +0.000 A 
ATOM     25  N   UNL     1      -0.029  11.065  20.282  0.00  0.00    +0.000 NA
ATOM     26  C   UNL     1       1.035  10.410  19.753  0.00  0.00    +0.000 A 
ENDBRANCH  19  21
ENDBRANCH   4  19
TORSDOF 2
ENDMDL
MODEL 4
REMARK VINA RESULT:      -8.1      2.661      7.403
REMARK  Name = 
REMARK  3 active torsions:
REMARK  status: ('A' for Active; 'I' for Inactive)
REMARK    1  A    between atoms: C_1  and  C_2
REMARK    2  A    between atoms: C_4  and  N_5
REMARK    3  A    between atoms: N_5  and  C_6
REMARK                            x       y       z     vdW  Elec       q    Type
REMARK                         _______ _______ _______ _____ _____    ______ ____
ROOT
ATOM      1  C   UNL     1       4.161   8.144  17.108  0.00  0.00    +0.000 C 
ATOM      2  C   UNL     1       4.153   6.664  17.343  0.00  0.00    +0.000 A 
ATOM      3  C   UNL     1       4.982   5.830  16.497  0.00  0.00    +0.000 A 
ATOM      4  C   UNL     1       5.020   4.486  16.602  0.00  0.00    +0.000 A 
ATOM      5  C   UNL     1       4.196   3.834  17.711  0.00  0.00    +0.000 A 
ATOM      6  O   UNL     1       4.246   2.615  17.862  0.00  0.00    +0.000 OA
ATOM      7  N   UNL     1       3.427   4.690  18.464  0.00  0.00    +0.000 N 
ATOM      8  C   UNL     1       3.418   6.057  18.282  0.00  0.00    +0.000 A 
ATOM      9  C   UNL     1       2.496   6.671  19.267  0.00  0.00    +0.000 C 
ATOM     10  O   UNL     1       2.221   7.845  19.411  0.00  0.00    +0.000 OA
ATOM     11  N   UNL     1       2.010   5.615  20.000  0.00  0.00    +0.000 N 
ATOM     12  C   UNL     1       2.521   4.323  19.568  0.00  0.00    +0.000 C 
ATOM     13  C   UNL     1       1.344   3.445  19.091  0.00  0.00    +0.000 C 
ATOM     14  C   UNL     1       0.414   3.050  20.241  0.00  0.00    +0.000 C 
ATOM     15  C   UNL     1       1.177   2.384  21.383  0.00  0.00    +0.000 C 
ATOM     16  C   UNL     1       2.333   3.251  21.876  0.00  0.00    +0.000 C 
ATOM     17  C   UNL     1       3.270   3.647  20.733  0.00  0.00    +0.000 C 
ATOM     18  H   UNL     1       1.347   5.767  20.748  0.00  0.00    +0.000 HD
ENDROOT
BRANCH   4  19
ATOM     19  N   UNL     1       5.771   3.646  15.792  0.00  0.00    +0.000 N 
ATOM     20  H   UNL     1       5.352   2.715  15.724  0.00  0.00    +0.000 HD
BRANCH  19  21
ATOM     21  C   UNL     1       6.383   4.035  14.576  0.00  0.00    +0.000 A 
ATOM     22  C   UNL     1       6.019   3.514  13.329  0.00  0.00    +0.000 A 
ATOM     23  C   UNL     1       6.624   3.974  12.162  0.00  0.00    +0.000 A 
ATOM     24  C   UNL     1       7.594   4.955  12.269  0.00  0.00    +0.000 A 
ATOM     25  N   UNL     1       7.993   5.483  13.447  0.00  0.00    +0.000 NA
ATOM     26  C   UNL     1       7.379   5.013  14.562  0.00  0.00    +0.000 A 
ENDBRANCH  19  21
ENDBRANCH   4  19
TORSDOF 2
ENDMDL
MODEL 5
REMARK VINA RESULT:      -7.8      1.453      1.899
REMARK  Name = 
REMARK  3 active torsions:
REMARK  status: ('A' for Active; 'I' for Inactive)
REMARK    1  A    between atoms: C_1  and  C_2
REMARK    2  A    between atoms: C_4  and  N_5
REMARK    3  A    between atoms: N_5  and  C_6
REMARK                            x       y       z     vdW  Elec       q    Type
REMARK                         _______ _______ _______ _____ _____    ______ ____
ROOT
ATOM      1  C   UNL     1       1.205   3.882  19.702  0.00  0.00    +0.000 C 
ATOM      2  C   UNL     1       2.118   4.836  18.992  0.00  0.00    +0.000 A 
ATOM      3  C   UNL     1       1.911   6.256  19.185  0.00  0.00    +0.000 A 
ATOM      4  C   UNL     1       2.652   7.197  18.565  0.00  0.00    +0.000 A 
ATOM      5  C   UNL     1       3.800   6.728  17.674  0.00  0.00    +0.000 A 
ATOM      6  O   UNL     1       4.523   7.561  17.132  0.00  0.00    +0.000 OA
ATOM      7  N   UNL     1       3.925   5.365  17.531  0.00  0.00    +0.000 N 
ATOM      8  C   UNL     1       3.111   4.459  18.178  0.00  0.00    +0.000 A 
ATOM      9  C   UNL     1       3.530   3.085  17.814  0.00  0.00    +0.000 C 
ATOM     10  O   UNL     1       3.049   2.030  18.177  0.00  0.00    +0.000 OA
ATOM     11  N   UNL     1       4.597   3.255  16.965  0.00  0.00    +0.000 N 
ATOM     12  C   UNL     1       4.920   4.652  16.710  0.00  0.00    +0.000 C 
ATOM     13  C   UNL     1       4.753   4.944  15.204  0.00  0.00    +0.000 C 
ATOM     14  C   UNL     1       5.798   4.216  14.353  0.00  0.00    +0.000 C 
ATOM     15  C   UNL     1       7.218   4.515  14.823  0.00  0.00    +0.000 C 
ATOM     16  C   UNL     1       7.402   4.213  16.308  0.00  0.00    +0.000 C 
ATOM     17  C   UNL     1       6.363   4.941  17.166  0.00  0.00    +0.000 C 
ATOM     18  H   UNL     1       5.072   2.457  16.565  0.00  0.00    +0.000 HD
ENDROOT
BRANCH   4  19
ATOM     19  N   UNL     1       2.467   8.567  18.692  0.00  0.00    +0.000 N 
ATOM     20  H   UNL     1       3.005   9.086  17.993  0.00  0.00    +0.000 HD
BRANCH  19  21
ATOM     21  C   UNL     1       1.226   9.190  18.968  0.00  0.00    +0.000 A 
ATOM     22  C   UNL     1       0.380   9.695  17.974  0.00  0.00    +0.000 A 
ATOM     23  C   UNL     1      -0.853  10.252  18.305  0.00  0.00    +0.000 A 
ATOM     24  C   UNL     1      -1.216  10.295  19.640  0.00  0.00    +0.000 A 
ATOM     25  N   UNL     1      -0.433   9.835  20.640  0.00  0.00    +0.000 NA
ATOM     26  C   UNL     1       0.759   9.297  20.279  0.00  0.00    +0.000 A 
ENDBRANCH  19  21
ENDBRANCH   4  19
TORSDOF 2
ENDMDL
MODEL 6
REMARK VINA RESULT:      -7.7      1.532      1.869
REMARK  Name = 
REMARK  3 active torsions:
REMARK  status: ('A' for Active; 'I' for Inactive)
REMARK    1  A    between atoms: C_1  and  C_2
REMARK    2  A    between atoms: C_4  and  N_5
REMARK    3  A    between atoms: N_5  and  C_6
REMARK                            x       y       z     vdW  Elec       q    Type
REMARK                         _______ _______ _______ _____ _____    ______ ____
ROOT
ATOM      1  C   UNL     1       0.682   2.419  19.380  0.00  0.00    +0.000 C 
ATOM      2  C   UNL     1       1.607   3.598  19.422  0.00  0.00    +0.000 A 
ATOM      3  C   UNL     1       1.295   4.682  20.330  0.00  0.00    +0.000 A 
ATOM      4  C   UNL     1       2.040   5.803  20.419  0.00  0.00    +0.000 A 
ATOM      5  C   UNL     1       3.304   5.889  19.565  0.00  0.00    +0.000 A 
ATOM      6  O   UNL     1       4.029   6.876  19.657  0.00  0.00    +0.000 OA
ATOM      7  N   UNL     1       3.525   4.825  18.720  0.00  0.00    +0.000 N 
ATOM      8  C   UNL     1       2.702   3.720  18.664  0.00  0.00    +0.000 A 
ATOM      9  C   UNL     1       3.239   2.766  17.665  0.00  0.00    +0.000 C 
ATOM     10  O   UNL     1       2.787   1.689  17.333  0.00  0.00    +0.000 OA
ATOM     11  N   UNL     1       4.380   3.364  17.184  0.00  0.00    +0.000 N 
ATOM     12  C   UNL     1       4.644   4.670  17.772  0.00  0.00    +0.000 C 
ATOM     13  C   UNL     1       4.622   5.741  16.661  0.00  0.00    +0.000 C 
ATOM     14  C   UNL     1       5.794   5.589  15.687  0.00  0.00    +0.000 C 
ATOM     15  C   UNL     1       7.135   5.570  16.414  0.00  0.00    +0.000 C 
ATOM     16  C   UNL     1       7.176   4.502  17.504  0.00  0.00    +0.000 C 
ATOM     17  C   UNL     1       6.010   4.650  18.485  0.00  0.00    +0.000 C 
ATOM     18  H   UNL     1       4.942   2.912  16.476  0.00  0.00    +0.000 HD
ENDROOT
BRANCH   4  19
ATOM     19  N   UNL     1       1.761   6.881  21.248  0.00  0.00    +0.000 N 
ATOM     20  H   UNL     1       2.385   6.904  22.058  0.00  0.00    +0.000 HD
BRANCH  19  21
ATOM     21  C   UNL     1       1.441   8.183  20.795  0.00  0.00    +0.000 A 
ATOM     22  C   UNL     1       1.253   8.505  19.446  0.00  0.00    +0.000 A 
ATOM     23  C   UNL     1       0.889   9.796  19.067  0.00  0.00    +0.000 A 
ATOM     24  C   UNL     1       0.722  10.747  20.057  0.00  0.00    +0.000 A 
ATOM     25  N   UNL     1       0.904  10.495  21.372  0.00  0.00    +0.000 NA
ATOM     26  C   UNL     1       1.254   9.227  21.703  0.00  0.00    +0.000 A 
ENDBRANCH  19  21
ENDBRANCH   4  19
TORSDOF 2
ENDMDL
MODEL 7
REMARK VINA RESULT:      -7.5      2.055      3.808
REMARK  Name = 
REMARK  3 active torsions:
REMARK  status: ('A' for Active; 'I' for Inactive)
REMARK    1  A    between atoms: C_1  and  C_2
REMARK    2  A    between atoms: C_4  and  N_5
REMARK    3  A    between atoms: N_5  and  C_6
REMARK                            x       y       z     vdW  Elec       q    Type
REMARK                         _______ _______ _______ _____ _____    ______ ____
ROOT
ATOM      1  C   UNL     1       7.263   7.442  17.354  0.00  0.00    +0.000 C 
ATOM      2  C   UNL     1       5.862   6.953  17.565  0.00  0.00    +0.000 A 
ATOM      3  C   UNL     1       4.771   7.877  17.331  0.00  0.00    +0.000 A 
ATOM      4  C   UNL     1       3.477   7.549  17.526  0.00  0.00    +0.000 A 
ATOM      5  C   UNL     1       3.160   6.116  17.950  0.00  0.00    +0.000 A 
ATOM      6  O   UNL     1       1.989   5.773  18.090  0.00  0.00    +0.000 OA
ATOM      7  N   UNL     1       4.250   5.303  18.163  0.00  0.00    +0.000 N 
ATOM      8  C   UNL     1       5.551   5.716  17.968  0.00  0.00    +0.000 A 
ATOM      9  C   UNL     1       6.467   4.591  18.274  0.00  0.00    +0.000 C 
ATOM     10  O   UNL     1       7.680   4.574  18.226  0.00  0.00    +0.000 OA
ATOM     11  N   UNL     1       5.642   3.551  18.628  0.00  0.00    +0.000 N 
ATOM     12  C   UNL     1       4.227   3.896  18.605  0.00  0.00    +0.000 C 
ATOM     13  C   UNL     1       3.643   3.738  20.024  0.00  0.00    +0.000 C 
ATOM     14  C   UNL     1       3.605   2.275  20.475  0.00  0.00    +0.000 C 
ATOM     15  C   UNL     1       2.870   1.393  19.470  0.00  0.00    +0.000 C 
ATOM     16  C   UNL     1       3.451   1.527  18.065  0.00  0.00    +0.000 C 
ATOM     17  C   UNL     1       3.489   2.986  17.605  0.00  0.00    +0.000 C 
ATOM     18  H   UNL     1       6.025   2.653  18.890  0.00  0.00    +0.000 HD
ENDROOT
BRANCH   4  19
ATOM     19  N   UNL     1       2.403   8.410  17.349  0.00  0.00    +0.000 N 
ATOM     20  H   UNL     1       1.639   7.959  16.839  0.00  0.00    +0.000 HD
BRANCH  19  21
ATOM     21  C   UNL     1       1.919   9.308  18.331  0.00  0.00    +0.000 A 
ATOM     22  C   UNL     1       1.860  10.693  18.146  0.00  0.00    +0.000 A 
ATOM     23  C   UNL     1       1.326  11.520  19.132  0.00  0.00    +0.000 A 
ATOM     24  C   UNL     1       0.860  10.936  20.296  0.00  0.00    +0.000 A 
ATOM     25  N   UNL     1       0.905   9.607  20.533  0.00  0.00    +0.000 NA
ATOM     26  C   UNL     1       1.429   8.833  19.549  0.00  0.00    +0.000 A 
ENDBRANCH  19  21
ENDBRANCH   4  19
TORSDOF 2
ENDMDL
MODEL 8
REMARK VINA RESULT:      -7.5      2.206      4.273
REMARK  Name = 
REMARK  3 active torsions:
REMARK  status: ('A' for Active; 'I' for Inactive)
REMARK    1  A    between atoms: C_1  and  C_2
REMARK    2  A    between atoms: C_4  and  N_5
REMARK    3  A    between atoms: N_5  and  C_6
REMARK                            x       y       z     vdW  Elec       q    Type
REMARK                         _______ _______ _______ _____ _____    ______ ____
ROOT
ATOM      1  C   UNL     1       4.937   6.615  15.939  0.00  0.00    +0.000 C 
ATOM      2  C   UNL     1       3.994   6.680  17.103  0.00  0.00    +0.000 A 
ATOM      3  C   UNL     1       3.471   7.973  17.491  0.00  0.00    +0.000 A 
ATOM      4  C   UNL     1       2.645   8.146  18.543  0.00  0.00    +0.000 A 
ATOM      5  C   UNL     1       2.200   6.903  19.312  0.00  0.00    +0.000 A 
ATOM      6  O   UNL     1       1.412   7.021  20.247  0.00  0.00    +0.000 OA
ATOM      7  N   UNL     1       2.750   5.713  18.891  0.00  0.00    +0.000 N 
ATOM      8  C   UNL     1       3.611   5.616  17.818  0.00  0.00    +0.000 A 
ATOM      9  C   UNL     1       3.996   4.197  17.633  0.00  0.00    +0.000 C 
ATOM     10  O   UNL     1       4.742   3.721  16.801  0.00  0.00    +0.000 OA
ATOM     11  N   UNL     1       3.320   3.517  18.618  0.00  0.00    +0.000 N 
ATOM     12  C   UNL     1       2.517   4.379  19.474  0.00  0.00    +0.000 C 
ATOM     13  C   UNL     1       3.033   4.276  20.924  0.00  0.00    +0.000 C 
ATOM     14  C   UNL     1       2.775   2.895  21.534  0.00  0.00    +0.000 C 
ATOM     15  C   UNL     1       1.304   2.500  21.437  0.00  0.00    +0.000 C 
ATOM     16  C   UNL     1       0.787   2.580  20.004  0.00  0.00    +0.000 C 
ATOM     17  C   UNL     1       1.037   3.959  19.388  0.00  0.00    +0.000 C 
ATOM     18  H   UNL     1       3.415   2.515  18.713  0.00  0.00    +0.000 HD
ENDROOT
BRANCH   4  19
ATOM     19  N   UNL     1       2.147   9.368  18.972  0.00  0.00    +0.000 N 
ATOM     20  H   UNL     1       2.821  10.123  18.819  0.00  0.00    +0.000 HD
BRANCH  19  21
ATOM     21  C   UNL     1       0.815   9.807  18.782  0.00  0.00    +0.000 A 
ATOM     22  C   UNL     1       0.073   9.535  17.628  0.00  0.00    +0.000 A 
ATOM     23  C   UNL     1      -1.253   9.951  17.520  0.00  0.00    +0.000 A 
ATOM     24  C   UNL     1      -1.811  10.642  18.581  0.00  0.00    +0.000 A 
ATOM     25  N   UNL     1      -1.137  10.943  19.712  0.00  0.00    +0.000 NA
ATOM     26  C   UNL     1       0.150  10.518  19.782  0.00  0.00    +0.000 A 
ENDBRANCH  19  21
ENDBRANCH   4  19
TORSDOF 2
ENDMDL
MODEL 9
REMARK VINA RESULT:      -7.5      2.047      3.784
REMARK  Name = 
REMARK  3 active torsions:
REMARK  status: ('A' for Active; 'I' for Inactive)
REMARK    1  A    between atoms: C_1  and  C_2
REMARK    2  A    between atoms: C_4  and  N_5
REMARK    3  A    between atoms: N_5  and  C_6
REMARK                            x       y       z     vdW  Elec       q    Type
REMARK                         _______ _______ _______ _____ _____    ______ ____
ROOT
ATOM      1  C   UNL     1       7.117   7.336  17.378  0.00  0.00    +0.000 C 
ATOM      2  C   UNL     1       5.696   6.914  17.597  0.00  0.00    +0.000 A 
ATOM      3  C   UNL     1       4.645   7.873  17.324  0.00  0.00    +0.000 A 
ATOM      4  C   UNL     1       3.338   7.606  17.522  0.00  0.00    +0.000 A 
ATOM      5  C   UNL     1       2.960   6.203  17.993  0.00  0.00    +0.000 A 
ATOM      6  O   UNL     1       1.774   5.914  18.138  0.00  0.00    +0.000 OA
ATOM      7  N   UNL     1       4.013   5.353  18.242  0.00  0.00    +0.000 N 
ATOM      8  C   UNL     1       5.332   5.705  18.041  0.00  0.00    +0.000 A 
ATOM      9  C   UNL     1       6.199   4.555  18.392  0.00  0.00    +0.000 C 
ATOM     10  O   UNL     1       7.410   4.486  18.352  0.00  0.00    +0.000 OA
ATOM     11  N   UNL     1       5.329   3.563  18.776  0.00  0.00    +0.000 N 
ATOM     12  C   UNL     1       3.931   3.965  18.732  0.00  0.00    +0.000 C 
ATOM     13  C   UNL     1       3.333   3.882  20.152  0.00  0.00    +0.000 C 
ATOM     14  C   UNL     1       3.232   2.438  20.654  0.00  0.00    +0.000 C 
ATOM     15  C   UNL     1       2.466   1.552  19.675  0.00  0.00    +0.000 C 
ATOM     16  C   UNL     1       3.059   1.612  18.270  0.00  0.00    +0.000 C 
ATOM     17  C   UNL     1       3.160   3.052  17.760  0.00  0.00    +0.000 C 
ATOM     18  H   UNL     1       5.674   2.660  19.072  0.00  0.00    +0.000 HD
ENDROOT
BRANCH   4  19
ATOM     19  N   UNL     1       2.301   8.504  17.308  0.00  0.00    +0.000 N 
ATOM     20  H   UNL     1       1.527   8.070  16.798  0.00  0.00    +0.000 HD
BRANCH  19  21
ATOM     21  C   UNL     1       1.840   9.444  18.260  0.00  0.00    +0.000 A 
ATOM     22  C   UNL     1       1.193   9.084  19.447  0.00  0.00    +0.000 A 
ATOM     23  C   UNL     1       0.808  10.055  20.370  0.00  0.00    +0.000 A 
ATOM     24  C   UNL     1       1.080  11.380  20.080  0.00  0.00    +0.000 A 
ATOM     25  N   UNL     1       1.690  11.784  18.944  0.00  0.00    +0.000 NA
ATOM     26  C   UNL     1       2.054  10.811  18.071  0.00  0.00    +0.000 A 
ENDBRANCH  19  21
ENDBRANCH   4  19
TORSDOF 2
ENDMDL
