MODEL 1
REMARK VINA RESULT:      -6.4      0.000      0.000
REMARK  Name = 
REMARK  5 active torsions:
REMARK  status: ('A' for Active; 'I' for Inactive)
REMARK    1  A    between atoms: C_1  and  N_2
REMARK    2  A    between atoms: C_6  and  C_7
REMARK    3  A    between atoms: N_9  and  C_10
REMARK    4  A    between atoms: N_13  and  C_14
REMARK    5  A    between atoms: C_14  and  C_15
REMARK                            x       y       z     vdW  Elec       q    Type
REMARK                         _______ _______ _______ _____ _____    ______ ____
ROOT
ATOM      1  C   UNL     1       1.865   7.685  20.087  0.00  0.00    +0.000 C 
ATOM      2  C   UNL     1       1.688   6.201  20.435  0.00  0.00    +0.000 C 
ATOM      3  C   UNL     1       3.037   5.517  20.176  0.00  0.00    +0.000 C 
ATOM      4  N   UNL     1       3.537   5.689  18.795  0.00  0.00    +0.000 NA
ATOM      5  C   UNL     1       3.419   7.075  18.290  0.00  0.00    +0.000 C 
ATOM      6  C   UNL     1       2.063   7.728  18.572  0.00  0.00    +0.000 C 
ENDROOT
BRANCH   1   9
ATOM      7  C   UNL     1       1.056   9.248  21.790  0.00  0.00    +0.000 C 
ATOM      8  O   UNL     1       1.987   8.960  22.538  0.00  0.00    +0.000 OA
ATOM      9  N   UNL     1       0.841   8.593  20.582  0.00  0.00    +0.000 N 
ATOM     10  H   UNL     1       0.341   9.131  19.884  0.00  0.00    +0.000 HD
BRANCH   7  16
ATOM     11  C   UNL     1       1.124  12.159  20.647  0.00  0.00    +0.000 C 
ATOM     12  N   UNL     1       0.157  11.581  21.556  0.00  0.00    +0.000 N 
ATOM     13  N   UNL     1      -0.816  12.385  22.029  0.00  0.00    +0.000 NA
ATOM     14  C   UNL     1      -1.428  11.646  22.950  0.00  0.00    +0.000 A 
ATOM     15  C   UNL     1      -0.889  10.358  23.041  0.00  0.00    +0.000 A 
ATOM     16  C   UNL     1       0.144  10.315  22.123  0.00  0.00    +0.000 A 
ENDBRANCH   7  16
ENDBRANCH   1   9
BRANCH   4  17
ATOM     17  C   UNL     1       4.965   5.294  18.714  0.00  0.00    +0.000 C 
BRANCH  17  18
ATOM     18  C   UNL     1       5.504   5.051  17.320  0.00  0.00    +0.000 A 
ATOM     19  C   UNL     1       6.747   5.565  16.930  0.00  0.00    +0.000 A 
ATOM     20  C   UNL     1       7.287   5.246  15.680  0.00  0.00    +0.000 A 
ATOM     21  C   UNL     1       6.601   4.392  14.818  0.00  0.00    +0.000 A 
ATOM     22  C   UNL     1       5.355   3.889  15.186  0.00  0.00    +0.000 A 
ATOM     23  C   UNL     1       4.804   4.228  16.423  0.00  0.00    +0.000 A 
ENDBRANCH  17  18
ENDBRANCH   4  17
TORSDOF 4
ENDMDL
MODEL 2
REMARK VINA RESULT:      -6.4      3.340      4.996
REMARK  Name = 
REMARK  5 active torsions:
REMARK  status: ('A' for Active; 'I' for Inactive)
REMARK    1  A    between atoms: C_1  and  N_2
REMARK    2  A    between atoms: C_6  and  C_7
REMARK    3  A    between atoms: N_9  and  C_10
REMARK    4  A    between atoms: N_13  and  C_14
REMARK    5  A    between atoms: C_14  and  C_15
REMARK                            x       y       z     vdW  Elec       q    Type
REMARK                         _______ _______ _______ _____ _____    ______ ____
ROOT
ATOM      1  C   UNL     1       1.438  10.796  19.043  0.00  0.00    +0.000 C 
ATOM      2  C   UNL     1       0.513  10.069  20.027  0.00  0.00    +0.000 C 
ATOM      3  C   UNL     1       1.230   8.780  20.447  0.00  0.00    +0.000 C 
ATOM      4  N   UNL     1       1.598   7.906  19.312  0.00  0.00    +0.000 NA
ATOM      5  C   UNL     1       2.209   8.634  18.178  0.00  0.00    +0.000 C 
ATOM      6  C   UNL     1       1.471   9.919  17.792  0.00  0.00    +0.000 C 
ENDROOT
BRANCH   1   9
ATOM      7  C   UNL     1       1.726  13.166  19.588  0.00  0.00    +0.000 C 
ATOM      8  O   UNL     1       2.345  12.885  20.611  0.00  0.00    +0.000 OA
ATOM      9  N   UNL     1       1.137  12.196  18.784  0.00  0.00    +0.000 N 
ATOM     10  H   UNL     1       1.016  12.458  17.813  0.00  0.00    +0.000 HD
BRANCH   7  16
ATOM     11  C   UNL     1       3.912  14.830  18.092  0.00  0.00    +0.000 C 
ATOM     12  N   UNL     1       2.565  15.233  18.435  0.00  0.00    +0.000 N 
ATOM     13  N   UNL     1       2.193  16.494  18.134  0.00  0.00    +0.000 NA
ATOM     14  C   UNL     1       1.002  16.626  18.711  0.00  0.00    +0.000 A 
ATOM     15  C   UNL     1       0.582  15.449  19.339  0.00  0.00    +0.000 A 
ATOM     16  C   UNL     1       1.603  14.535  19.152  0.00  0.00    +0.000 A 
ENDBRANCH   7  16
ENDBRANCH   1   9
BRANCH   4  17
ATOM     17  C   UNL     1       2.558   6.865  19.756  0.00  0.00    +0.000 C 
BRANCH  17  18
ATOM     18  C   UNL     1       2.092   5.432  19.609  0.00  0.00    +0.000 A 
ATOM     19  C   UNL     1       1.620   4.712  20.713  0.00  0.00    +0.000 A 
ATOM     20  C   UNL     1       1.091   3.428  20.549  0.00  0.00    +0.000 A 
ATOM     21  C   UNL     1       1.007   2.862  19.279  0.00  0.00    +0.000 A 
ATOM     22  C   UNL     1       1.490   3.559  18.175  0.00  0.00    +0.000 A 
ATOM     23  C   UNL     1       2.042   4.831  18.341  0.00  0.00    +0.000 A 
ENDBRANCH  17  18
ENDBRANCH   4  17
TORSDOF 4
ENDMDL
MODEL 3
REMARK VINA RESULT:      -6.4      5.445      6.761
REMARK  Name = 
REMARK  5 active torsions:
REMARK  status: ('A' for Active; 'I' for Inactive)
REMARK    1  A    between atoms: C_1  and  N_2
REMARK    2  A    between atoms: C_6  and  C_7
REMARK    3  A    between atoms: N_9  and  C_10
REMARK    4  A    between atoms: N_13  and  C_14
REMARK    5  A    between atoms: C_14  and  C_15
REMARK                            x       y       z     vdW  Elec       q    Type
REMARK                         _______ _______ _______ _____ _____    ______ ____
ROOT
ATOM      1  C   UNL     1       4.995   4.782  17.052  0.00  0.00    +0.000 C 
ATOM      2  C   UNL     1       4.962   6.157  16.372  0.00  0.00    +0.000 C 
ATOM      3  C   UNL     1       5.640   5.996  15.005  0.00  0.00    +0.000 C 
ATOM      4  N   UNL     1       7.020   5.468  15.083  0.00  0.00    +0.000 NA
ATOM      5  C   UNL     1       7.164   4.320  16.004  0.00  0.00    +0.000 C 
ATOM      6  C   UNL     1       6.468   4.512  17.355  0.00  0.00    +0.000 C 
ENDROOT
BRANCH   1   9
ATOM      7  C   UNL     1       3.315   3.461  18.249  0.00  0.00    +0.000 C 
ATOM      8  O   UNL     1       3.202   2.691  17.298  0.00  0.00    +0.000 OA
ATOM      9  N   UNL     1       4.108   4.602  18.192  0.00  0.00    +0.000 N 
ATOM     10  H   UNL     1       4.452   4.932  19.086  0.00  0.00    +0.000 HD
BRANCH   7  16
ATOM     11  C   UNL     1       4.528   1.986  20.726  0.00  0.00    +0.000 C 
ATOM     12  N   UNL     1       3.220   2.595  20.604  0.00  0.00    +0.000 N 
ATOM     13  N   UNL     1       2.378   2.485  21.650  0.00  0.00    +0.000 NA
ATOM     14  C   UNL     1       1.228   2.971  21.193  0.00  0.00    +0.000 A 
ATOM     15  C   UNL     1       1.334   3.438  19.878  0.00  0.00    +0.000 A 
ATOM     16  C   UNL     1       2.641   3.198  19.496  0.00  0.00    +0.000 A 
ENDBRANCH   7  16
ENDBRANCH   1   9
BRANCH   4  17
ATOM     17  C   UNL     1       7.480   5.037  13.740  0.00  0.00    +0.000 C 
BRANCH  17  18
ATOM     18  C   UNL     1       6.573   4.067  13.012  0.00  0.00    +0.000 A 
ATOM     19  C   UNL     1       5.179   4.189  13.088  0.00  0.00    +0.000 A 
ATOM     20  C   UNL     1       4.352   3.359  12.327  0.00  0.00    +0.000 A 
ATOM     21  C   UNL     1       4.908   2.415  11.465  0.00  0.00    +0.000 A 
ATOM     22  C   UNL     1       6.291   2.270  11.393  0.00  0.00    +0.000 A 
ATOM     23  C   UNL     1       7.118   3.082  12.173  0.00  0.00    +0.000 A 
ENDBRANCH  17  18
ENDBRANCH   4  17
TORSDOF 4
ENDMDL
MODEL 4
REMARK VINA RESULT:      -6.3      0.342      1.080
REMARK  Name = 
REMARK  5 active torsions:
REMARK  status: ('A' for Active; 'I' for Inactive)
REMARK    1  A    between atoms: C_1  and  N_2
REMARK    2  A    between atoms: C_6  and  C_7
REMARK    3  A    between atoms: N_9  and  C_10
REMARK    4  A    between atoms: N_13  and  C_14
REMARK    5  A    between atoms: C_14  and  C_15
REMARK                            x       y       z     vdW  Elec       q    Type
REMARK                         _______ _______ _______ _____ _____    ______ ____
ROOT
ATOM      1  C   UNL     1       2.033   7.853  19.763  0.00  0.00    +0.000 C 
ATOM      2  C   UNL     1       1.866   6.362  20.082  0.00  0.00    +0.000 C 
ATOM      3  C   UNL     1       3.222   5.694  19.822  0.00  0.00    +0.000 C 
ATOM      4  N   UNL     1       3.733   5.896  18.448  0.00  0.00    +0.000 NA
ATOM      5  C   UNL     1       3.606   7.290  17.968  0.00  0.00    +0.000 C 
ATOM      6  C   UNL     1       2.243   7.926  18.252  0.00  0.00    +0.000 C 
ENDROOT
BRANCH   1   9
ATOM      7  C   UNL     1       1.085   9.196  21.578  0.00  0.00    +0.000 C 
ATOM      8  O   UNL     1       1.898   8.740  22.379  0.00  0.00    +0.000 OA
ATOM      9  N   UNL     1       0.997   8.743  20.267  0.00  0.00    +0.000 N 
ATOM     10  H   UNL     1       0.616   9.410  19.606  0.00  0.00    +0.000 HD
BRANCH   7  16
ATOM     11  C   UNL     1       1.124  12.127  20.485  0.00  0.00    +0.000 C 
ATOM     12  N   UNL     1       0.186  11.535  21.417  0.00  0.00    +0.000 N 
ATOM     13  N   UNL     1      -0.768  12.334  21.936  0.00  0.00    +0.000 NA
ATOM     14  C   UNL     1      -1.350  11.580  22.864  0.00  0.00    +0.000 A 
ATOM     15  C   UNL     1      -0.813  10.289  22.914  0.00  0.00    +0.000 A 
ATOM     16  C   UNL     1       0.189  10.259  21.961  0.00  0.00    +0.000 A 
ENDBRANCH   7  16
ENDBRANCH   1   9
BRANCH   4  17
ATOM     17  C   UNL     1       5.165   5.514  18.372  0.00  0.00    +0.000 C 
BRANCH  17  18
ATOM     18  C   UNL     1       5.646   5.024  17.022  0.00  0.00    +0.000 A 
ATOM     19  C   UNL     1       4.809   4.270  16.190  0.00  0.00    +0.000 A 
ATOM     20  C   UNL     1       5.222   3.915  14.903  0.00  0.00    +0.000 A 
ATOM     21  C   UNL     1       6.465   4.329  14.426  0.00  0.00    +0.000 A 
ATOM     22  C   UNL     1       7.314   5.063  15.249  0.00  0.00    +0.000 A 
ATOM     23  C   UNL     1       6.913   5.396  16.545  0.00  0.00    +0.000 A 
ENDBRANCH  17  18
ENDBRANCH   4  17
TORSDOF 4
ENDMDL
MODEL 5
REMARK VINA RESULT:      -6.3      3.328      4.833
REMARK  Name = 
REMARK  5 active torsions:
REMARK  status: ('A' for Active; 'I' for Inactive)
REMARK    1  A    between atoms: C_1  and  N_2
REMARK    2  A    between atoms: C_6  and  C_7
REMARK    3  A    between atoms: N_9  and  C_10
REMARK    4  A    between atoms: N_13  and  C_14
REMARK    5  A    between atoms: C_14  and  C_15
REMARK                            x       y       z     vdW  Elec       q    Type
REMARK                         _______ _______ _______ _____ _____    ______ ____
ROOT
ATOM      1  C   UNL     1       1.442  10.611  19.128  0.00  0.00    +0.000 C 
ATOM      2  C   UNL     1       0.507   9.866  20.090  0.00  0.00    +0.000 C 
ATOM      3  C   UNL     1       1.215   8.563  20.482  0.00  0.00    +0.000 C 
ATOM      4  N   UNL     1       1.584   7.715  19.328  0.00  0.00    +0.000 NA
ATOM      5  C   UNL     1       2.206   8.466  18.215  0.00  0.00    +0.000 C 
ATOM      6  C   UNL     1       1.477   9.765  17.856  0.00  0.00    +0.000 C 
ENDROOT
BRANCH   1   9
ATOM      7  C   UNL     1       1.598  12.952  19.830  0.00  0.00    +0.000 C 
ATOM      8  O   UNL     1       2.072  12.626  20.915  0.00  0.00    +0.000 OA
ATOM      9  N   UNL     1       1.150  12.019  18.902  0.00  0.00    +0.000 N 
ATOM     10  H   UNL     1       1.161  12.331  17.937  0.00  0.00    +0.000 HD
BRANCH   7  16
ATOM     11  C   UNL     1       3.797  14.606  18.341  0.00  0.00    +0.000 C 
ATOM     12  N   UNL     1       2.472  15.037  18.737  0.00  0.00    +0.000 N 
ATOM     13  N   UNL     1       2.134  16.320  18.496  0.00  0.00    +0.000 NA
ATOM     14  C   UNL     1       0.963  16.466  19.110  0.00  0.00    +0.000 A 
ATOM     15  C   UNL     1       0.522  15.278  19.703  0.00  0.00    +0.000 A 
ATOM     16  C   UNL     1       1.508  14.341  19.452  0.00  0.00    +0.000 A 
ENDBRANCH   7  16
ENDBRANCH   1   9
BRANCH   4  17
ATOM     17  C   UNL     1       2.536   6.658  19.753  0.00  0.00    +0.000 C 
BRANCH  17  18
ATOM     18  C   UNL     1       2.032   5.234  19.645  0.00  0.00    +0.000 A 
ATOM     19  C   UNL     1       1.998   4.574  18.411  0.00  0.00    +0.000 A 
ATOM     20  C   UNL     1       1.635   3.226  18.337  0.00  0.00    +0.000 A 
ATOM     21  C   UNL     1       1.326   2.519  19.498  0.00  0.00    +0.000 A 
ATOM     22  C   UNL     1       1.339   3.168  20.730  0.00  0.00    +0.000 A 
ATOM     23  C   UNL     1       1.676   4.521  20.801  0.00  0.00    +0.000 A 
ENDBRANCH  17  18
ENDBRANCH   4  17
TORSDOF 4
ENDMDL
MODEL 6
REMARK VINA RESULT:      -6.3      3.246      4.758
REMARK  Name = 
REMARK  5 active torsions:
REMARK  status: ('A' for Active; 'I' for Inactive)
REMARK    1  A    between atoms: C_1  and  N_2
REMARK    2  A    between atoms: C_6  and  C_7
REMARK    3  A    between atoms: N_9  and  C_10
REMARK    4  A    between atoms: N_13  and  C_14
REMARK    5  A    between atoms: C_14  and  C_15
REMARK                            x       y       z     vdW  Elec       q    Type
REMARK                         _______ _______ _______ _____ _____    ______ ____
ROOT
ATOM      1  C   UNL     1       1.228  10.696  19.344  0.00  0.00    +0.000 C 
ATOM      2  C   UNL     1       0.427   9.870  20.359  0.00  0.00    +0.000 C 
ATOM      3  C   UNL     1       1.232   8.593  20.631  0.00  0.00    +0.000 C 
ATOM      4  N   UNL     1       1.531   7.806  19.415  0.00  0.00    +0.000 NA
ATOM      5  C   UNL     1       2.005   8.628  18.279  0.00  0.00    +0.000 C 
ATOM      6  C   UNL     1       1.183   9.898  18.042  0.00  0.00    +0.000 C 
ENDROOT
BRANCH   1   9
ATOM      7  C   UNL     1       1.421  13.033  20.052  0.00  0.00    +0.000 C 
ATOM      8  O   UNL     1       2.097  12.712  21.027  0.00  0.00    +0.000 OA
ATOM      9  N   UNL     1       0.848  12.094  19.202  0.00  0.00    +0.000 N 
ATOM     10  H   UNL     1       0.672  12.418  18.258  0.00  0.00    +0.000 HD
BRANCH   7  16
ATOM     11  C   UNL     1      -1.148  14.707  20.666  0.00  0.00    +0.000 C 
ATOM     12  N   UNL     1       0.087  15.160  20.062  0.00  0.00    +0.000 N 
ATOM     13  N   UNL     1       0.151  16.443  19.655  0.00  0.00    +0.000 NA
ATOM     14  C   UNL     1       1.306  16.518  19.000  0.00  0.00    +0.000 A 
ATOM     15  C   UNL     1       2.009  15.308  19.022  0.00  0.00    +0.000 A 
ATOM     16  C   UNL     1       1.213  14.421  19.724  0.00  0.00    +0.000 A 
ENDBRANCH   7  16
ENDBRANCH   1   9
BRANCH   4  17
ATOM     17  C   UNL     1       2.569   6.787  19.706  0.00  0.00    +0.000 C 
BRANCH  17  18
ATOM     18  C   UNL     1       2.119   5.343  19.623  0.00  0.00    +0.000 A 
ATOM     19  C   UNL     1       1.706   4.651  20.768  0.00  0.00    +0.000 A 
ATOM     20  C   UNL     1       1.189   3.356  20.666  0.00  0.00    +0.000 A 
ATOM     21  C   UNL     1       1.058   2.750  19.418  0.00  0.00    +0.000 A 
ATOM     22  C   UNL     1       1.481   3.419  18.273  0.00  0.00    +0.000 A 
ATOM     23  C   UNL     1       2.022   4.703  18.377  0.00  0.00    +0.000 A 
ENDBRANCH  17  18
ENDBRANCH   4  17
TORSDOF 4
ENDMDL
MODEL 7
REMARK VINA RESULT:      -6.3      5.820      8.161
REMARK  Name = 
REMARK  5 active torsions:
REMARK  status: ('A' for Active; 'I' for Inactive)
REMARK    1  A    between atoms: C_1  and  N_2
REMARK    2  A    between atoms: C_6  and  C_7
REMARK    3  A    between atoms: N_9  and  C_10
REMARK    4  A    between atoms: N_13  and  C_14
REMARK    5  A    between atoms: C_14  and  C_15
REMARK                            x       y       z     vdW  Elec       q    Type
REMARK                         _______ _______ _______ _____ _____    ______ ____
ROOT
ATOM      1  C   UNL     1       6.844   6.097  18.478  0.00  0.00    +0.000 C 
ATOM      2  C   UNL     1       8.257   6.346  19.023  0.00  0.00    +0.000 C 
ATOM      3  C   UNL     1       8.444   7.867  19.104  0.00  0.00    +0.000 C 
ATOM      4  N   UNL     1       8.235   8.562  17.815  0.00  0.00    +0.000 NA
ATOM      5  C   UNL     1       7.032   8.106  17.084  0.00  0.00    +0.000 C 
ATOM      6  C   UNL     1       6.874   6.583  17.030  0.00  0.00    +0.000 C 
ENDROOT
BRANCH   1   9
ATOM      7  C   UNL     1       5.022   4.600  19.140  0.00  0.00    +0.000 C 
ATOM      8  O   UNL     1       4.380   5.540  19.604  0.00  0.00    +0.000 OA
ATOM      9  N   UNL     1       6.313   4.752  18.647  0.00  0.00    +0.000 N 
ATOM     10  H   UNL     1       6.591   4.068  17.952  0.00  0.00    +0.000 HD
BRANCH   7  16
ATOM     11  C   UNL     1       2.935   3.622  17.026  0.00  0.00    +0.000 C 
ATOM     12  N   UNL     1       3.568   2.852  18.076  0.00  0.00    +0.000 N 
ATOM     13  N   UNL     1       3.193   1.565  18.220  0.00  0.00    +0.000 NA
ATOM     14  C   UNL     1       3.793   1.177  19.342  0.00  0.00    +0.000 A 
ATOM     15  C   UNL     1       4.589   2.187  19.895  0.00  0.00    +0.000 A 
ATOM     16  C   UNL     1       4.446   3.281  19.061  0.00  0.00    +0.000 A 
ENDBRANCH   7  16
ENDBRANCH   1   9
BRANCH   4  17
ATOM     17  C   UNL     1       8.108  10.024  18.036  0.00  0.00    +0.000 C 
BRANCH  17  18
ATOM     18  C   UNL     1       9.336  10.717  18.588  0.00  0.00    +0.000 A 
ATOM     19  C   UNL     1       9.470  10.957  19.961  0.00  0.00    +0.000 A 
ATOM     20  C   UNL     1      10.652  11.498  20.475  0.00  0.00    +0.000 A 
ATOM     21  C   UNL     1      11.720  11.781  19.625  0.00  0.00    +0.000 A 
ATOM     22  C   UNL     1      11.594  11.564  18.255  0.00  0.00    +0.000 A 
ATOM     23  C   UNL     1      10.403  11.048  17.739  0.00  0.00    +0.000 A 
ENDBRANCH  17  18
ENDBRANCH   4  17
TORSDOF 4
ENDMDL
MODEL 8
REMARK VINA RESULT:      -6.2      1.656      2.125
REMARK  Name = 
REMARK  5 active torsions:
REMARK  status: ('A' for Active; 'I' for Inactive)
REMARK    1  A    between atoms: C_1  and  N_2
REMARK    2  A    between atoms: C_6  and  C_7
REMARK    3  A    between atoms: N_9  and  C_10
REMARK    4  A    between atoms: N_13  and  C_14
REMARK    5  A    between atoms: C_14  and  C_15
REMARK                            x       y       z     vdW  Elec       q    Type
REMARK                         _______ _______ _______ _____ _____    ______ ____
ROOT
ATOM      1  C   UNL     1       2.233   5.662  20.144  0.00  0.00    +0.000 C 
ATOM      2  C   UNL     1       2.411   4.290  20.809  0.00  0.00    +0.000 C 
ATOM      3  C   UNL     1       3.384   3.491  19.932  0.00  0.00    +0.000 C 
ATOM      4  N   UNL     1       2.944   3.354  18.526  0.00  0.00    +0.000 NA
ATOM      5  C   UNL     1       2.444   4.616  17.936  0.00  0.00    +0.000 C 
ATOM      6  C   UNL     1       1.482   5.390  18.842  0.00  0.00    +0.000 C 
ENDROOT
BRANCH   1   9
ATOM      7  C   UNL     1       1.579   8.001  20.460  0.00  0.00    +0.000 C 
ATOM      8  O   UNL     1       2.155   8.331  19.426  0.00  0.00    +0.000 OA
ATOM      9  N   UNL     1       1.644   6.708  20.967  0.00  0.00    +0.000 N 
ATOM     10  H   UNL     1       0.860   6.435  21.549  0.00  0.00    +0.000 HD
BRANCH   7  16
ATOM     11  C   UNL     1      -0.349  10.130  19.222  0.00  0.00    +0.000 C 
ATOM     12  N   UNL     1      -0.120   9.843  20.622  0.00  0.00    +0.000 N 
ATOM     13  N   UNL     1      -0.761  10.605  21.530  0.00  0.00    +0.000 NA
ATOM     14  C   UNL     1      -0.233  10.235  22.694  0.00  0.00    +0.000 A 
ATOM     15  C   UNL     1       0.707   9.209  22.548  0.00  0.00    +0.000 A 
ATOM     16  C   UNL     1       0.776   8.948  21.192  0.00  0.00    +0.000 A 
ENDBRANCH   7  16
ENDBRANCH   1   9
BRANCH   4  17
ATOM     17  C   UNL     1       4.065   2.869  17.683  0.00  0.00    +0.000 C 
BRANCH  17  18
ATOM     18  C   UNL     1       5.050   3.924  17.225  0.00  0.00    +0.000 A 
ATOM     19  C   UNL     1       5.992   4.463  18.111  0.00  0.00    +0.000 A 
ATOM     20  C   UNL     1       6.967   5.355  17.654  0.00  0.00    +0.000 A 
ATOM     21  C   UNL     1       7.025   5.698  16.305  0.00  0.00    +0.000 A 
ATOM     22  C   UNL     1       6.085   5.184  15.416  0.00  0.00    +0.000 A 
ATOM     23  C   UNL     1       5.094   4.313  15.877  0.00  0.00    +0.000 A 
ENDBRANCH  17  18
ENDBRANCH   4  17
TORSDOF 4
ENDMDL
MODEL 9
REMARK VINA RESULT:      -6.2      5.461      6.878
REMARK  Name = 
REMARK  5 active torsions:
REMARK  status: ('A' for Active; 'I' for Inactive)
REMARK    1  A    between atoms: C_1  and  N_2
REMARK    2  A    between atoms: C_6  and  C_7
REMARK    3  A    between atoms: N_9  and  C_10
REMARK    4  A    between atoms: N_13  and  C_14
REMARK    5  A    between atoms: C_14  and  C_15
REMARK                            x       y       z     vdW  Elec       q    Type
REMARK                         _______ _______ _______ _____ _____    ______ ____
ROOT
ATOM      1  C   UNL     1       4.845   4.765  16.615  0.00  0.00    +0.000 C 
ATOM      2  C   UNL     1       5.738   6.010  16.532  0.00  0.00    +0.000 C 
ATOM      3  C   UNL     1       6.143   6.173  15.062  0.00  0.00    +0.000 C 
ATOM      4  N   UNL     1       6.822   4.987  14.495  0.00  0.00    +0.000 NA
ATOM      5  C   UNL     1       6.161   3.708  14.835  0.00  0.00    +0.000 C 
ATOM      6  C   UNL     1       5.764   3.583  16.309  0.00  0.00    +0.000 C 
ENDROOT
BRANCH   1   9
ATOM      7  C   UNL     1       2.969   3.747  17.816  0.00  0.00    +0.000 C 
ATOM      8  O   UNL     1       2.540   3.245  16.780  0.00  0.00    +0.000 OA
ATOM      9  N   UNL     1       4.058   4.612  17.830  0.00  0.00    +0.000 N 
ATOM     10  H   UNL     1       4.569   4.647  18.704  0.00  0.00    +0.000 HD
BRANCH   7  16
ATOM     11  C   UNL     1       4.343   2.226  20.180  0.00  0.00    +0.000 C 
ATOM     12  N   UNL     1       3.020   2.813  20.147  0.00  0.00    +0.000 N 
ATOM     13  N   UNL     1       2.239   2.656  21.234  0.00  0.00    +0.000 NA
ATOM     14  C   UNL     1       1.057   3.133  20.855  0.00  0.00    +0.000 A 
ATOM     15  C   UNL     1       1.082   3.638  19.550  0.00  0.00    +0.000 A 
ATOM     16  C   UNL     1       2.370   3.435  19.090  0.00  0.00    +0.000 A 
ENDBRANCH   7  16
ENDBRANCH   1   9
BRANCH   4  17
ATOM     17  C   UNL     1       6.883   5.090  13.016  0.00  0.00    +0.000 C 
BRANCH  17  18
ATOM     18  C   UNL     1       6.522   3.834  12.252  0.00  0.00    +0.000 A 
ATOM     19  C   UNL     1       7.514   2.948  11.813  0.00  0.00    +0.000 A 
ATOM     20  C   UNL     1       7.167   1.738  11.205  0.00  0.00    +0.000 A 
ATOM     21  C   UNL     1       5.825   1.391  11.051  0.00  0.00    +0.000 A 
ATOM     22  C   UNL     1       4.829   2.271  11.465  0.00  0.00    +0.000 A 
ATOM     23  C   UNL     1       5.176   3.492  12.049  0.00  0.00    +0.000 A 
ENDBRANCH  17  18
ENDBRANCH   4  17
TORSDOF 4
ENDMDL
