MODEL 1
REMARK VINA RESULT:      -5.3      0.000      0.000
REMARK  Name = 
REMARK  11 active torsions:
REMARK  status: ('A' for Active; 'I' for Inactive)
REMARK    1  A    between atoms: C_1  and  C_2
REMARK    2  A    between atoms: C_2  and  C_3
REMARK    3  A    between atoms: C_2  and  S_4
REMARK    4  A    between atoms: S_4  and  C_5
REMARK    5  A    between atoms: C_6  and  S_7
REMARK    6  A    between atoms: S_7  and  C_8
REMARK    7  A    between atoms: C_8  and  C_9
REMARK    8  A    between atoms: C_8  and  C_10
REMARK    9  A    between atoms: C_18  and  C_19
REMARK   10  A    between atoms: C_19  and  O_21
REMARK   11  A    between atoms: N_29  and  C_30
REMARK                            x       y       z     vdW  Elec       q    Type
REMARK                         _______ _______ _______ _____ _____    ______ ____
ROOT
ATOM      1  C   UNL     1       7.510  14.505  21.635  0.00  0.00    +0.000 C 
ATOM      2  C   UNL     1       7.610  14.654  22.961  0.00  0.00    +0.000 C 
ATOM      3  C   UNL     1       8.883  15.344  23.359  0.00  0.00    +0.000 C 
ATOM      4  O   UNL     1       9.329  15.397  24.490  0.00  0.00    +0.000 OA
ATOM      5  C   UNL     1       9.695  15.845  22.206  0.00  0.00    +0.000 C 
ATOM      6  C   UNL     1      10.047  14.762  21.483  0.00  0.00    +0.000 C 
ATOM      7  C   UNL     1      11.385  14.815  20.784  0.00  0.00    +0.000 C 
ATOM      8  C   UNL     1      11.537  16.066  19.885  0.00  0.00    +0.000 C 
ATOM      9  C   UNL     1      11.419  15.808  18.314  0.00  0.00    +0.000 C 
ATOM     10  C   UNL     1      10.327  14.776  18.028  0.00  0.00    +0.000 C 
ATOM     11  C   UNL     1       9.085  15.591  17.667  0.00  0.00    +0.000 C 
ATOM     12  C   UNL     1       9.464  17.051  18.063  0.00  0.00    +0.000 C 
ATOM     13  C   UNL     1       9.379  17.221  19.633  0.00  0.00    +0.000 C 
ATOM     14  O   UNL     1       8.790  18.389  20.186  0.00  0.00    +0.000 OA
ATOM     15  C   UNL     1       9.335  18.443  21.554  0.00  0.00    +0.000 C 
ATOM     16  C   UNL     1      10.255  17.200  21.786  0.00  0.00    +0.000 C 
ATOM     17  N   UNL     1      10.654  17.128  20.357  0.00  0.00    +0.000 NA
ATOM     18  N   UNL     1      10.846  16.950  17.554  0.00  0.00    +0.000 NA
ATOM     19  C   UNL     1      11.571  18.201  17.569  0.00  0.00    +0.000 C 
ATOM     20  C   UNL     1       8.805  14.035  21.018  0.00  0.00    +0.000 C 
ATOM     21  O   UNL     1       8.836  13.168  20.152  0.00  0.00    +0.000 OA
ENDROOT
BRANCH  10  22
ATOM     22  C   UNL     1      10.659  13.649  17.085  0.00  0.00    +0.000 C 
ATOM     23  O   UNL     1      10.431  12.465  17.270  0.00  0.00    +0.000 OA
BRANCH  22  24
ATOM     24  O   UNL     1      11.152  14.121  15.906  0.00  0.00    +0.000 OA
ATOM     25  H   UNL     1      10.535  14.719  15.428  0.00  0.00    +0.000 HD
ENDBRANCH  22  24
ENDBRANCH  10  22
BRANCH   1  26
ATOM     26  S   UNL     1       6.055  14.722  20.704  0.00  0.00    +0.000 S 
BRANCH  26  28
ATOM     27  C   UNL     1       5.565  17.194  19.401  0.00  0.00    +0.000 C 
ATOM     28  C   UNL     1       5.848  16.590  20.766  0.00  0.00    +0.000 C 
ATOM     29  C   UNL     1       4.728  17.030  21.703  0.00  0.00    +0.000 C 
ENDBRANCH  26  28
ENDBRANCH   1  26
BRANCH   2  30
ATOM     30  S   UNL     1       6.497  13.827  23.970  0.00  0.00    +0.000 S 
BRANCH  30  31
ATOM     31  C   UNL     1       6.722  12.058  23.803  0.00  0.00    +0.000 C 
ATOM     32  C   UNL     1       8.186  11.654  23.832  0.00  0.00    +0.000 C 
ATOM     33  C   UNL     1       5.991  11.439  25.004  0.00  0.00    +0.000 C 
ENDBRANCH  30  31
ENDBRANCH   2  30
TORSDOF 6
ENDMDL
MODEL 2
REMARK VINA RESULT:      -5.2      8.125     10.205
REMARK  Name = 
REMARK  11 active torsions:
REMARK  status: ('A' for Active; 'I' for Inactive)
REMARK    1  A    between atoms: C_1  and  C_2
REMARK    2  A    between atoms: C_2  and  C_3
REMARK    3  A    between atoms: C_2  and  S_4
REMARK    4  A    between atoms: S_4  and  C_5
REMARK    5  A    between atoms: C_6  and  S_7
REMARK    6  A    between atoms: S_7  and  C_8
REMARK    7  A    between atoms: C_8  and  C_9
REMARK    8  A    between atoms: C_8  and  C_10
REMARK    9  A    between atoms: C_18  and  C_19
REMARK   10  A    between atoms: C_19  and  O_21
REMARK   11  A    between atoms: N_29  and  C_30
REMARK                            x       y       z     vdW  Elec       q    Type
REMARK                         _______ _______ _______ _____ _____    ______ ____
ROOT
ATOM      1  C   UNL     1      -0.305  12.108  19.505  0.00  0.00    +0.000 C 
ATOM      2  C   UNL     1      -0.355  11.165  20.454  0.00  0.00    +0.000 C 
ATOM      3  C   UNL     1      -0.255  11.746  21.834  0.00  0.00    +0.000 C 
ATOM      4  O   UNL     1      -0.043  11.110  22.851  0.00  0.00    +0.000 OA
ATOM      5  C   UNL     1      -0.267  13.242  21.873  0.00  0.00    +0.000 C 
ATOM      6  C   UNL     1       0.825  13.653  21.196  0.00  0.00    +0.000 C 
ATOM      7  C   UNL     1       1.480  14.930  21.671  0.00  0.00    +0.000 C 
ATOM      8  C   UNL     1       0.486  16.114  21.750  0.00  0.00    +0.000 C 
ATOM      9  C   UNL     1       0.614  17.205  20.591  0.00  0.00    +0.000 C 
ATOM     10  C   UNL     1       0.903  16.524  19.253  0.00  0.00    +0.000 C 
ATOM     11  C   UNL     1      -0.455  16.407  18.559  0.00  0.00    +0.000 C 
ATOM     12  C   UNL     1      -1.482  16.760  19.677  0.00  0.00    +0.000 C 
ATOM     13  C   UNL     1      -1.645  15.534  20.663  0.00  0.00    +0.000 C 
ATOM     14  O   UNL     1      -2.937  15.158  21.116  0.00  0.00    +0.000 OA
ATOM     15  C   UNL     1      -2.669  14.388  22.343  0.00  0.00    +0.000 C 
ATOM     16  C   UNL     1      -1.123  14.299  22.563  0.00  0.00    +0.000 C 
ATOM     17  N   UNL     1      -0.875  15.611  21.912  0.00  0.00    +0.000 NA
ATOM     18  N   UNL     1      -0.670  17.861  20.232  0.00  0.00    +0.000 NA
ATOM     19  C   UNL     1      -1.343  18.631  21.254  0.00  0.00    +0.000 C 
ATOM     20  C   UNL     1       0.771  13.131  19.778  0.00  0.00    +0.000 C 
ATOM     21  O   UNL     1       1.507  13.553  18.892  0.00  0.00    +0.000 OA
ENDROOT
BRANCH  10  22
ATOM     22  C   UNL     1       2.017  17.084  18.408  0.00  0.00    +0.000 C 
ATOM     23  O   UNL     1       2.973  16.462  17.974  0.00  0.00    +0.000 OA
BRANCH  22  24
ATOM     24  O   UNL     1       1.774  18.379  18.067  0.00  0.00    +0.000 OA
ATOM     25  H   UNL     1       1.996  19.025  18.773  0.00  0.00    +0.000 HD
ENDBRANCH  22  24
ENDBRANCH  10  22
BRANCH   1  26
ATOM     26  S   UNL     1      -1.278  12.137  18.062  0.00  0.00    +0.000 S 
BRANCH  26  28
ATOM     27  C   UNL     1      -3.841  12.223  19.275  0.00  0.00    +0.000 C 
ATOM     28  C   UNL     1      -2.840  11.268  18.649  0.00  0.00    +0.000 C 
ATOM     29  C   UNL     1      -3.557  10.522  17.527  0.00  0.00    +0.000 C 
ENDBRANCH  26  28
ENDBRANCH   1  26
BRANCH   2  30
ATOM     30  S   UNL     1      -0.230   9.520  19.988  0.00  0.00    +0.000 S 
BRANCH  30  31
ATOM     31  C   UNL     1       1.457   9.148  19.515  0.00  0.00    +0.000 C 
ATOM     32  C   UNL     1       1.882   7.751  19.931  0.00  0.00    +0.000 C 
ATOM     33  C   UNL     1       1.486   9.262  17.983  0.00  0.00    +0.000 C 
ENDBRANCH  30  31
ENDBRANCH   2  30
TORSDOF 6
ENDMDL
MODEL 3
REMARK VINA RESULT:      -5.1     10.235     12.849
REMARK  Name = 
REMARK  11 active torsions:
REMARK  status: ('A' for Active; 'I' for Inactive)
REMARK    1  A    between atoms: C_1  and  C_2
REMARK    2  A    between atoms: C_2  and  C_3
REMARK    3  A    between atoms: C_2  and  S_4
REMARK    4  A    between atoms: S_4  and  C_5
REMARK    5  A    between atoms: C_6  and  S_7
REMARK    6  A    between atoms: S_7  and  C_8
REMARK    7  A    between atoms: C_8  and  C_9
REMARK    8  A    between atoms: C_8  and  C_10
REMARK    9  A    between atoms: C_18  and  C_19
REMARK   10  A    between atoms: C_19  and  O_21
REMARK   11  A    between atoms: N_29  and  C_30
REMARK                            x       y       z     vdW  Elec       q    Type
REMARK                         _______ _______ _______ _____ _____    ______ ____
ROOT
ATOM      1  C   UNL     1      -5.133  13.658  21.444  0.00  0.00    +0.000 C 
ATOM      2  C   UNL     1      -5.894  13.038  22.353  0.00  0.00    +0.000 C 
ATOM      3  C   UNL     1      -5.169  12.828  23.651  0.00  0.00    +0.000 C 
ATOM      4  O   UNL     1      -5.537  12.096  24.552  0.00  0.00    +0.000 OA
ATOM      5  C   UNL     1      -3.820  13.473  23.710  0.00  0.00    +0.000 C 
ATOM      6  C   UNL     1      -3.073  12.895  22.747  0.00  0.00    +0.000 C 
ATOM      7  C   UNL     1      -1.594  12.754  23.025  0.00  0.00    +0.000 C 
ATOM      8  C   UNL     1      -0.931  14.098  23.409  0.00  0.00    +0.000 C 
ATOM      9  C   UNL     1      -0.027  14.772  22.278  0.00  0.00    +0.000 C 
ATOM     10  C   UNL     1      -0.677  14.593  20.905  0.00  0.00    +0.000 C 
ATOM     11  C   UNL     1      -1.427  15.899  20.640  0.00  0.00    +0.000 C 
ATOM     12  C   UNL     1      -1.406  16.631  22.016  0.00  0.00    +0.000 C 
ATOM     13  C   UNL     1      -2.465  15.976  22.990  0.00  0.00    +0.000 C 
ATOM     14  O   UNL     1      -3.290  16.803  23.798  0.00  0.00    +0.000 OA
ATOM     15  C   UNL     1      -3.730  15.907  24.882  0.00  0.00    +0.000 C 
ATOM     16  C   UNL     1      -3.142  14.479  24.636  0.00  0.00    +0.000 C 
ATOM     17  N   UNL     1      -1.931  15.008  23.957  0.00  0.00    +0.000 NA
ATOM     18  N   UNL     1      -0.011  16.258  22.321  0.00  0.00    +0.000 NA
ATOM     19  C   UNL     1       0.522  16.892  23.506  0.00  0.00    +0.000 C 
ATOM     20  C   UNL     1      -3.731  13.100  21.401  0.00  0.00    +0.000 C 
ATOM     21  O   UNL     1      -3.147  12.889  20.344  0.00  0.00    +0.000 OA
ENDROOT
BRANCH  10  22
ATOM     22  C   UNL     1       0.194  14.105  19.777  0.00  0.00    +0.000 C 
ATOM     23  O   UNL     1       1.394  14.289  19.664  0.00  0.00    +0.000 OA
BRANCH  22  24
ATOM     24  O   UNL     1      -0.504  13.304  18.926  0.00  0.00    +0.000 OA
ATOM     25  H   UNL     1      -1.171  12.735  19.371  0.00  0.00    +0.000 HD
ENDBRANCH  22  24
ENDBRANCH  10  22
BRANCH   1  26
ATOM     26  S   UNL     1      -5.679  14.900  20.352  0.00  0.00    +0.000 S 
BRANCH  26  28
ATOM     27  C   UNL     1      -5.581  17.707  20.745  0.00  0.00    +0.000 C 
ATOM     28  C   UNL     1      -5.743  16.395  21.491  0.00  0.00    +0.000 C 
ATOM     29  C   UNL     1      -7.044  16.476  22.285  0.00  0.00    +0.000 C 
ENDBRANCH  26  28
ENDBRANCH   1  26
BRANCH   2  30
ATOM     30  S   UNL     1      -7.380  12.346  21.850  0.00  0.00    +0.000 S 
BRANCH  30  31
ATOM     31  C   UNL     1      -7.077  11.080  20.620  0.00  0.00    +0.000 C 
ATOM     32  C   UNL     1      -7.917   9.836  20.848  0.00  0.00    +0.000 C 
ATOM     33  C   UNL     1      -7.455  11.719  19.275  0.00  0.00    +0.000 C 
ENDBRANCH  30  31
ENDBRANCH   2  30
TORSDOF 6
ENDMDL
MODEL 4
REMARK VINA RESULT:      -5.0      9.566     11.938
REMARK  Name = 
REMARK  11 active torsions:
REMARK  status: ('A' for Active; 'I' for Inactive)
REMARK    1  A    between atoms: C_1  and  C_2
REMARK    2  A    between atoms: C_2  and  C_3
REMARK    3  A    between atoms: C_2  and  S_4
REMARK    4  A    between atoms: S_4  and  C_5
REMARK    5  A    between atoms: C_6  and  S_7
REMARK    6  A    between atoms: S_7  and  C_8
REMARK    7  A    between atoms: C_8  and  C_9
REMARK    8  A    between atoms: C_8  and  C_10
REMARK    9  A    between atoms: C_18  and  C_19
REMARK   10  A    between atoms: C_19  and  O_21
REMARK   11  A    between atoms: N_29  and  C_30
REMARK                            x       y       z     vdW  Elec       q    Type
REMARK                         _______ _______ _______ _____ _____    ______ ____
ROOT
ATOM      1  C   UNL     1      -4.361  14.398  21.784  0.00  0.00    +0.000 C 
ATOM      2  C   UNL     1      -4.706  14.587  23.063  0.00  0.00    +0.000 C 
ATOM      3  C   UNL     1      -3.643  14.112  24.011  0.00  0.00    +0.000 C 
ATOM      4  O   UNL     1      -3.791  13.952  25.209  0.00  0.00    +0.000 OA
ATOM      5  C   UNL     1      -2.380  13.668  23.344  0.00  0.00    +0.000 C 
ATOM      6  C   UNL     1      -2.704  12.617  22.564  0.00  0.00    +0.000 C 
ATOM      7  C   UNL     1      -1.652  11.546  22.391  0.00  0.00    +0.000 C 
ATOM      8  C   UNL     1      -0.300  12.115  21.898  0.00  0.00    +0.000 C 
ATOM      9  C   UNL     1       0.049  11.839  20.364  0.00  0.00    +0.000 C 
ATOM     10  C   UNL     1      -1.208  11.972  19.503  0.00  0.00    +0.000 C 
ATOM     11  C   UNL     1      -1.158  13.389  18.932  0.00  0.00    +0.000 C 
ATOM     12  C   UNL     1      -0.025  14.084  19.745  0.00  0.00    +0.000 C 
ATOM     13  C   UNL     1      -0.550  14.458  21.189  0.00  0.00    +0.000 C 
ATOM     14  O   UNL     1      -0.229  15.722  21.753  0.00  0.00    +0.000 OA
ATOM     15  C   UNL     1      -0.413  15.517  23.200  0.00  0.00    +0.000 C 
ATOM     16  C   UNL     1      -0.908  14.054  23.451  0.00  0.00    +0.000 C 
ATOM     17  N   UNL     1      -0.190  13.523  22.263  0.00  0.00    +0.000 NA
ATOM     18  N   UNL     1       0.865  12.906  19.727  0.00  0.00    +0.000 NA
ATOM     19  C   UNL     1       2.184  13.157  20.263  0.00  0.00    +0.000 C 
ATOM     20  C   UNL     1      -3.750  13.036  21.555  0.00  0.00    +0.000 C 
ATOM     21  O   UNL     1      -4.039  12.348  20.582  0.00  0.00    +0.000 OA
ENDROOT
BRANCH  10  22
ATOM     22  C   UNL     1      -1.491  10.880  18.505  0.00  0.00    +0.000 C 
ATOM     23  O   UNL     1      -2.590  10.434  18.219  0.00  0.00    +0.000 OA
BRANCH  22  24
ATOM     24  O   UNL     1      -0.361  10.511  17.843  0.00  0.00    +0.000 OA
ATOM     25  H   UNL     1      -0.469  10.464  16.866  0.00  0.00    +0.000 HD
ENDBRANCH  22  24
ENDBRANCH  10  22
BRANCH   1  26
ATOM     26  S   UNL     1      -4.651  15.521  20.486  0.00  0.00    +0.000 S 
BRANCH  26  28
ATOM     27  C   UNL     1      -2.674  17.441  19.813  0.00  0.00    +0.000 C 
ATOM     28  C   UNL     1      -3.526  16.948  20.970  0.00  0.00    +0.000 C 
ATOM     29  C   UNL     1      -4.294  18.147  21.518  0.00  0.00    +0.000 C 
ENDBRANCH  26  28
ENDBRANCH   1  26
BRANCH   2  30
ATOM     30  S   UNL     1      -6.321  15.032  23.423  0.00  0.00    +0.000 S 
BRANCH  30  31
ATOM     31  C   UNL     1      -7.399  13.613  23.243  0.00  0.00    +0.000 C 
ATOM     32  C   UNL     1      -7.516  13.151  21.802  0.00  0.00    +0.000 C 
ATOM     33  C   UNL     1      -6.758  12.503  24.091  0.00  0.00    +0.000 C 
ENDBRANCH  30  31
ENDBRANCH   2  30
TORSDOF 6
ENDMDL
MODEL 5
REMARK VINA RESULT:      -5.0     11.788     14.981
REMARK  Name = 
REMARK  11 active torsions:
REMARK  status: ('A' for Active; 'I' for Inactive)
REMARK    1  A    between atoms: C_1  and  C_2
REMARK    2  A    between atoms: C_2  and  C_3
REMARK    3  A    between atoms: C_2  and  S_4
REMARK    4  A    between atoms: S_4  and  C_5
REMARK    5  A    between atoms: C_6  and  S_7
REMARK    6  A    between atoms: S_7  and  C_8
REMARK    7  A    between atoms: C_8  and  C_9
REMARK    8  A    between atoms: C_8  and  C_10
REMARK    9  A    between atoms: C_18  and  C_19
REMARK   10  A    between atoms: C_19  and  O_21
REMARK   11  A    between atoms: N_29  and  C_30
REMARK                            x       y       z     vdW  Elec       q    Type
REMARK                         _______ _______ _______ _____ _____    ______ ____
ROOT
ATOM      1  C   UNL     1      -3.570  16.181  22.060  0.00  0.00    +0.000 C 
ATOM      2  C   UNL     1      -3.617  16.795  23.248  0.00  0.00    +0.000 C 
ATOM      3  C   UNL     1      -4.878  16.480  23.999  0.00  0.00    +0.000 C 
ATOM      4  O   UNL     1      -5.279  17.076  24.982  0.00  0.00    +0.000 OA
ATOM      5  C   UNL     1      -5.741  15.449  23.342  0.00  0.00    +0.000 C 
ATOM      6  C   UNL     1      -6.113  15.959  22.150  0.00  0.00    +0.000 C 
ATOM      7  C   UNL     1      -7.479  15.567  21.638  0.00  0.00    +0.000 C 
ATOM      8  C   UNL     1      -7.678  14.033  21.590  0.00  0.00    +0.000 C 
ATOM      9  C   UNL     1      -7.622  13.372  20.137  0.00  0.00    +0.000 C 
ATOM     10  C   UNL     1      -6.534  14.040  19.294  0.00  0.00    +0.000 C 
ATOM     11  C   UNL     1      -5.315  13.124  19.411  0.00  0.00    +0.000 C 
ATOM     12  C   UNL     1      -5.690  12.142  20.561  0.00  0.00    +0.000 C 
ATOM     13  C   UNL     1      -5.542  12.868  21.959  0.00  0.00    +0.000 C 
ATOM     14  O   UNL     1      -4.942  12.185  23.050  0.00  0.00    +0.000 OA
ATOM     15  C   UNL     1      -5.431  12.916  24.232  0.00  0.00    +0.000 C 
ATOM     16  C   UNL     1      -6.330  14.106  23.762  0.00  0.00    +0.000 C 
ATOM     17  N   UNL     1      -6.786  13.385  22.545  0.00  0.00    +0.000 NA
ATOM     18  N   UNL     1      -7.090  11.985  20.122  0.00  0.00    +0.000 NA
ATOM     19  C   UNL     1      -7.825  10.974  20.850  0.00  0.00    +0.000 C 
ATOM     20  C   UNL     1      -4.885  16.268  21.324  0.00  0.00    +0.000 C 
ATOM     21  O   UNL     1      -4.943  16.510  20.123  0.00  0.00    +0.000 OA
ENDROOT
BRANCH  10  22
ATOM     22  C   UNL     1      -6.895  14.464  17.895  0.00  0.00    +0.000 C 
ATOM     23  O   UNL     1      -7.586  13.838  17.109  0.00  0.00    +0.000 OA
BRANCH  22  24
ATOM     24  O   UNL     1      -6.450  15.723  17.630  0.00  0.00    +0.000 OA
ATOM     25  H   UNL     1      -5.813  16.068  18.295  0.00  0.00    +0.000 HD
ENDBRANCH  22  24
ENDBRANCH  10  22
BRANCH   1  26
ATOM     26  S   UNL     1      -2.156  15.441  21.364  0.00  0.00    +0.000 S 
BRANCH  26  28
ATOM     27  C   UNL     1      -1.931  12.623  21.131  0.00  0.00    +0.000 C 
ATOM     28  C   UNL     1      -2.216  13.726  22.135  0.00  0.00    +0.000 C 
ATOM     29  C   UNL     1      -1.230  13.563  23.288  0.00  0.00    +0.000 C 
ENDBRANCH  26  28
ENDBRANCH   1  26
BRANCH   2  30
ATOM     30  S   UNL     1      -2.457  18.009  23.595  0.00  0.00    +0.000 S 
BRANCH  30  31
ATOM     31  C   UNL     1      -1.333  17.433  24.865  0.00  0.00    +0.000 C 
ATOM     32  C   UNL     1      -1.879  16.238  25.625  0.00  0.00    +0.000 C 
ATOM     33  C   UNL     1      -0.049  17.031  24.123  0.00  0.00    +0.000 C 
ENDBRANCH  30  31
ENDBRANCH   2  30
TORSDOF 6
ENDMDL
MODEL 6
REMARK VINA RESULT:      -4.9      7.618     10.656
REMARK  Name = 
REMARK  11 active torsions:
REMARK  status: ('A' for Active; 'I' for Inactive)
REMARK    1  A    between atoms: C_1  and  C_2
REMARK    2  A    between atoms: C_2  and  C_3
REMARK    3  A    between atoms: C_2  and  S_4
REMARK    4  A    between atoms: S_4  and  C_5
REMARK    5  A    between atoms: C_6  and  S_7
REMARK    6  A    between atoms: S_7  and  C_8
REMARK    7  A    between atoms: C_8  and  C_9
REMARK    8  A    between atoms: C_8  and  C_10
REMARK    9  A    between atoms: C_18  and  C_19
REMARK   10  A    between atoms: C_19  and  O_21
REMARK   11  A    between atoms: N_29  and  C_30
REMARK                            x       y       z     vdW  Elec       q    Type
REMARK                         _______ _______ _______ _____ _____    ______ ____
ROOT
ATOM      1  C   UNL     1       0.482  15.285  20.535  0.00  0.00    +0.000 C 
ATOM      2  C   UNL     1      -0.552  16.120  20.691  0.00  0.00    +0.000 C 
ATOM      3  C   UNL     1      -1.870  15.402  20.659  0.00  0.00    +0.000 C 
ATOM      4  O   UNL     1      -2.958  15.935  20.545  0.00  0.00    +0.000 OA
ATOM      5  C   UNL     1      -1.754  13.911  20.608  0.00  0.00    +0.000 C 
ATOM      6  C   UNL     1      -1.120  13.613  19.456  0.00  0.00    +0.000 C 
ATOM      7  C   UNL     1      -1.508  12.318  18.779  0.00  0.00    +0.000 C 
ATOM      8  C   UNL     1      -1.395  11.097  19.722  0.00  0.00    +0.000 C 
ATOM      9  C   UNL     1      -0.143  10.138  19.467  0.00  0.00    +0.000 C 
ATOM     10  C   UNL     1       1.095  10.967  19.119  0.00  0.00    +0.000 C 
ATOM     11  C   UNL     1       1.870  11.105  20.430  0.00  0.00    +0.000 C 
ATOM     12  C   UNL     1       0.870  10.600  21.514  0.00  0.00    +0.000 C 
ATOM     13  C   UNL     1      -0.222  11.708  21.798  0.00  0.00    +0.000 C 
ATOM     14  O   UNL     1      -0.616  11.988  23.133  0.00  0.00    +0.000 OA
ATOM     15  C   UNL     1      -1.931  12.634  22.983  0.00  0.00    +0.000 C 
ATOM     16  C   UNL     1      -2.270  12.756  21.461  0.00  0.00    +0.000 C 
ATOM     17  N   UNL     1      -1.508  11.529  21.111  0.00  0.00    +0.000 NA
ATOM     18  N   UNL     1       0.373   9.477  20.694  0.00  0.00    +0.000 NA
ATOM     19  C   UNL     1      -0.515   8.580  21.401  0.00  0.00    +0.000 C 
ATOM     20  C   UNL     1       0.238  14.279  19.435  0.00  0.00    +0.000 C 
ATOM     21  O   UNL     1       1.106  13.979  18.624  0.00  0.00    +0.000 OA
ENDROOT
BRANCH  10  22
ATOM     22  C   UNL     1       1.910  10.539  17.927  0.00  0.00    +0.000 C 
ATOM     23  O   UNL     1       1.981   9.410  17.471  0.00  0.00    +0.000 OA
BRANCH  22  24
ATOM     24  O   UNL     1       2.487  11.609  17.314  0.00  0.00    +0.000 OA
ATOM     25  H   UNL     1       1.908  12.048  16.651  0.00  0.00    +0.000 HD
ENDBRANCH  22  24
ENDBRANCH  10  22
BRANCH   1  26
ATOM     26  S   UNL     1       1.987  15.370  21.406  0.00  0.00    +0.000 S 
BRANCH  26  28
ATOM     27  C   UNL     1       3.574  17.533  20.483  0.00  0.00    +0.000 C 
ATOM     28  C   UNL     1       3.122  16.131  20.114  0.00  0.00    +0.000 C 
ATOM     29  C   UNL     1       4.375  15.296  19.863  0.00  0.00    +0.000 C 
ENDBRANCH  26  28
ENDBRANCH   1  26
BRANCH   2  30
ATOM     30  S   UNL     1      -0.267  17.808  20.607  0.00  0.00    +0.000 S 
BRANCH  30  31
ATOM     31  C   UNL     1      -0.377  18.361  18.907  0.00  0.00    +0.000 C 
ATOM     32  C   UNL     1       0.375  17.452  17.951  0.00  0.00    +0.000 C 
ATOM     33  C   UNL     1      -1.875  18.343  18.568  0.00  0.00    +0.000 C 
ENDBRANCH  30  31
ENDBRANCH   2  30
TORSDOF 6
ENDMDL
MODEL 7
REMARK VINA RESULT:      -4.9      2.748      5.213
REMARK  Name = 
REMARK  11 active torsions:
REMARK  status: ('A' for Active; 'I' for Inactive)
REMARK    1  A    between atoms: C_1  and  C_2
REMARK    2  A    between atoms: C_2  and  C_3
REMARK    3  A    between atoms: C_2  and  S_4
REMARK    4  A    between atoms: S_4  and  C_5
REMARK    5  A    between atoms: C_6  and  S_7
REMARK    6  A    between atoms: S_7  and  C_8
REMARK    7  A    between atoms: C_8  and  C_9
REMARK    8  A    between atoms: C_8  and  C_10
REMARK    9  A    between atoms: C_18  and  C_19
REMARK   10  A    between atoms: C_19  and  O_21
REMARK   11  A    between atoms: N_29  and  C_30
REMARK                            x       y       z     vdW  Elec       q    Type
REMARK                         _______ _______ _______ _____ _____    ______ ____
ROOT
ATOM      1  C   UNL     1       9.334  13.499  20.042  0.00  0.00    +0.000 C 
ATOM      2  C   UNL     1      10.645  13.770  20.032  0.00  0.00    +0.000 C 
ATOM      3  C   UNL     1      10.916  15.243  19.931  0.00  0.00    +0.000 C 
ATOM      4  O   UNL     1      11.996  15.743  19.671  0.00  0.00    +0.000 OA
ATOM      5  C   UNL     1       9.692  16.100  20.009  0.00  0.00    +0.000 C 
ATOM      6  C   UNL     1       8.923  15.771  18.951  0.00  0.00    +0.000 C 
ATOM      7  C   UNL     1       8.090  16.877  18.345  0.00  0.00    +0.000 C 
ATOM      8  C   UNL     1       7.196  17.588  19.389  0.00  0.00    +0.000 C 
ATOM      9  C   UNL     1       5.642  17.224  19.332  0.00  0.00    +0.000 C 
ATOM     10  C   UNL     1       5.458  15.733  19.040  0.00  0.00    +0.000 C 
ATOM     11  C   UNL     1       5.238  15.079  20.404  0.00  0.00    +0.000 C 
ATOM     12  C   UNL     1       5.610  16.197  21.424  0.00  0.00    +0.000 C 
ATOM     13  C   UNL     1       7.182  16.343  21.512  0.00  0.00    +0.000 C 
ATOM     14  O   UNL     1       7.808  16.502  22.777  0.00  0.00    +0.000 OA
ATOM     15  C   UNL     1       9.112  17.104  22.451  0.00  0.00    +0.000 C 
ATOM     16  C   UNL     1       9.233  17.251  20.898  0.00  0.00    +0.000 C 
ATOM     17  N   UNL     1       7.769  17.434  20.722  0.00  0.00    +0.000 NA
ATOM     18  N   UNL     1       4.959  17.274  20.652  0.00  0.00    +0.000 NA
ATOM     19  C   UNL     1       4.914  18.546  21.339  0.00  0.00    +0.000 C 
ATOM     20  C   UNL     1       8.580  14.300  19.008  0.00  0.00    +0.000 C 
ATOM     21  O   UNL     1       7.705  13.800  18.310  0.00  0.00    +0.000 OA
ENDROOT
BRANCH  10  22
ATOM     22  C   UNL     1       4.472  15.347  17.969  0.00  0.00    +0.000 C 
ATOM     23  O   UNL     1       3.659  16.086  17.439  0.00  0.00    +0.000 OA
BRANCH  22  24
ATOM     24  O   UNL     1       4.671  14.066  17.553  0.00  0.00    +0.000 OA
ATOM     25  H   UNL     1       4.892  13.988  16.598  0.00  0.00    +0.000 HD
ENDBRANCH  22  24
ENDBRANCH  10  22
BRANCH   1  26
ATOM     26  S   UNL     1       8.561  12.303  21.044  0.00  0.00    +0.000 S 
BRANCH  26  28
ATOM     27  C   UNL     1       6.646  12.815  23.073  0.00  0.00    +0.000 C 
ATOM     28  C   UNL     1       7.926  13.361  22.463  0.00  0.00    +0.000 C 
ATOM     29  C   UNL     1       8.943  13.510  23.590  0.00  0.00    +0.000 C 
ENDBRANCH  26  28
ENDBRANCH   1  26
BRANCH   2  30
ATOM     30  S   UNL     1      11.752  12.476  19.841  0.00  0.00    +0.000 S 
BRANCH  30  31
ATOM     31  C   UNL     1      11.690  11.862  18.160  0.00  0.00    +0.000 C 
ATOM     32  C   UNL     1      10.354  11.222  17.825  0.00  0.00    +0.000 C 
ATOM     33  C   UNL     1      11.912  13.093  17.267  0.00  0.00    +0.000 C 
ENDBRANCH  30  31
ENDBRANCH   2  30
TORSDOF 6
ENDMDL
MODEL 8
REMARK VINA RESULT:      -4.9      2.330      3.272
REMARK  Name = 
REMARK  11 active torsions:
REMARK  status: ('A' for Active; 'I' for Inactive)
REMARK    1  A    between atoms: C_1  and  C_2
REMARK    2  A    between atoms: C_2  and  C_3
REMARK    3  A    between atoms: C_2  and  S_4
REMARK    4  A    between atoms: S_4  and  C_5
REMARK    5  A    between atoms: C_6  and  S_7
REMARK    6  A    between atoms: S_7  and  C_8
REMARK    7  A    between atoms: C_8  and  C_9
REMARK    8  A    between atoms: C_8  and  C_10
REMARK    9  A    between atoms: C_18  and  C_19
REMARK   10  A    between atoms: C_19  and  O_21
REMARK   11  A    between atoms: N_29  and  C_30
REMARK                            x       y       z     vdW  Elec       q    Type
REMARK                         _______ _______ _______ _____ _____    ______ ____
ROOT
ATOM      1  C   UNL     1       6.896  15.342  21.554  0.00  0.00    +0.000 C 
ATOM      2  C   UNL     1       7.136  16.467  22.238  0.00  0.00    +0.000 C 
ATOM      3  C   UNL     1       8.548  16.946  22.063  0.00  0.00    +0.000 C 
ATOM      4  O   UNL     1       9.092  17.796  22.744  0.00  0.00    +0.000 OA
ATOM      5  C   UNL     1       9.340  16.165  21.061  0.00  0.00    +0.000 C 
ATOM      6  C   UNL     1       9.412  14.902  21.526  0.00  0.00    +0.000 C 
ATOM      7  C   UNL     1      10.670  14.128  21.207  0.00  0.00    +0.000 C 
ATOM      8  C   UNL     1      10.984  14.104  19.692  0.00  0.00    +0.000 C 
ATOM      9  C   UNL     1      10.684  12.724  18.944  0.00  0.00    +0.000 C 
ATOM     10  C   UNL     1       9.392  12.104  19.479  0.00  0.00    +0.000 C 
ATOM     11  C   UNL     1       8.306  12.515  18.484  0.00  0.00    +0.000 C 
ATOM     12  C   UNL     1       8.994  13.600  17.601  0.00  0.00    +0.000 C 
ATOM     13  C   UNL     1       9.078  14.965  18.395  0.00  0.00    +0.000 C 
ATOM     14  O   UNL     1       8.777  16.186  17.736  0.00  0.00    +0.000 OA
ATOM     15  C   UNL     1       9.437  17.206  18.569  0.00  0.00    +0.000 C 
ATOM     16  C   UNL     1      10.115  16.507  19.792  0.00  0.00    +0.000 C 
ATOM     17  N   UNL     1      10.368  15.253  19.037  0.00  0.00    +0.000 NA
ATOM     18  N   UNL     1      10.281  12.881  17.523  0.00  0.00    +0.000 NA
ATOM     19  C   UNL     1      11.234  13.479  16.614  0.00  0.00    +0.000 C 
ATOM     20  C   UNL     1       8.017  14.341  21.694  0.00  0.00    +0.000 C 
ATOM     21  O   UNL     1       7.804  13.147  21.869  0.00  0.00    +0.000 OA
ENDROOT
BRANCH  10  22
ATOM     22  C   UNL     1       9.417  10.643  19.845  0.00  0.00    +0.000 C 
ATOM     23  O   UNL     1       9.468   9.707  19.065  0.00  0.00    +0.000 OA
BRANCH  22  24
ATOM     24  O   UNL     1       9.500  10.474  21.193  0.00  0.00    +0.000 OA
ATOM     25  H   UNL     1      10.316  10.010  21.486  0.00  0.00    +0.000 HD
ENDBRANCH  22  24
ENDBRANCH  10  22
BRANCH   1  26
ATOM     26  S   UNL     1       5.436  14.993  20.671  0.00  0.00    +0.000 S 
BRANCH  26  28
ATOM     27  C   UNL     1       5.180  14.895  17.848  0.00  0.00    +0.000 C 
ATOM     28  C   UNL     1       5.863  15.663  18.966  0.00  0.00    +0.000 C 
ATOM     29  C   UNL     1       5.498  17.135  18.802  0.00  0.00    +0.000 C 
ENDBRANCH  26  28
ENDBRANCH   1  26
BRANCH   2  30
ATOM     30  S   UNL     1       5.975  16.999  23.381  0.00  0.00    +0.000 S 
BRANCH  30  31
ATOM     31  C   UNL     1       6.642  16.864  25.037  0.00  0.00    +0.000 C 
ATOM     32  C   UNL     1       5.614  17.191  26.106  0.00  0.00    +0.000 C 
ATOM     33  C   UNL     1       7.088  15.400  25.179  0.00  0.00    +0.000 C 
ENDBRANCH  30  31
ENDBRANCH   2  30
TORSDOF 6
ENDMDL
MODEL 9
REMARK VINA RESULT:      -4.9      2.184      2.811
REMARK  Name = 
REMARK  11 active torsions:
REMARK  status: ('A' for Active; 'I' for Inactive)
REMARK    1  A    between atoms: C_1  and  C_2
REMARK    2  A    between atoms: C_2  and  C_3
REMARK    3  A    between atoms: C_2  and  S_4
REMARK    4  A    between atoms: S_4  and  C_5
REMARK    5  A    between atoms: C_6  and  S_7
REMARK    6  A    between atoms: S_7  and  C_8
REMARK    7  A    between atoms: C_8  and  C_9
REMARK    8  A    between atoms: C_8  and  C_10
REMARK    9  A    between atoms: C_18  and  C_19
REMARK   10  A    between atoms: C_19  and  O_21
REMARK   11  A    between atoms: N_29  and  C_30
REMARK                            x       y       z     vdW  Elec       q    Type
REMARK                         _______ _______ _______ _____ _____    ______ ____
ROOT
ATOM      1  C   UNL     1       7.795  14.822  21.839  0.00  0.00    +0.000 C 
ATOM      2  C   UNL     1       8.312  15.536  22.846  0.00  0.00    +0.000 C 
ATOM      3  C   UNL     1       9.810  15.602  22.782  0.00  0.00    +0.000 C 
ATOM      4  O   UNL     1      10.536  15.981  23.683  0.00  0.00    +0.000 OA
ATOM      5  C   UNL     1      10.399  14.993  21.549  0.00  0.00    +0.000 C 
ATOM      6  C   UNL     1      10.066  13.686  21.569  0.00  0.00    +0.000 C 
ATOM      7  C   UNL     1      11.059  12.721  20.963  0.00  0.00    +0.000 C 
ATOM      8  C   UNL     1      11.447  13.099  19.513  0.00  0.00    +0.000 C 
ATOM      9  C   UNL     1      10.802  12.194  18.366  0.00  0.00    +0.000 C 
ATOM     10  C   UNL     1       9.353  11.848  18.717  0.00  0.00    +0.000 C 
ATOM     11  C   UNL     1       8.501  12.865  17.956  0.00  0.00    +0.000 C 
ATOM     12  C   UNL     1       9.531  13.921  17.454  0.00  0.00    +0.000 C 
ATOM     13  C   UNL     1       9.963  14.862  18.649  0.00  0.00    +0.000 C 
ATOM     14  O   UNL     1      10.077  16.262  18.441  0.00  0.00    +0.000 OA
ATOM     15  C   UNL     1      10.954  16.709  19.537  0.00  0.00    +0.000 C 
ATOM     16  C   UNL     1      11.318  15.481  20.434  0.00  0.00    +0.000 C 
ATOM     17  N   UNL     1      11.237  14.526  19.298  0.00  0.00    +0.000 NA
ATOM     18  N   UNL     1      10.552  12.918  17.092  0.00  0.00    +0.000 NA
ATOM     19  C   UNL     1      11.694  13.466  16.394  0.00  0.00    +0.000 C 
ATOM     20  C   UNL     1       8.561  13.544  21.598  0.00  0.00    +0.000 C 
ATOM     21  O   UNL     1       7.996  12.479  21.377  0.00  0.00    +0.000 OA
ENDROOT
BRANCH  10  22
ATOM     22  C   UNL     1       8.924  10.411  18.580  0.00  0.00    +0.000 C 
ATOM     23  O   UNL     1       9.240   9.493  19.319  0.00  0.00    +0.000 OA
BRANCH  22  24
ATOM     24  O   UNL     1       8.016  10.260  17.578  0.00  0.00    +0.000 OA
ATOM     25  H   UNL     1       7.112  10.568  17.810  0.00  0.00    +0.000 HD
ENDBRANCH  22  24
ENDBRANCH  10  22
BRANCH   1  26
ATOM     26  S   UNL     1       6.356  15.231  20.949  0.00  0.00    +0.000 S 
BRANCH  26  28
ATOM     27  C   UNL     1       6.636  16.917  18.685  0.00  0.00    +0.000 C 
ATOM     28  C   UNL     1       6.844  16.881  20.189  0.00  0.00    +0.000 C 
ATOM     29  C   UNL     1       6.078  18.057  20.786  0.00  0.00    +0.000 C 
ENDBRANCH  26  28
ENDBRANCH   1  26
BRANCH   2  30
ATOM     30  S   UNL     1       7.289  15.989  24.145  0.00  0.00    +0.000 S 
BRANCH  30  31
ATOM     31  C   UNL     1       7.005  14.581  25.216  0.00  0.00    +0.000 C 
ATOM     32  C   UNL     1       7.236  14.909  26.680  0.00  0.00    +0.000 C 
ATOM     33  C   UNL     1       5.534  14.193  24.999  0.00  0.00    +0.000 C 
ENDBRANCH  30  31
ENDBRANCH   2  30
TORSDOF 6
ENDMDL
