MODEL 1
REMARK VINA RESULT:      -8.0      0.000      0.000
REMARK  Name = 
REMARK  10 active torsions:
REMARK  status: ('A' for Active; 'I' for Inactive)
REMARK    1  A    between atoms: C_2  and  C_3
REMARK    2  A    between atoms: C_3  and  C_14
REMARK    3  A    between atoms: C_4  and  N_5
REMARK    4  A    between atoms: C_4  and  S_6
REMARK    5  A    between atoms: S_6  and  C_7
REMARK    6  A    between atoms: C_12  and  N_13
REMARK    7  A    between atoms: C_18  and  C_19
REMARK    8  A    between atoms: C_19  and  O_20
REMARK    9  A    between atoms: C_19  and  C_21
REMARK   10  A    between atoms: C_24  and  C_25
REMARK                            x       y       z     vdW  Elec       q    Type
REMARK                         _______ _______ _______ _____ _____    ______ ____
ROOT
ATOM      1  C   UNL     1       2.292   6.467  19.537  0.00  0.00    +0.000 A 
ATOM      2  C   UNL     1       1.776   6.459  20.839  0.00  0.00    +0.000 A 
ATOM      3  C   UNL     1       1.142   7.593  21.348  0.00  0.00    +0.000 A 
ATOM      4  C   UNL     1       1.015   8.739  20.561  0.00  0.00    +0.000 A 
ATOM      5  C   UNL     1       1.563   8.786  19.270  0.00  0.00    +0.000 A 
ATOM      6  C   UNL     1       2.223   7.646  18.778  0.00  0.00    +0.000 A 
ENDROOT
BRANCH   1   7
ATOM      7  C   UNL     1       2.769   5.217  18.896  0.00  0.00    +0.000 C 
ATOM      8  C   UNL     1       4.043   4.771  19.047  0.00  0.00    +0.000 C 
BRANCH   8   9
ATOM      9  N   UNL     1       5.003   5.444  19.795  0.00  0.00    +0.000 N 
ATOM     10  H   UNL     1       4.966   5.237  20.788  0.00  0.00    +0.000 HD
ATOM     11  H   UNL     1       5.932   5.294  19.405  0.00  0.00    +0.000 HD
ENDBRANCH   8   9
BRANCH   7  13
ATOM     12  N   UNL     1       1.028   4.008  17.397  0.00  0.00    +0.000 NA
ATOM     13  C   UNL     1       1.808   4.565  18.060  0.00  0.00    +0.000 C 
ENDBRANCH   7  13
BRANCH   8  14
ATOM     14  S   UNL     1       4.583   3.324  18.165  0.00  0.00    +0.000 S 
BRANCH  14  15
ATOM     15  C   UNL     1       5.474   4.080  16.797  0.00  0.00    +0.000 A 
ATOM     16  C   UNL     1       4.783   4.338  15.602  0.00  0.00    +0.000 A 
ATOM     17  C   UNL     1       5.418   4.973  14.533  0.00  0.00    +0.000 A 
ATOM     18  C   UNL     1       6.745   5.368  14.651  0.00  0.00    +0.000 A 
ATOM     19  C   UNL     1       7.436   5.139  15.844  0.00  0.00    +0.000 A 
ATOM     20  C   UNL     1       6.800   4.541  16.943  0.00  0.00    +0.000 A 
BRANCH  20  21
ATOM     21  N   UNL     1       7.568   4.238  18.090  0.00  0.00    +0.000 N 
ATOM     22  H   UNL     1       8.567   4.226  17.897  0.00  0.00    +0.000 HD
ATOM     23  H   UNL     1       7.344   4.875  18.853  0.00  0.00    +0.000 HD
ENDBRANCH  20  21
ENDBRANCH  14  15
ENDBRANCH   8  14
ENDBRANCH   1   7
BRANCH   5  24
ATOM     24  C   UNL     1       1.367  10.026  18.409  0.00  0.00    +0.000 C 
BRANCH  24  25
ATOM     25  C   UNL     1      -0.078  10.464  18.198  0.00  0.00    +0.000 A 
ATOM     26  C   UNL     1      -0.976   9.705  17.430  0.00  0.00    +0.000 A 
ATOM     27  C   UNL     1      -2.322  10.064  17.327  0.00  0.00    +0.000 A 
ATOM     28  C   UNL     1      -2.815  11.180  18.013  0.00  0.00    +0.000 A 
ATOM     29  C   UNL     1      -1.926  11.951  18.773  0.00  0.00    +0.000 A 
ATOM     30  C   UNL     1      -0.577  11.596  18.865  0.00  0.00    +0.000 A 
BRANCH  28  31
ATOM     31  C   UNL     1      -4.281  11.531  17.968  0.00  0.00    +0.000 C 
ATOM     32  F   UNL     1      -4.682  12.045  16.770  0.00  0.00    +0.000 F 
ATOM     33  F   UNL     1      -5.078  10.448  18.188  0.00  0.00    +0.000 F 
ATOM     34  F   UNL     1      -4.633  12.451  18.907  0.00  0.00    +0.000 F 
ENDBRANCH  28  31
ENDBRANCH  24  25
BRANCH  24  35
ATOM     35  O   UNL     1       2.008   9.846  17.144  0.00  0.00    +0.000 OA
ATOM     36  H   UNL     1       2.710  10.512  17.068  0.00  0.00    +0.000 HD
ENDBRANCH  24  35
ENDBRANCH   5  24
TORSDOF 10
ENDMDL
MODEL 2
REMARK VINA RESULT:      -7.6      1.144      1.573
REMARK  Name = 
REMARK  10 active torsions:
REMARK  status: ('A' for Active; 'I' for Inactive)
REMARK    1  A    between atoms: C_2  and  C_3
REMARK    2  A    between atoms: C_3  and  C_14
REMARK    3  A    between atoms: C_4  and  N_5
REMARK    4  A    between atoms: C_4  and  S_6
REMARK    5  A    between atoms: S_6  and  C_7
REMARK    6  A    between atoms: C_12  and  N_13
REMARK    7  A    between atoms: C_18  and  C_19
REMARK    8  A    between atoms: C_19  and  O_20
REMARK    9  A    between atoms: C_19  and  C_21
REMARK   10  A    between atoms: C_24  and  C_25
REMARK                            x       y       z     vdW  Elec       q    Type
REMARK                         _______ _______ _______ _____ _____    ______ ____
ROOT
ATOM      1  C   UNL     1       1.958   7.037  19.952  0.00  0.00    +0.000 A 
ATOM      2  C   UNL     1       1.709   7.167  21.324  0.00  0.00    +0.000 A 
ATOM      3  C   UNL     1       1.200   8.363  21.833  0.00  0.00    +0.000 A 
ATOM      4  C   UNL     1       0.932   9.433  20.977  0.00  0.00    +0.000 A 
ATOM      5  C   UNL     1       1.214   9.341  19.606  0.00  0.00    +0.000 A 
ATOM      6  C   UNL     1       1.752   8.141  19.108  0.00  0.00    +0.000 A 
ENDROOT
BRANCH   1   7
ATOM      7  C   UNL     1       2.286   5.718  19.357  0.00  0.00    +0.000 C 
ATOM      8  C   UNL     1       3.104   5.597  18.280  0.00  0.00    +0.000 C 
BRANCH   8   9
ATOM      9  N   UNL     1       3.690   6.685  17.641  0.00  0.00    +0.000 N 
ATOM     10  H   UNL     1       3.526   6.708  16.640  0.00  0.00    +0.000 HD
ATOM     11  H   UNL     1       3.420   7.557  18.095  0.00  0.00    +0.000 HD
ENDBRANCH   8   9
BRANCH   7  13
ATOM     12  N   UNL     1       1.095   3.703  20.478  0.00  0.00    +0.000 NA
ATOM     13  C   UNL     1       1.620   4.605  19.960  0.00  0.00    +0.000 C 
ENDBRANCH   7  13
BRANCH   8  14
ATOM     14  S   UNL     1       3.370   3.999  17.548  0.00  0.00    +0.000 S 
BRANCH  14  15
ATOM     15  C   UNL     1       4.957   4.262  16.740  0.00  0.00    +0.000 A 
ATOM     16  C   UNL     1       4.980   4.484  15.354  0.00  0.00    +0.000 A 
ATOM     17  C   UNL     1       6.181   4.748  14.694  0.00  0.00    +0.000 A 
ATOM     18  C   UNL     1       7.369   4.804  15.412  0.00  0.00    +0.000 A 
ATOM     19  C   UNL     1       7.356   4.609  16.795  0.00  0.00    +0.000 A 
ATOM     20  C   UNL     1       6.152   4.386  17.482  0.00  0.00    +0.000 A 
BRANCH  20  21
ATOM     21  N   UNL     1       6.201   4.093  18.863  0.00  0.00    +0.000 N 
ATOM     22  H   UNL     1       5.447   4.538  19.381  0.00  0.00    +0.000 HD
ATOM     23  H   UNL     1       6.215   3.086  19.017  0.00  0.00    +0.000 HD
ENDBRANCH  20  21
ENDBRANCH  14  15
ENDBRANCH   8  14
ENDBRANCH   1   7
BRANCH   5  24
ATOM     24  C   UNL     1       0.866  10.500  18.681  0.00  0.00    +0.000 C 
BRANCH  24  25
ATOM     25  C   UNL     1      -0.611  10.643  18.329  0.00  0.00    +0.000 A 
ATOM     26  C   UNL     1      -1.408  11.660  18.881  0.00  0.00    +0.000 A 
ATOM     27  C   UNL     1      -2.731  11.841  18.475  0.00  0.00    +0.000 A 
ATOM     28  C   UNL     1      -3.290  11.027  17.482  0.00  0.00    +0.000 A 
ATOM     29  C   UNL     1      -2.508  10.002  16.933  0.00  0.00    +0.000 A 
ATOM     30  C   UNL     1      -1.187   9.815  17.350  0.00  0.00    +0.000 A 
BRANCH  28  31
ATOM     31  C   UNL     1      -4.694  11.264  16.985  0.00  0.00    +0.000 C 
ATOM     32  F   UNL     1      -5.046  12.580  16.955  0.00  0.00    +0.000 F 
ATOM     33  F   UNL     1      -4.875  10.807  15.714  0.00  0.00    +0.000 F 
ATOM     34  F   UNL     1      -5.635  10.641  17.744  0.00  0.00    +0.000 F 
ENDBRANCH  28  31
ENDBRANCH  24  25
BRANCH  24  35
ATOM     35  O   UNL     1       1.643  10.419  17.485  0.00  0.00    +0.000 OA
ATOM     36  H   UNL     1       1.431  11.191  16.939  0.00  0.00    +0.000 HD
ENDBRANCH  24  35
ENDBRANCH   5  24
TORSDOF 10
ENDMDL
MODEL 3
REMARK VINA RESULT:      -7.5      5.348      9.091
REMARK  Name = 
REMARK  10 active torsions:
REMARK  status: ('A' for Active; 'I' for Inactive)
REMARK    1  A    between atoms: C_2  and  C_3
REMARK    2  A    between atoms: C_3  and  C_14
REMARK    3  A    between atoms: C_4  and  N_5
REMARK    4  A    between atoms: C_4  and  S_6
REMARK    5  A    between atoms: S_6  and  C_7
REMARK    6  A    between atoms: C_12  and  N_13
REMARK    7  A    between atoms: C_18  and  C_19
REMARK    8  A    between atoms: C_19  and  O_20
REMARK    9  A    between atoms: C_19  and  C_21
REMARK   10  A    between atoms: C_24  and  C_25
REMARK                            x       y       z     vdW  Elec       q    Type
REMARK                         _______ _______ _______ _____ _____    ______ ____
ROOT
ATOM      1  C   UNL     1       2.032   6.634  19.889  0.00  0.00    +0.000 A 
ATOM      2  C   UNL     1       1.158   5.702  20.462  0.00  0.00    +0.000 A 
ATOM      3  C   UNL     1       1.551   4.370  20.608  0.00  0.00    +0.000 A 
ATOM      4  C   UNL     1       2.818   3.962  20.186  0.00  0.00    +0.000 A 
ATOM      5  C   UNL     1       3.693   4.868  19.569  0.00  0.00    +0.000 A 
ATOM      6  C   UNL     1       3.277   6.201  19.404  0.00  0.00    +0.000 A 
ENDROOT
BRANCH   1   7
ATOM      7  C   UNL     1       1.731   8.086  19.924  0.00  0.00    +0.000 C 
ATOM      8  C   UNL     1       1.808   8.864  18.815  0.00  0.00    +0.000 C 
BRANCH   8   9
ATOM      9  N   UNL     1       2.183   8.378  17.566  0.00  0.00    +0.000 N 
ATOM     10  H   UNL     1       3.156   8.092  17.515  0.00  0.00    +0.000 HD
ATOM     11  H   UNL     1       1.548   7.641  17.262  0.00  0.00    +0.000 HD
ENDBRANCH   8   9
BRANCH   7  13
ATOM     12  N   UNL     1       1.207   9.023  22.287  0.00  0.00    +0.000 NA
ATOM     13  C   UNL     1       1.425   8.604  21.222  0.00  0.00    +0.000 C 
ENDBRANCH   7  13
BRANCH   8  14
ATOM     14  S   UNL     1       1.540  10.618  18.945  0.00  0.00    +0.000 S 
BRANCH  14  15
ATOM     15  C   UNL     1      -0.218  10.715  18.574  0.00  0.00    +0.000 A 
ATOM     16  C   UNL     1      -0.755   9.839  17.616  0.00  0.00    +0.000 A 
ATOM     17  C   UNL     1      -2.122   9.839  17.336  0.00  0.00    +0.000 A 
ATOM     18  C   UNL     1      -2.969  10.707  18.015  0.00  0.00    +0.000 A 
ATOM     19  C   UNL     1      -2.450  11.566  18.987  0.00  0.00    +0.000 A 
ATOM     20  C   UNL     1      -1.085  11.548  19.313  0.00  0.00    +0.000 A 
BRANCH  20  21
ATOM     21  N   UNL     1      -0.591  12.506  20.228  0.00  0.00    +0.000 N 
ATOM     22  H   UNL     1       0.316  12.874  19.952  0.00  0.00    +0.000 HD
ATOM     23  H   UNL     1      -1.270  13.253  20.367  0.00  0.00    +0.000 HD
ENDBRANCH  20  21
ENDBRANCH  14  15
ENDBRANCH   8  14
ENDBRANCH   1   7
BRANCH   5  24
ATOM     24  C   UNL     1       5.090   4.416  19.165  0.00  0.00    +0.000 C 
BRANCH  24  25
ATOM     25  C   UNL     1       5.381   4.423  17.668  0.00  0.00    +0.000 A 
ATOM     26  C   UNL     1       6.676   4.632  17.167  0.00  0.00    +0.000 A 
ATOM     27  C   UNL     1       6.946   4.537  15.800  0.00  0.00    +0.000 A 
ATOM     28  C   UNL     1       5.931   4.204  14.896  0.00  0.00    +0.000 A 
ATOM     29  C   UNL     1       4.633   4.005  15.383  0.00  0.00    +0.000 A 
ATOM     30  C   UNL     1       4.363   4.112  16.751  0.00  0.00    +0.000 A 
BRANCH  28  31
ATOM     31  C   UNL     1       6.229   4.026  13.428  0.00  0.00    +0.000 C 
ATOM     32  F   UNL     1       7.191   4.872  12.961  0.00  0.00    +0.000 F 
ATOM     33  F   UNL     1       6.673   2.770  13.140  0.00  0.00    +0.000 F 
ATOM     34  F   UNL     1       5.139   4.227  12.639  0.00  0.00    +0.000 F 
ENDBRANCH  28  31
ENDBRANCH  24  25
BRANCH  24  35
ATOM     35  O   UNL     1       5.357   3.119  19.704  0.00  0.00    +0.000 OA
ATOM     36  H   UNL     1       6.277   3.107  20.012  0.00  0.00    +0.000 HD
ENDBRANCH  24  35
ENDBRANCH   5  24
TORSDOF 10
ENDMDL
MODEL 4
REMARK VINA RESULT:      -7.5      2.263      2.953
REMARK  Name = 
REMARK  10 active torsions:
REMARK  status: ('A' for Active; 'I' for Inactive)
REMARK    1  A    between atoms: C_2  and  C_3
REMARK    2  A    between atoms: C_3  and  C_14
REMARK    3  A    between atoms: C_4  and  N_5
REMARK    4  A    between atoms: C_4  and  S_6
REMARK    5  A    between atoms: S_6  and  C_7
REMARK    6  A    between atoms: C_12  and  N_13
REMARK    7  A    between atoms: C_18  and  C_19
REMARK    8  A    between atoms: C_19  and  O_20
REMARK    9  A    between atoms: C_19  and  C_21
REMARK   10  A    between atoms: C_24  and  C_25
REMARK                            x       y       z     vdW  Elec       q    Type
REMARK                         _______ _______ _______ _____ _____    ______ ____
ROOT
ATOM      1  C   UNL     1       2.179   6.930  18.826  0.00  0.00    +0.000 A 
ATOM      2  C   UNL     1       2.263   7.930  17.849  0.00  0.00    +0.000 A 
ATOM      3  C   UNL     1       1.908   9.244  18.160  0.00  0.00    +0.000 A 
ATOM      4  C   UNL     1       1.469   9.568  19.445  0.00  0.00    +0.000 A 
ATOM      5  C   UNL     1       1.334   8.575  20.427  0.00  0.00    +0.000 A 
ATOM      6  C   UNL     1       1.670   7.250  20.095  0.00  0.00    +0.000 A 
ENDROOT
BRANCH   1   7
ATOM      7  C   UNL     1       2.755   5.584  18.591  0.00  0.00    +0.000 C 
ATOM      8  C   UNL     1       4.030   5.275  18.940  0.00  0.00    +0.000 C 
BRANCH   8   9
ATOM      9  N   UNL     1       4.901   6.187  19.529  0.00  0.00    +0.000 N 
ATOM     10  H   UNL     1       4.882   6.171  20.544  0.00  0.00    +0.000 HD
ATOM     11  H   UNL     1       5.844   6.073  19.160  0.00  0.00    +0.000 HD
ENDBRANCH   8   9
BRANCH   7  13
ATOM     12  N   UNL     1       1.183   3.945  17.333  0.00  0.00    +0.000 NA
ATOM     13  C   UNL     1       1.890   4.670  17.912  0.00  0.00    +0.000 C 
ENDBRANCH   7  13
BRANCH   8  14
ATOM     14  S   UNL     1       4.697   3.678  18.533  0.00  0.00    +0.000 S 
BRANCH  14  15
ATOM     15  C   UNL     1       5.560   4.057  17.000  0.00  0.00    +0.000 A 
ATOM     16  C   UNL     1       4.831   4.068  15.800  0.00  0.00    +0.000 A 
ATOM     17  C   UNL     1       5.445   4.410  14.595  0.00  0.00    +0.000 A 
ATOM     18  C   UNL     1       6.792   4.756  14.577  0.00  0.00    +0.000 A 
ATOM     19  C   UNL     1       7.521   4.772  15.768  0.00  0.00    +0.000 A 
ATOM     20  C   UNL     1       6.909   4.473  16.995  0.00  0.00    +0.000 A 
BRANCH  20  21
ATOM     21  N   UNL     1       7.711   4.403  18.156  0.00  0.00    +0.000 N 
ATOM     22  H   UNL     1       7.591   5.212  18.760  0.00  0.00    +0.000 HD
ATOM     23  H   UNL     1       7.539   3.534  18.660  0.00  0.00    +0.000 HD
ENDBRANCH  20  21
ENDBRANCH  14  15
ENDBRANCH   8  14
ENDBRANCH   1   7
BRANCH   5  24
ATOM     24  C   UNL     1       0.906   8.957  21.837  0.00  0.00    +0.000 C 
BRANCH  24  25
ATOM     25  C   UNL     1      -0.090  10.107  21.937  0.00  0.00    +0.000 A 
ATOM     26  C   UNL     1      -0.471  10.855  20.811  0.00  0.00    +0.000 A 
ATOM     27  C   UNL     1      -1.458  11.840  20.898  0.00  0.00    +0.000 A 
ATOM     28  C   UNL     1      -2.112  12.087  22.110  0.00  0.00    +0.000 A 
ATOM     29  C   UNL     1      -1.732  11.355  23.243  0.00  0.00    +0.000 A 
ATOM     30  C   UNL     1      -0.736  10.378  23.156  0.00  0.00    +0.000 A 
BRANCH  28  31
ATOM     31  C   UNL     1      -3.230  13.096  22.195  0.00  0.00    +0.000 C 
ATOM     32  F   UNL     1      -3.407  13.811  21.049  0.00  0.00    +0.000 F 
ATOM     33  F   UNL     1      -4.434  12.512  22.453  0.00  0.00    +0.000 F 
ATOM     34  F   UNL     1      -3.041  14.012  23.183  0.00  0.00    +0.000 F 
ENDBRANCH  28  31
ENDBRANCH  24  25
BRANCH  24  35
ATOM     35  O   UNL     1       2.056   9.241  22.636  0.00  0.00    +0.000 OA
ATOM     36  H   UNL     1       2.840   9.148  22.073  0.00  0.00    +0.000 HD
ENDBRANCH  24  35
ENDBRANCH   5  24
TORSDOF 10
ENDMDL
MODEL 5
REMARK VINA RESULT:      -7.5      2.651      3.434
REMARK  Name = 
REMARK  10 active torsions:
REMARK  status: ('A' for Active; 'I' for Inactive)
REMARK    1  A    between atoms: C_2  and  C_3
REMARK    2  A    between atoms: C_3  and  C_14
REMARK    3  A    between atoms: C_4  and  N_5
REMARK    4  A    between atoms: C_4  and  S_6
REMARK    5  A    between atoms: S_6  and  C_7
REMARK    6  A    between atoms: C_12  and  N_13
REMARK    7  A    between atoms: C_18  and  C_19
REMARK    8  A    between atoms: C_19  and  O_20
REMARK    9  A    between atoms: C_19  and  C_21
REMARK   10  A    between atoms: C_24  and  C_25
REMARK                            x       y       z     vdW  Elec       q    Type
REMARK                         _______ _______ _______ _____ _____    ______ ____
ROOT
ATOM      1  C   UNL     1       2.153   6.877  18.875  0.00  0.00    +0.000 A 
ATOM      2  C   UNL     1       2.122   7.858  17.876  0.00  0.00    +0.000 A 
ATOM      3  C   UNL     1       1.764   9.170  18.193  0.00  0.00    +0.000 A 
ATOM      4  C   UNL     1       1.438   9.510  19.506  0.00  0.00    +0.000 A 
ATOM      5  C   UNL     1       1.420   8.536  20.515  0.00  0.00    +0.000 A 
ATOM      6  C   UNL     1       1.757   7.212  20.180  0.00  0.00    +0.000 A 
ENDROOT
BRANCH   1   7
ATOM      7  C   UNL     1       2.739   5.540  18.614  0.00  0.00    +0.000 C 
ATOM      8  C   UNL     1       4.019   5.236  18.950  0.00  0.00    +0.000 C 
BRANCH   8   9
ATOM      9  N   UNL     1       4.886   6.144  19.550  0.00  0.00    +0.000 N 
ATOM     10  H   UNL     1       4.598   7.112  19.447  0.00  0.00    +0.000 HD
ATOM     11  H   UNL     1       5.051   5.893  20.523  0.00  0.00    +0.000 HD
ENDBRANCH   8   9
BRANCH   7  13
ATOM     12  N   UNL     1       1.156   3.890  17.386  0.00  0.00    +0.000 NA
ATOM     13  C   UNL     1       1.877   4.631  17.923  0.00  0.00    +0.000 C 
ENDBRANCH   7  13
BRANCH   8  14
ATOM     14  S   UNL     1       4.696   3.651  18.511  0.00  0.00    +0.000 S 
BRANCH  14  15
ATOM     15  C   UNL     1       5.555   4.066  16.986  0.00  0.00    +0.000 A 
ATOM     16  C   UNL     1       4.824   4.103  15.788  0.00  0.00    +0.000 A 
ATOM     17  C   UNL     1       5.435   4.474  14.589  0.00  0.00    +0.000 A 
ATOM     18  C   UNL     1       6.781   4.821  14.576  0.00  0.00    +0.000 A 
ATOM     19  C   UNL     1       7.513   4.811  15.766  0.00  0.00    +0.000 A 
ATOM     20  C   UNL     1       6.904   4.483  16.987  0.00  0.00    +0.000 A 
BRANCH  20  21
ATOM     21  N   UNL     1       7.708   4.387  18.145  0.00  0.00    +0.000 N 
ATOM     22  H   UNL     1       8.326   5.188  18.255  0.00  0.00    +0.000 HD
ATOM     23  H   UNL     1       7.132   4.244  18.973  0.00  0.00    +0.000 HD
ENDBRANCH  20  21
ENDBRANCH  14  15
ENDBRANCH   8  14
ENDBRANCH   1   7
BRANCH   5  24
ATOM     24  C   UNL     1       1.115   8.938  21.952  0.00  0.00    +0.000 C 
BRANCH  24  25
ATOM     25  C   UNL     1       0.189  10.138  22.120  0.00  0.00    +0.000 A 
ATOM     26  C   UNL     1      -0.870  10.132  23.044  0.00  0.00    +0.000 A 
ATOM     27  C   UNL     1      -1.647  11.272  23.259  0.00  0.00    +0.000 A 
ATOM     28  C   UNL     1      -1.371  12.462  22.575  0.00  0.00    +0.000 A 
ATOM     29  C   UNL     1      -0.325  12.476  21.643  0.00  0.00    +0.000 A 
ATOM     30  C   UNL     1       0.445  11.330  21.421  0.00  0.00    +0.000 A 
BRANCH  28  31
ATOM     31  C   UNL     1      -2.157  13.718  22.857  0.00  0.00    +0.000 C 
ATOM     32  F   UNL     1      -2.997  13.606  23.925  0.00  0.00    +0.000 F 
ATOM     33  F   UNL     1      -1.351  14.781  23.132  0.00  0.00    +0.000 F 
ATOM     34  F   UNL     1      -2.935  14.100  21.807  0.00  0.00    +0.000 F 
ENDBRANCH  28  31
ENDBRANCH  24  25
BRANCH  24  35
ATOM     35  O   UNL     1       2.333   9.163  22.664  0.00  0.00    +0.000 OA
ATOM     36  H   UNL     1       2.218   9.956  23.210  0.00  0.00    +0.000 HD
ENDBRANCH  24  35
ENDBRANCH   5  24
TORSDOF 10
ENDMDL
MODEL 6
REMARK VINA RESULT:      -7.4      1.976      2.707
REMARK  Name = 
REMARK  10 active torsions:
REMARK  status: ('A' for Active; 'I' for Inactive)
REMARK    1  A    between atoms: C_2  and  C_3
REMARK    2  A    between atoms: C_3  and  C_14
REMARK    3  A    between atoms: C_4  and  N_5
REMARK    4  A    between atoms: C_4  and  S_6
REMARK    5  A    between atoms: S_6  and  C_7
REMARK    6  A    between atoms: C_12  and  N_13
REMARK    7  A    between atoms: C_18  and  C_19
REMARK    8  A    between atoms: C_19  and  O_20
REMARK    9  A    between atoms: C_19  and  C_21
REMARK   10  A    between atoms: C_24  and  C_25
REMARK                            x       y       z     vdW  Elec       q    Type
REMARK                         _______ _______ _______ _____ _____    ______ ____
ROOT
ATOM      1  C   UNL     1       1.575   8.149  20.291  0.00  0.00    +0.000 A 
ATOM      2  C   UNL     1       1.186   8.047  21.633  0.00  0.00    +0.000 A 
ATOM      3  C   UNL     1       0.355   9.017  22.197  0.00  0.00    +0.000 A 
ATOM      4  C   UNL     1      -0.096  10.089  21.426  0.00  0.00    +0.000 A 
ATOM      5  C   UNL     1       0.315  10.236  20.093  0.00  0.00    +0.000 A 
ATOM      6  C   UNL     1       1.174   9.267  19.543  0.00  0.00    +0.000 A 
ENDROOT
BRANCH   1   7
ATOM      7  C   UNL     1       2.268   7.028  19.610  0.00  0.00    +0.000 C 
ATOM      8  C   UNL     1       2.805   7.161  18.370  0.00  0.00    +0.000 C 
BRANCH   8   9
ATOM      9  N   UNL     1       2.743   8.340  17.634  0.00  0.00    +0.000 N 
ATOM     10  H   UNL     1       2.847   9.178  18.198  0.00  0.00    +0.000 HD
ATOM     11  H   UNL     1       3.402   8.314  16.858  0.00  0.00    +0.000 HD
ENDBRANCH   8   9
BRANCH   7  13
ATOM     12  N   UNL     1       2.279   4.773  20.895  0.00  0.00    +0.000 NA
ATOM     13  C   UNL     1       2.262   5.792  20.329  0.00  0.00    +0.000 C 
ENDBRANCH   7  13
BRANCH   8  14
ATOM     14  S   UNL     1       3.527   5.750  17.564  0.00  0.00    +0.000 S 
BRANCH  14  15
ATOM     15  C   UNL     1       5.271   6.018  17.920  0.00  0.00    +0.000 A 
ATOM     16  C   UNL     1       5.943   7.054  17.252  0.00  0.00    +0.000 A 
ATOM     17  C   UNL     1       7.281   7.336  17.536  0.00  0.00    +0.000 A 
ATOM     18  C   UNL     1       7.956   6.593  18.497  0.00  0.00    +0.000 A 
ATOM     19  C   UNL     1       7.291   5.575  19.185  0.00  0.00    +0.000 A 
ATOM     20  C   UNL     1       5.934   5.308  18.943  0.00  0.00    +0.000 A 
BRANCH  20  21
ATOM     21  N   UNL     1       5.333   4.204  19.589  0.00  0.00    +0.000 N 
ATOM     22  H   UNL     1       5.027   4.425  20.533  0.00  0.00    +0.000 HD
ATOM     23  H   UNL     1       4.569   3.831  19.028  0.00  0.00    +0.000 HD
ENDBRANCH  20  21
ENDBRANCH  14  15
ENDBRANCH   8  14
ENDBRANCH   1   7
BRANCH   5  24
ATOM     24  C   UNL     1      -0.230  11.383  19.253  0.00  0.00    +0.000 C 
BRANCH  24  25
ATOM     25  C   UNL     1      -1.744  11.409  19.073  0.00  0.00    +0.000 A 
ATOM     26  C   UNL     1      -2.553  12.338  19.748  0.00  0.00    +0.000 A 
ATOM     27  C   UNL     1      -3.925  12.416  19.499  0.00  0.00    +0.000 A 
ATOM     28  C   UNL     1      -4.524  11.586  18.544  0.00  0.00    +0.000 A 
ATOM     29  C   UNL     1      -3.729  10.648  17.873  0.00  0.00    +0.000 A 
ATOM     30  C   UNL     1      -2.357  10.563  18.133  0.00  0.00    +0.000 A 
BRANCH  28  31
ATOM     31  C   UNL     1      -5.990  11.716  18.215  0.00  0.00    +0.000 C 
ATOM     32  F   UNL     1      -6.235  12.476  17.111  0.00  0.00    +0.000 F 
ATOM     33  F   UNL     1      -6.572  10.509  17.968  0.00  0.00    +0.000 F 
ATOM     34  F   UNL     1      -6.710  12.278  19.224  0.00  0.00    +0.000 F 
ENDBRANCH  28  31
ENDBRANCH  24  25
BRANCH  24  35
ATOM     35  O   UNL     1       0.410  11.399  17.976  0.00  0.00    +0.000 OA
ATOM     36  H   UNL     1       1.275  10.970  18.069  0.00  0.00    +0.000 HD
ENDBRANCH  24  35
ENDBRANCH   5  24
TORSDOF 10
ENDMDL
MODEL 7
REMARK VINA RESULT:      -7.4      2.022      2.803
REMARK  Name = 
REMARK  10 active torsions:
REMARK  status: ('A' for Active; 'I' for Inactive)
REMARK    1  A    between atoms: C_2  and  C_3
REMARK    2  A    between atoms: C_3  and  C_14
REMARK    3  A    between atoms: C_4  and  N_5
REMARK    4  A    between atoms: C_4  and  S_6
REMARK    5  A    between atoms: S_6  and  C_7
REMARK    6  A    between atoms: C_12  and  N_13
REMARK    7  A    between atoms: C_18  and  C_19
REMARK    8  A    between atoms: C_19  and  O_20
REMARK    9  A    between atoms: C_19  and  C_21
REMARK   10  A    between atoms: C_24  and  C_25
REMARK                            x       y       z     vdW  Elec       q    Type
REMARK                         _______ _______ _______ _____ _____    ______ ____
ROOT
ATOM      1  C   UNL     1       1.456   8.218  20.400  0.00  0.00    +0.000 A 
ATOM      2  C   UNL     1       1.153   8.223  21.768  0.00  0.00    +0.000 A 
ATOM      3  C   UNL     1       0.396   9.261  22.314  0.00  0.00    +0.000 A 
ATOM      4  C   UNL     1      -0.064  10.298  21.500  0.00  0.00    +0.000 A 
ATOM      5  C   UNL     1       0.264  10.337  20.137  0.00  0.00    +0.000 A 
ATOM      6  C   UNL     1       1.049   9.300  19.603  0.00  0.00    +0.000 A 
ENDROOT
BRANCH   1   7
ATOM      7  C   UNL     1       2.062   7.027  19.757  0.00  0.00    +0.000 C 
ATOM      8  C   UNL     1       2.630   7.085  18.525  0.00  0.00    +0.000 C 
BRANCH   8   9
ATOM      9  N   UNL     1       2.683   8.248  17.763  0.00  0.00    +0.000 N 
ATOM     10  H   UNL     1       3.446   8.263  17.094  0.00  0.00    +0.000 HD
ATOM     11  H   UNL     1       1.783   8.432  17.324  0.00  0.00    +0.000 HD
ENDBRANCH   8   9
BRANCH   7  13
ATOM     12  N   UNL     1       1.847   4.838  21.134  0.00  0.00    +0.000 NA
ATOM     13  C   UNL     1       1.937   5.813  20.501  0.00  0.00    +0.000 C 
ENDBRANCH   7  13
BRANCH   8  14
ATOM     14  S   UNL     1       3.242   5.599  17.763  0.00  0.00    +0.000 S 
BRANCH  14  15
ATOM     15  C   UNL     1       5.014   5.809  17.998  0.00  0.00    +0.000 A 
ATOM     16  C   UNL     1       5.588   5.384  19.207  0.00  0.00    +0.000 A 
ATOM     17  C   UNL     1       6.966   5.474  19.413  0.00  0.00    +0.000 A 
ATOM     18  C   UNL     1       7.784   5.980  18.410  0.00  0.00    +0.000 A 
ATOM     19  C   UNL     1       7.227   6.385  17.195  0.00  0.00    +0.000 A 
ATOM     20  C   UNL     1       5.850   6.259  16.954  0.00  0.00    +0.000 A 
BRANCH  20  21
ATOM     21  N   UNL     1       5.320   6.775  15.750  0.00  0.00    +0.000 N 
ATOM     22  H   UNL     1       4.350   7.067  15.847  0.00  0.00    +0.000 HD
ATOM     23  H   UNL     1       5.903   7.532  15.396  0.00  0.00    +0.000 HD
ENDBRANCH  20  21
ENDBRANCH  14  15
ENDBRANCH   8  14
ENDBRANCH   1   7
BRANCH   5  24
ATOM     24  C   UNL     1      -0.292  11.448  19.255  0.00  0.00    +0.000 C 
BRANCH  24  25
ATOM     25  C   UNL     1      -1.805  11.441  19.059  0.00  0.00    +0.000 A 
ATOM     26  C   UNL     1      -2.643  12.338  19.740  0.00  0.00    +0.000 A 
ATOM     27  C   UNL     1      -4.013  12.389  19.477  0.00  0.00    +0.000 A 
ATOM     28  C   UNL     1      -4.582  11.560  18.503  0.00  0.00    +0.000 A 
ATOM     29  C   UNL     1      -3.758  10.653  17.825  0.00  0.00    +0.000 A 
ATOM     30  C   UNL     1      -2.387  10.596  18.098  0.00  0.00    +0.000 A 
BRANCH  28  31
ATOM     31  C   UNL     1      -6.047  11.661  18.159  0.00  0.00    +0.000 C 
ATOM     32  F   UNL     1      -6.282  12.170  16.917  0.00  0.00    +0.000 F 
ATOM     33  F   UNL     1      -6.667  10.448  18.183  0.00  0.00    +0.000 F 
ATOM     34  F   UNL     1      -6.739  12.451  19.025  0.00  0.00    +0.000 F 
ENDBRANCH  28  31
ENDBRANCH  24  25
BRANCH  24  35
ATOM     35  O   UNL     1       0.361  11.434  17.985  0.00  0.00    +0.000 OA
ATOM     36  H   UNL     1       0.036  12.191  17.473  0.00  0.00    +0.000 HD
ENDBRANCH  24  35
ENDBRANCH   5  24
TORSDOF 10
ENDMDL
MODEL 8
REMARK VINA RESULT:      -7.4      5.408      9.192
REMARK  Name = 
REMARK  10 active torsions:
REMARK  status: ('A' for Active; 'I' for Inactive)
REMARK    1  A    between atoms: C_2  and  C_3
REMARK    2  A    between atoms: C_3  and  C_14
REMARK    3  A    between atoms: C_4  and  N_5
REMARK    4  A    between atoms: C_4  and  S_6
REMARK    5  A    between atoms: S_6  and  C_7
REMARK    6  A    between atoms: C_12  and  N_13
REMARK    7  A    between atoms: C_18  and  C_19
REMARK    8  A    between atoms: C_19  and  O_20
REMARK    9  A    between atoms: C_19  and  C_21
REMARK   10  A    between atoms: C_24  and  C_25
REMARK                            x       y       z     vdW  Elec       q    Type
REMARK                         _______ _______ _______ _____ _____    ______ ____
ROOT
ATOM      1  C   UNL     1       1.986   7.131  19.840  0.00  0.00    +0.000 A 
ATOM      2  C   UNL     1       1.336   6.050  20.450  0.00  0.00    +0.000 A 
ATOM      3  C   UNL     1       1.950   4.797  20.490  0.00  0.00    +0.000 A 
ATOM      4  C   UNL     1       3.213   4.615  19.926  0.00  0.00    +0.000 A 
ATOM      5  C   UNL     1       3.864   5.671  19.272  0.00  0.00    +0.000 A 
ATOM      6  C   UNL     1       3.225   6.923  19.214  0.00  0.00    +0.000 A 
ENDROOT
BRANCH   1   7
ATOM      7  C   UNL     1       1.462   8.512  19.976  0.00  0.00    +0.000 C 
ATOM      8  C   UNL     1       1.350   9.348  18.912  0.00  0.00    +0.000 C 
BRANCH   8   9
ATOM      9  N   UNL     1       1.722   8.991  17.620  0.00  0.00    +0.000 N 
ATOM     10  H   UNL     1       0.986   9.122  16.933  0.00  0.00    +0.000 HD
ATOM     11  H   UNL     1       2.586   9.460  17.352  0.00  0.00    +0.000 HD
ENDBRANCH   8   9
BRANCH   7  13
ATOM     12  N   UNL     1       0.927   9.210  22.418  0.00  0.00    +0.000 NA
ATOM     13  C   UNL     1       1.156   8.909  21.316  0.00  0.00    +0.000 C 
ENDBRANCH   7  13
BRANCH   8  14
ATOM     14  S   UNL     1       0.818  11.027  19.159  0.00  0.00    +0.000 S 
BRANCH  14  15
ATOM     15  C   UNL     1      -0.881  10.928  18.572  0.00  0.00    +0.000 A 
ATOM     16  C   UNL     1      -1.234   9.883  17.703  0.00  0.00    +0.000 A 
ATOM     17  C   UNL     1      -2.551   9.734  17.266  0.00  0.00    +0.000 A 
ATOM     18  C   UNL     1      -3.530  10.619  17.701  0.00  0.00    +0.000 A 
ATOM     19  C   UNL     1      -3.195  11.648  18.584  0.00  0.00    +0.000 A 
ATOM     20  C   UNL     1      -1.885  11.786  19.069  0.00  0.00    +0.000 A 
BRANCH  20  21
ATOM     21  N   UNL     1      -1.574  12.901  19.878  0.00  0.00    +0.000 N 
ATOM     22  H   UNL     1      -0.817  13.461  19.493  0.00  0.00    +0.000 HD
ATOM     23  H   UNL     1      -2.405  13.466  20.048  0.00  0.00    +0.000 HD
ENDBRANCH  20  21
ENDBRANCH  14  15
ENDBRANCH   8  14
ENDBRANCH   1   7
BRANCH   5  24
ATOM     24  C   UNL     1       5.265   5.467  18.710  0.00  0.00    +0.000 C 
BRANCH  24  25
ATOM     25  C   UNL     1       5.336   5.065  17.241  0.00  0.00    +0.000 A 
ATOM     26  C   UNL     1       5.418   6.021  16.215  0.00  0.00    +0.000 A 
ATOM     27  C   UNL     1       5.583   5.638  14.883  0.00  0.00    +0.000 A 
ATOM     28  C   UNL     1       5.699   4.286  14.539  0.00  0.00    +0.000 A 
ATOM     29  C   UNL     1       5.608   3.323  15.553  0.00  0.00    +0.000 A 
ATOM     30  C   UNL     1       5.430   3.708  16.885  0.00  0.00    +0.000 A 
BRANCH  28  31
ATOM     31  C   UNL     1       5.953   3.868  13.112  0.00  0.00    +0.000 C 
ATOM     32  F   UNL     1       6.336   2.566  12.986  0.00  0.00    +0.000 F 
ATOM     33  F   UNL     1       4.845   4.004  12.330  0.00  0.00    +0.000 F 
ATOM     34  F   UNL     1       6.927   4.605  12.512  0.00  0.00    +0.000 F 
ENDBRANCH  28  31
ENDBRANCH  24  25
BRANCH  24  35
ATOM     35  O   UNL     1       5.975   4.518  19.507  0.00  0.00    +0.000 OA
ATOM     36  H   UNL     1       6.922   4.628  19.330  0.00  0.00    +0.000 HD
ENDBRANCH  24  35
ENDBRANCH   5  24
TORSDOF 10
ENDMDL
MODEL 9
REMARK VINA RESULT:      -7.4      5.388      9.171
REMARK  Name = 
REMARK  10 active torsions:
REMARK  status: ('A' for Active; 'I' for Inactive)
REMARK    1  A    between atoms: C_2  and  C_3
REMARK    2  A    between atoms: C_3  and  C_14
REMARK    3  A    between atoms: C_4  and  N_5
REMARK    4  A    between atoms: C_4  and  S_6
REMARK    5  A    between atoms: S_6  and  C_7
REMARK    6  A    between atoms: C_12  and  N_13
REMARK    7  A    between atoms: C_18  and  C_19
REMARK    8  A    between atoms: C_19  and  O_20
REMARK    9  A    between atoms: C_19  and  C_21
REMARK   10  A    between atoms: C_24  and  C_25
REMARK                            x       y       z     vdW  Elec       q    Type
REMARK                         _______ _______ _______ _____ _____    ______ ____
ROOT
ATOM      1  C   UNL     1       2.188   6.986  19.775  0.00  0.00    +0.000 A 
ATOM      2  C   UNL     1       1.517   5.877  20.307  0.00  0.00    +0.000 A 
ATOM      3  C   UNL     1       2.139   4.627  20.328  0.00  0.00    +0.000 A 
ATOM      4  C   UNL     1       3.431   4.476  19.823  0.00  0.00    +0.000 A 
ATOM      5  C   UNL     1       4.105   5.563  19.246  0.00  0.00    +0.000 A 
ATOM      6  C   UNL     1       3.460   6.811  19.205  0.00  0.00    +0.000 A 
ENDROOT
BRANCH   1   7
ATOM      7  C   UNL     1       1.646   8.357  19.940  0.00  0.00    +0.000 C 
ATOM      8  C   UNL     1       1.542   9.220  18.897  0.00  0.00    +0.000 C 
BRANCH   8   9
ATOM      9  N   UNL     1       1.940   8.903  17.602  0.00  0.00    +0.000 N 
ATOM     10  H   UNL     1       2.884   8.536  17.543  0.00  0.00    +0.000 HD
ATOM     11  H   UNL     1       1.260   8.288  17.158  0.00  0.00    +0.000 HD
ENDBRANCH   8   9
BRANCH   7  13
ATOM     12  N   UNL     1       1.054   8.976  22.390  0.00  0.00    +0.000 NA
ATOM     13  C   UNL     1       1.313   8.714  21.284  0.00  0.00    +0.000 C 
ENDBRANCH   7  13
BRANCH   8  14
ATOM     14  S   UNL     1       0.987  10.885  19.180  0.00  0.00    +0.000 S 
BRANCH  14  15
ATOM     15  C   UNL     1      -0.686  10.795  18.523  0.00  0.00    +0.000 A 
ATOM     16  C   UNL     1      -0.983   9.812  17.565  0.00  0.00    +0.000 A 
ATOM     17  C   UNL     1      -2.279   9.668  17.068  0.00  0.00    +0.000 A 
ATOM     18  C   UNL     1      -3.294  10.497  17.530  0.00  0.00    +0.000 A 
ATOM     19  C   UNL     1      -3.016  11.463  18.500  0.00  0.00    +0.000 A 
ATOM     20  C   UNL     1      -1.728  11.592  19.043  0.00  0.00    +0.000 A 
BRANCH  20  21
ATOM     21  N   UNL     1      -1.474  12.650  19.945  0.00  0.00    +0.000 N 
ATOM     22  H   UNL     1      -0.586  13.110  19.762  0.00  0.00    +0.000 HD
ATOM     23  H   UNL     1      -2.245  13.315  19.946  0.00  0.00    +0.000 HD
ENDBRANCH  20  21
ENDBRANCH  14  15
ENDBRANCH   8  14
ENDBRANCH   1   7
BRANCH   5  24
ATOM     24  C   UNL     1       5.534   5.390  18.749  0.00  0.00    +0.000 C 
BRANCH  24  25
ATOM     25  C   UNL     1       5.681   4.873  17.322  0.00  0.00    +0.000 A 
ATOM     26  C   UNL     1       4.591   4.344  16.612  0.00  0.00    +0.000 A 
ATOM     27  C   UNL     1       4.716   3.967  15.273  0.00  0.00    +0.000 A 
ATOM     28  C   UNL     1       5.930   4.134  14.596  0.00  0.00    +0.000 A 
ATOM     29  C   UNL     1       7.027   4.651  15.298  0.00  0.00    +0.000 A 
ATOM     30  C   UNL     1       6.903   5.017  16.642  0.00  0.00    +0.000 A 
BRANCH  28  31
ATOM     31  C   UNL     1       6.052   3.800  13.130  0.00  0.00    +0.000 C 
ATOM     32  F   UNL     1       6.994   4.539  12.480  0.00  0.00    +0.000 F 
ATOM     33  F   UNL     1       6.399   2.498  12.925  0.00  0.00    +0.000 F 
ATOM     34  F   UNL     1       4.890   3.988  12.447  0.00  0.00    +0.000 F 
ENDBRANCH  28  31
ENDBRANCH  24  25
BRANCH  24  35
ATOM     35  O   UNL     1       6.264   4.550  19.646  0.00  0.00    +0.000 OA
ATOM     36  H   UNL     1       5.816   4.571  20.506  0.00  0.00    +0.000 HD
ENDBRANCH  24  35
ENDBRANCH   5  24
TORSDOF 10
ENDMDL
