MODEL 1
REMARK VINA RESULT:      -9.0      0.000      0.000
REMARK  Name = 
REMARK  9 active torsions:
REMARK  status: ('A' for Active; 'I' for Inactive)
REMARK    1  A    between atoms: C_1  and  C_2
REMARK    2  A    between atoms: C_4  and  C_5
REMARK    3  A    between atoms: C_6  and  N_7
REMARK    4  A    between atoms: N_9  and  C_10
REMARK    5  A    between atoms: C_10  and  C_11
REMARK    6  A    between atoms: C_11  and  C_13
REMARK    7  A    between atoms: C_23  and  C_24
REMARK    8  A    between atoms: C_25  and  C_26
REMARK    9  A    between atoms: C_27  and  C_28
REMARK                            x       y       z     vdW  Elec       q    Type
REMARK                         _______ _______ _______ _____ _____    ______ ____
ROOT
ATOM      1  N   UNL     1      -1.321  11.556  18.637  0.00  0.00    +0.000 N 
ATOM      2  C   UNL     1      -0.772  10.375  18.966  0.00  0.00    +0.000 A 
ATOM      3  N   UNL     1       0.553  10.513  19.145  0.00  0.00    +0.000 N 
ATOM      4  C   UNL     1       0.916  11.813  18.792  0.00  0.00    +0.000 A 
ATOM      5  C   UNL     1       2.302  12.332  18.759  0.00  0.00    +0.000 C 
ATOM      6  C   UNL     1      -0.273  12.497  18.529  0.00  0.00    +0.000 A 
ATOM      7  C   UNL     1      -0.397  13.950  18.242  0.00  0.00    +0.000 C 
ENDROOT
BRANCH   1  13
ATOM      8  C   UNL     1      -7.110  11.778  18.093  0.00  0.00    +0.000 C 
ATOM      9  C   UNL     1      -5.612  11.784  18.185  0.00  0.00    +0.000 A 
ATOM     10  C   UNL     1      -4.812  11.394  17.115  0.00  0.00    +0.000 A 
ATOM     11  C   UNL     1      -3.403  11.335  17.222  0.00  0.00    +0.000 A 
ATOM     12  C   UNL     1      -2.699  10.871  15.973  0.00  0.00    +0.000 C 
ATOM     13  C   UNL     1      -2.796  11.714  18.449  0.00  0.00    +0.000 A 
ATOM     14  C   UNL     1      -3.592  12.227  19.491  0.00  0.00    +0.000 A 
ATOM     15  C   UNL     1      -3.107  12.920  20.729  0.00  0.00    +0.000 C 
ATOM     16  C   UNL     1      -4.995  12.196  19.359  0.00  0.00    +0.000 A 
ENDBRANCH   1  13
BRANCH   3  17
ATOM     17  C   UNL     1       1.455   9.440  19.668  0.00  0.00    +0.000 C 
BRANCH  17  18
ATOM     18  C   UNL     1       1.963   8.462  18.607  0.00  0.00    +0.000 C 
ATOM     19  O   UNL     1       2.277   8.829  17.473  0.00  0.00    +0.000 OA
BRANCH  18  20
ATOM     20  C   UNL     1       2.116   7.016  18.943  0.00  0.00    +0.000 A 
ATOM     21  C   UNL     1       1.923   6.638  20.277  0.00  0.00    +0.000 A 
ATOM     22  C   UNL     1       1.910   5.288  20.641  0.00  0.00    +0.000 A 
ATOM     23  C   UNL     1       2.078   4.297  19.674  0.00  0.00    +0.000 A 
ATOM     24  C   UNL     1       1.978   2.937  20.014  0.00  0.00    +0.000 A 
ATOM     25  C   UNL     1       2.128   1.953  19.041  0.00  0.00    +0.000 A 
ATOM     26  C   UNL     1       2.416   2.310  17.726  0.00  0.00    +0.000 A 
ATOM     27  C   UNL     1       2.532   3.656  17.377  0.00  0.00    +0.000 A 
ATOM     28  C   UNL     1       2.343   4.664  18.331  0.00  0.00    +0.000 A 
ATOM     29  C   UNL     1       2.376   6.031  17.982  0.00  0.00    +0.000 A 
ENDBRANCH  18  20
ENDBRANCH  17  18
ENDBRANCH   3  17
TORSDOF 4
ENDMDL
MODEL 2
REMARK VINA RESULT:      -8.9      0.218      1.647
REMARK  Name = 
REMARK  9 active torsions:
REMARK  status: ('A' for Active; 'I' for Inactive)
REMARK    1  A    between atoms: C_1  and  C_2
REMARK    2  A    between atoms: C_4  and  C_5
REMARK    3  A    between atoms: C_6  and  N_7
REMARK    4  A    between atoms: N_9  and  C_10
REMARK    5  A    between atoms: C_10  and  C_11
REMARK    6  A    between atoms: C_11  and  C_13
REMARK    7  A    between atoms: C_23  and  C_24
REMARK    8  A    between atoms: C_25  and  C_26
REMARK    9  A    between atoms: C_27  and  C_28
REMARK                            x       y       z     vdW  Elec       q    Type
REMARK                         _______ _______ _______ _____ _____    ______ ____
ROOT
ATOM      1  N   UNL     1      -1.373  11.505  18.650  0.00  0.00    +0.000 N 
ATOM      2  C   UNL     1      -0.803  10.331  18.965  0.00  0.00    +0.000 A 
ATOM      3  N   UNL     1       0.515  10.495  19.170  0.00  0.00    +0.000 N 
ATOM      4  C   UNL     1       0.854  11.810  18.850  0.00  0.00    +0.000 A 
ATOM      5  C   UNL     1       2.227  12.362  18.853  0.00  0.00    +0.000 C 
ATOM      6  C   UNL     1      -0.346  12.472  18.581  0.00  0.00    +0.000 A 
ATOM      7  C   UNL     1      -0.499  13.928  18.321  0.00  0.00    +0.000 C 
ENDROOT
BRANCH   1  13
ATOM      8  C   UNL     1      -7.035  12.385  17.636  0.00  0.00    +0.000 C 
ATOM      9  C   UNL     1      -5.596  12.098  17.947  0.00  0.00    +0.000 A 
ATOM     10  C   UNL     1      -5.039  12.404  19.185  0.00  0.00    +0.000 A 
ATOM     11  C   UNL     1      -3.667  12.196  19.456  0.00  0.00    +0.000 A 
ATOM     12  C   UNL     1      -3.232  12.605  20.840  0.00  0.00    +0.000 C 
ATOM     13  C   UNL     1      -2.848  11.633  18.440  0.00  0.00    +0.000 A 
ATOM     14  C   UNL     1      -3.432  11.207  17.232  0.00  0.00    +0.000 A 
ATOM     15  C   UNL     1      -2.788  10.358  16.179  0.00  0.00    +0.000 C 
ATOM     16  C   UNL     1      -4.788  11.504  16.985  0.00  0.00    +0.000 A 
ENDBRANCH   1  13
BRANCH   3  17
ATOM     17  C   UNL     1       1.434   9.433  19.687  0.00  0.00    +0.000 C 
BRANCH  17  18
ATOM     18  C   UNL     1       1.947   8.463  18.622  0.00  0.00    +0.000 C 
ATOM     19  O   UNL     1       2.259   8.836  17.489  0.00  0.00    +0.000 OA
BRANCH  18  20
ATOM     20  C   UNL     1       2.110   7.017  18.952  0.00  0.00    +0.000 A 
ATOM     21  C   UNL     1       1.939   6.635  20.288  0.00  0.00    +0.000 A 
ATOM     22  C   UNL     1       1.936   5.284  20.649  0.00  0.00    +0.000 A 
ATOM     23  C   UNL     1       2.091   4.295  19.678  0.00  0.00    +0.000 A 
ATOM     24  C   UNL     1       2.000   2.934  20.016  0.00  0.00    +0.000 A 
ATOM     25  C   UNL     1       2.137   1.953  19.039  0.00  0.00    +0.000 A 
ATOM     26  C   UNL     1       2.403   2.314  17.721  0.00  0.00    +0.000 A 
ATOM     27  C   UNL     1       2.510   3.660  17.372  0.00  0.00    +0.000 A 
ATOM     28  C   UNL     1       2.334   4.666  18.332  0.00  0.00    +0.000 A 
ATOM     29  C   UNL     1       2.357   6.034  17.985  0.00  0.00    +0.000 A 
ENDBRANCH  18  20
ENDBRANCH  17  18
ENDBRANCH   3  17
TORSDOF 4
ENDMDL
MODEL 3
REMARK VINA RESULT:      -8.7      0.895      1.490
REMARK  Name = 
REMARK  9 active torsions:
REMARK  status: ('A' for Active; 'I' for Inactive)
REMARK    1  A    between atoms: C_1  and  C_2
REMARK    2  A    between atoms: C_4  and  C_5
REMARK    3  A    between atoms: C_6  and  N_7
REMARK    4  A    between atoms: N_9  and  C_10
REMARK    5  A    between atoms: C_10  and  C_11
REMARK    6  A    between atoms: C_11  and  C_13
REMARK    7  A    between atoms: C_23  and  C_24
REMARK    8  A    between atoms: C_25  and  C_26
REMARK    9  A    between atoms: C_27  and  C_28
REMARK                            x       y       z     vdW  Elec       q    Type
REMARK                         _______ _______ _______ _____ _____    ______ ____
ROOT
ATOM      1  N   UNL     1      -1.370  11.528  18.678  0.00  0.00    +0.000 N 
ATOM      2  C   UNL     1      -0.842  10.322  18.946  0.00  0.00    +0.000 A 
ATOM      3  N   UNL     1       0.486  10.426  19.124  0.00  0.00    +0.000 N 
ATOM      4  C   UNL     1       0.872  11.735  18.834  0.00  0.00    +0.000 A 
ATOM      5  C   UNL     1       2.267  12.230  18.819  0.00  0.00    +0.000 C 
ATOM      6  C   UNL     1      -0.305  12.453  18.611  0.00  0.00    +0.000 A 
ATOM      7  C   UNL     1      -0.404  13.921  18.397  0.00  0.00    +0.000 C 
ENDROOT
BRANCH   1  13
ATOM      8  C   UNL     1      -7.157  11.885  18.186  0.00  0.00    +0.000 C 
ATOM      9  C   UNL     1      -5.659  11.858  18.266  0.00  0.00    +0.000 A 
ATOM     10  C   UNL     1      -4.875  11.482  17.179  0.00  0.00    +0.000 A 
ATOM     11  C   UNL     1      -3.466  11.391  17.273  0.00  0.00    +0.000 A 
ATOM     12  C   UNL     1      -2.781  10.948  16.007  0.00  0.00    +0.000 C 
ATOM     13  C   UNL     1      -2.843  11.722  18.507  0.00  0.00    +0.000 A 
ATOM     14  C   UNL     1      -3.620  12.221  19.569  0.00  0.00    +0.000 A 
ATOM     15  C   UNL     1      -3.112  12.868  20.822  0.00  0.00    +0.000 C 
ATOM     16  C   UNL     1      -5.025  12.223  19.447  0.00  0.00    +0.000 A 
ENDBRANCH   1  13
BRANCH   3  17
ATOM     17  C   UNL     1       1.371   9.313  19.589  0.00  0.00    +0.000 C 
BRANCH  17  18
ATOM     18  C   UNL     1       2.033   8.515  18.464  0.00  0.00    +0.000 C 
ATOM     19  O   UNL     1       2.300   9.019  17.371  0.00  0.00    +0.000 OA
BRANCH  18  20
ATOM     20  C   UNL     1       2.403   7.086  18.685  0.00  0.00    +0.000 A 
ATOM     21  C   UNL     1       3.369   6.529  17.839  0.00  0.00    +0.000 A 
ATOM     22  C   UNL     1       3.868   5.245  18.075  0.00  0.00    +0.000 A 
ATOM     23  C   UNL     1       3.417   4.503  19.166  0.00  0.00    +0.000 A 
ATOM     24  C   UNL     1       3.976   3.248  19.464  0.00  0.00    +0.000 A 
ATOM     25  C   UNL     1       3.534   2.522  20.566  0.00  0.00    +0.000 A 
ATOM     26  C   UNL     1       2.506   3.019  21.362  0.00  0.00    +0.000 A 
ATOM     27  C   UNL     1       1.932   4.257  21.071  0.00  0.00    +0.000 A 
ATOM     28  C   UNL     1       2.390   5.024  19.992  0.00  0.00    +0.000 A 
ATOM     29  C   UNL     1       1.879   6.313  19.729  0.00  0.00    +0.000 A 
ENDBRANCH  18  20
ENDBRANCH  17  18
ENDBRANCH   3  17
TORSDOF 4
ENDMDL
MODEL 4
REMARK VINA RESULT:      -8.6      0.930      2.226
REMARK  Name = 
REMARK  9 active torsions:
REMARK  status: ('A' for Active; 'I' for Inactive)
REMARK    1  A    between atoms: C_1  and  C_2
REMARK    2  A    between atoms: C_4  and  C_5
REMARK    3  A    between atoms: C_6  and  N_7
REMARK    4  A    between atoms: N_9  and  C_10
REMARK    5  A    between atoms: C_10  and  C_11
REMARK    6  A    between atoms: C_11  and  C_13
REMARK    7  A    between atoms: C_23  and  C_24
REMARK    8  A    between atoms: C_25  and  C_26
REMARK    9  A    between atoms: C_27  and  C_28
REMARK                            x       y       z     vdW  Elec       q    Type
REMARK                         _______ _______ _______ _____ _____    ______ ____
ROOT
ATOM      1  N   UNL     1      -1.410  11.528  18.617  0.00  0.00    +0.000 N 
ATOM      2  C   UNL     1      -0.853  10.333  18.875  0.00  0.00    +0.000 A 
ATOM      3  N   UNL     1       0.463  10.475  19.108  0.00  0.00    +0.000 N 
ATOM      4  C   UNL     1       0.816  11.802  18.865  0.00  0.00    +0.000 A 
ATOM      5  C   UNL     1       2.193  12.342  18.918  0.00  0.00    +0.000 C 
ATOM      6  C   UNL     1      -0.375  12.488  18.615  0.00  0.00    +0.000 A 
ATOM      7  C   UNL     1      -0.513  13.957  18.434  0.00  0.00    +0.000 C 
ENDROOT
BRANCH   1  13
ATOM      8  C   UNL     1      -7.049  12.505  17.565  0.00  0.00    +0.000 C 
ATOM      9  C   UNL     1      -5.616  12.192  17.883  0.00  0.00    +0.000 A 
ATOM     10  C   UNL     1      -5.073  12.444  19.139  0.00  0.00    +0.000 A 
ATOM     11  C   UNL     1      -3.706  12.212  19.420  0.00  0.00    +0.000 A 
ATOM     12  C   UNL     1      -3.286  12.563  20.823  0.00  0.00    +0.000 C 
ATOM     13  C   UNL     1      -2.881  11.679  18.393  0.00  0.00    +0.000 A 
ATOM     14  C   UNL     1      -3.452  11.306  17.162  0.00  0.00    +0.000 A 
ATOM     15  C   UNL     1      -2.803  10.490  16.085  0.00  0.00    +0.000 C 
ATOM     16  C   UNL     1      -4.802  11.626  16.910  0.00  0.00    +0.000 A 
ENDBRANCH   1  13
BRANCH   3  17
ATOM     17  C   UNL     1       1.366   9.378  19.578  0.00  0.00    +0.000 C 
BRANCH  17  18
ATOM     18  C   UNL     1       2.041   8.586  18.458  0.00  0.00    +0.000 C 
ATOM     19  O   UNL     1       2.322   9.094  17.371  0.00  0.00    +0.000 OA
BRANCH  18  20
ATOM     20  C   UNL     1       2.407   7.156  18.677  0.00  0.00    +0.000 A 
ATOM     21  C   UNL     1       3.368   6.596  17.826  0.00  0.00    +0.000 A 
ATOM     22  C   UNL     1       3.864   5.309  18.059  0.00  0.00    +0.000 A 
ATOM     23  C   UNL     1       3.415   4.569  19.152  0.00  0.00    +0.000 A 
ATOM     24  C   UNL     1       3.971   3.312  19.447  0.00  0.00    +0.000 A 
ATOM     25  C   UNL     1       3.532   2.586  20.550  0.00  0.00    +0.000 A 
ATOM     26  C   UNL     1       2.509   3.087  21.352  0.00  0.00    +0.000 A 
ATOM     27  C   UNL     1       1.938   4.327  21.064  0.00  0.00    +0.000 A 
ATOM     28  C   UNL     1       2.393   5.093  19.983  0.00  0.00    +0.000 A 
ATOM     29  C   UNL     1       1.886   6.384  19.723  0.00  0.00    +0.000 A 
ENDBRANCH  18  20
ENDBRANCH  17  18
ENDBRANCH   3  17
TORSDOF 4
ENDMDL
MODEL 5
REMARK VINA RESULT:      -8.3      2.348      3.755
REMARK  Name = 
REMARK  9 active torsions:
REMARK  status: ('A' for Active; 'I' for Inactive)
REMARK    1  A    between atoms: C_1  and  C_2
REMARK    2  A    between atoms: C_4  and  C_5
REMARK    3  A    between atoms: C_6  and  N_7
REMARK    4  A    between atoms: N_9  and  C_10
REMARK    5  A    between atoms: C_10  and  C_11
REMARK    6  A    between atoms: C_11  and  C_13
REMARK    7  A    between atoms: C_23  and  C_24
REMARK    8  A    between atoms: C_25  and  C_26
REMARK    9  A    between atoms: C_27  and  C_28
REMARK                            x       y       z     vdW  Elec       q    Type
REMARK                         _______ _______ _______ _____ _____    ______ ____
ROOT
ATOM      1  N   UNL     1      -0.250  11.445  20.256  0.00  0.00    +0.000 N 
ATOM      2  C   UNL     1      -0.112  10.267  19.626  0.00  0.00    +0.000 A 
ATOM      3  N   UNL     1       0.957  10.298  18.812  0.00  0.00    +0.000 N 
ATOM      4  C   UNL     1       1.473  11.594  18.805  0.00  0.00    +0.000 A 
ATOM      5  C   UNL     1       2.595  12.061  17.961  0.00  0.00    +0.000 C 
ATOM      6  C   UNL     1       0.753  12.310  19.765  0.00  0.00    +0.000 A 
ATOM      7  C   UNL     1       1.035  13.701  20.207  0.00  0.00    +0.000 C 
ENDROOT
BRANCH   1  13
ATOM      8  C   UNL     1      -4.187  12.687  24.356  0.00  0.00    +0.000 C 
ATOM      9  C   UNL     1      -3.204  12.294  23.293  0.00  0.00    +0.000 A 
ATOM     10  C   UNL     1      -2.176  11.391  23.545  0.00  0.00    +0.000 A 
ATOM     11  C   UNL     1      -1.209  11.071  22.564  0.00  0.00    +0.000 A 
ATOM     12  C   UNL     1      -0.155  10.093  23.017  0.00  0.00    +0.000 C 
ATOM     13  C   UNL     1      -1.316  11.671  21.280  0.00  0.00    +0.000 A 
ATOM     14  C   UNL     1      -2.424  12.486  20.982  0.00  0.00    +0.000 A 
ATOM     15  C   UNL     1      -2.839  12.970  19.626  0.00  0.00    +0.000 C 
ATOM     16  C   UNL     1      -3.318  12.831  22.017  0.00  0.00    +0.000 A 
ENDBRANCH   1  13
BRANCH   3  17
ATOM     17  C   UNL     1       1.498   9.113  18.075  0.00  0.00    +0.000 C 
BRANCH  17  18
ATOM     18  C   UNL     1       2.075   8.016  18.971  0.00  0.00    +0.000 C 
ATOM     19  O   UNL     1       1.858   7.976  20.183  0.00  0.00    +0.000 OA
BRANCH  18  20
ATOM     20  C   UNL     1       2.909   6.932  18.373  0.00  0.00    +0.000 A 
ATOM     21  C   UNL     1       2.585   5.611  18.703  0.00  0.00    +0.000 A 
ATOM     22  C   UNL     1       3.228   4.540  18.073  0.00  0.00    +0.000 A 
ATOM     23  C   UNL     1       4.193   4.776  17.095  0.00  0.00    +0.000 A 
ATOM     24  C   UNL     1       4.781   3.710  16.392  0.00  0.00    +0.000 A 
ATOM     25  C   UNL     1       5.731   3.953  15.404  0.00  0.00    +0.000 A 
ATOM     26  C   UNL     1       6.133   5.257  15.130  0.00  0.00    +0.000 A 
ATOM     27  C   UNL     1       5.569   6.325  15.829  0.00  0.00    +0.000 A 
ATOM     28  C   UNL     1       4.582   6.106  16.798  0.00  0.00    +0.000 A 
ATOM     29  C   UNL     1       3.940   7.177  17.458  0.00  0.00    +0.000 A 
ENDBRANCH  18  20
ENDBRANCH  17  18
ENDBRANCH   3  17
TORSDOF 4
ENDMDL
MODEL 6
REMARK VINA RESULT:      -8.1      1.984      3.227
REMARK  Name = 
REMARK  9 active torsions:
REMARK  status: ('A' for Active; 'I' for Inactive)
REMARK    1  A    between atoms: C_1  and  C_2
REMARK    2  A    between atoms: C_4  and  C_5
REMARK    3  A    between atoms: C_6  and  N_7
REMARK    4  A    between atoms: N_9  and  C_10
REMARK    5  A    between atoms: C_10  and  C_11
REMARK    6  A    between atoms: C_11  and  C_13
REMARK    7  A    between atoms: C_23  and  C_24
REMARK    8  A    between atoms: C_25  and  C_26
REMARK    9  A    between atoms: C_27  and  C_28
REMARK                            x       y       z     vdW  Elec       q    Type
REMARK                         _______ _______ _______ _____ _____    ______ ____
ROOT
ATOM      1  N   UNL     1      -0.840  11.725  19.729  0.00  0.00    +0.000 N 
ATOM      2  C   UNL     1      -0.641  10.535  19.139  0.00  0.00    +0.000 A 
ATOM      3  N   UNL     1       0.577  10.497  18.570  0.00  0.00    +0.000 N 
ATOM      4  C   UNL     1       1.156  11.762  18.678  0.00  0.00    +0.000 A 
ATOM      5  C   UNL     1       2.457  12.156  18.091  0.00  0.00    +0.000 C 
ATOM      6  C   UNL     1       0.292  12.526  19.465  0.00  0.00    +0.000 A 
ATOM      7  C   UNL     1       0.554  13.902  19.962  0.00  0.00    +0.000 C 
ENDROOT
BRANCH   1  13
ATOM      8  C   UNL     1      -5.588  13.298  22.703  0.00  0.00    +0.000 C 
ATOM      9  C   UNL     1      -4.376  12.817  21.961  0.00  0.00    +0.000 A 
ATOM     10  C   UNL     1      -3.214  12.436  22.626  0.00  0.00    +0.000 A 
ATOM     11  C   UNL     1      -2.048  12.047  21.925  0.00  0.00    +0.000 A 
ATOM     12  C   UNL     1      -0.878  11.690  22.805  0.00  0.00    +0.000 C 
ATOM     13  C   UNL     1      -2.084  12.020  20.505  0.00  0.00    +0.000 A 
ATOM     14  C   UNL     1      -3.293  12.283  19.833  0.00  0.00    +0.000 A 
ATOM     15  C   UNL     1      -3.582  12.035  18.383  0.00  0.00    +0.000 C 
ATOM     16  C   UNL     1      -4.403  12.736  20.574  0.00  0.00    +0.000 A 
ENDBRANCH   1  13
BRANCH   3  17
ATOM     17  C   UNL     1       1.192   9.277  17.960  0.00  0.00    +0.000 C 
BRANCH  17  18
ATOM     18  C   UNL     1       1.852   8.329  18.963  0.00  0.00    +0.000 C 
ATOM     19  O   UNL     1       1.697   8.449  20.179  0.00  0.00    +0.000 OA
BRANCH  18  20
ATOM     20  C   UNL     1       2.692   7.197  18.471  0.00  0.00    +0.000 A 
ATOM     21  C   UNL     1       2.384   5.914  18.937  0.00  0.00    +0.000 A 
ATOM     22  C   UNL     1       3.033   4.791  18.415  0.00  0.00    +0.000 A 
ATOM     23  C   UNL     1       3.989   4.934  17.410  0.00  0.00    +0.000 A 
ATOM     24  C   UNL     1       4.582   3.807  16.814  0.00  0.00    +0.000 A 
ATOM     25  C   UNL     1       5.522   3.957  15.800  0.00  0.00    +0.000 A 
ATOM     26  C   UNL     1       5.910   5.230  15.390  0.00  0.00    +0.000 A 
ATOM     27  C   UNL     1       5.340   6.359  15.981  0.00  0.00    +0.000 A 
ATOM     28  C   UNL     1       4.362   6.231  16.976  0.00  0.00    +0.000 A 
ATOM     29  C   UNL     1       3.715   7.357  17.528  0.00  0.00    +0.000 A 
ENDBRANCH  18  20
ENDBRANCH  17  18
ENDBRANCH   3  17
TORSDOF 4
ENDMDL
MODEL 7
REMARK VINA RESULT:      -8.1      2.532      4.420
REMARK  Name = 
REMARK  9 active torsions:
REMARK  status: ('A' for Active; 'I' for Inactive)
REMARK    1  A    between atoms: C_1  and  C_2
REMARK    2  A    between atoms: C_4  and  C_5
REMARK    3  A    between atoms: C_6  and  N_7
REMARK    4  A    between atoms: N_9  and  C_10
REMARK    5  A    between atoms: C_10  and  C_11
REMARK    6  A    between atoms: C_11  and  C_13
REMARK    7  A    between atoms: C_23  and  C_24
REMARK    8  A    between atoms: C_25  and  C_26
REMARK    9  A    between atoms: C_27  and  C_28
REMARK                            x       y       z     vdW  Elec       q    Type
REMARK                         _______ _______ _______ _____ _____    ______ ____
ROOT
ATOM      1  N   UNL     1      -0.561  12.024  20.087  0.00  0.00    +0.000 N 
ATOM      2  C   UNL     1       0.557  11.295  19.937  0.00  0.00    +0.000 A 
ATOM      3  N   UNL     1       0.421  10.443  18.906  0.00  0.00    +0.000 N 
ATOM      4  C   UNL     1      -0.890  10.520  18.436  0.00  0.00    +0.000 A 
ATOM      5  C   UNL     1      -1.466   9.670  17.370  0.00  0.00    +0.000 C 
ATOM      6  C   UNL     1      -1.500  11.563  19.137  0.00  0.00    +0.000 A 
ATOM      7  C   UNL     1      -2.861  12.105  18.885  0.00  0.00    +0.000 C 
ENDROOT
BRANCH   1  13
ATOM      8  C   UNL     1      -0.535  16.177  24.162  0.00  0.00    +0.000 C 
ATOM      9  C   UNL     1      -0.622  15.109  23.112  0.00  0.00    +0.000 A 
ATOM     10  C   UNL     1      -1.051  13.820  23.413  0.00  0.00    +0.000 A 
ATOM     11  C   UNL     1      -1.069  12.794  22.439  0.00  0.00    +0.000 A 
ATOM     12  C   UNL     1      -1.541  11.457  22.946  0.00  0.00    +0.000 C 
ATOM     13  C   UNL     1      -0.664  13.106  21.113  0.00  0.00    +0.000 A 
ATOM     14  C   UNL     1      -0.349  14.436  20.775  0.00  0.00    +0.000 A 
ATOM     15  C   UNL     1      -0.172  14.990  19.394  0.00  0.00    +0.000 C 
ATOM     16  C   UNL     1      -0.276  15.403  21.799  0.00  0.00    +0.000 A 
ENDBRANCH   1  13
BRANCH   3  17
ATOM     17  C   UNL     1       1.521   9.590  18.358  0.00  0.00    +0.000 C 
BRANCH  17  18
ATOM     18  C   UNL     1       1.853   8.359  19.203  0.00  0.00    +0.000 C 
ATOM     19  O   UNL     1       1.455   8.231  20.362  0.00  0.00    +0.000 OA
BRANCH  18  20
ATOM     20  C   UNL     1       2.661   7.251  18.614  0.00  0.00    +0.000 A 
ATOM     21  C   UNL     1       2.357   5.945  19.015  0.00  0.00    +0.000 A 
ATOM     22  C   UNL     1       2.973   4.849  18.403  0.00  0.00    +0.000 A 
ATOM     23  C   UNL     1       3.892   5.043  17.373  0.00  0.00    +0.000 A 
ATOM     24  C   UNL     1       4.450   3.948  16.690  0.00  0.00    +0.000 A 
ATOM     25  C   UNL     1       5.353   4.149  15.650  0.00  0.00    +0.000 A 
ATOM     26  C   UNL     1       5.739   5.441  15.302  0.00  0.00    +0.000 A 
ATOM     27  C   UNL     1       5.205   6.538  15.980  0.00  0.00    +0.000 A 
ATOM     28  C   UNL     1       4.263   6.360  17.002  0.00  0.00    +0.000 A 
ATOM     29  C   UNL     1       3.650   7.457  17.644  0.00  0.00    +0.000 A 
ENDBRANCH  18  20
ENDBRANCH  17  18
ENDBRANCH   3  17
TORSDOF 4
ENDMDL
MODEL 8
REMARK VINA RESULT:      -8.1      1.700      2.798
REMARK  Name = 
REMARK  9 active torsions:
REMARK  status: ('A' for Active; 'I' for Inactive)
REMARK    1  A    between atoms: C_1  and  C_2
REMARK    2  A    between atoms: C_4  and  C_5
REMARK    3  A    between atoms: C_6  and  N_7
REMARK    4  A    between atoms: N_9  and  C_10
REMARK    5  A    between atoms: C_10  and  C_11
REMARK    6  A    between atoms: C_11  and  C_13
REMARK    7  A    between atoms: C_23  and  C_24
REMARK    8  A    between atoms: C_25  and  C_26
REMARK    9  A    between atoms: C_27  and  C_28
REMARK                            x       y       z     vdW  Elec       q    Type
REMARK                         _______ _______ _______ _____ _____    ______ ____
ROOT
ATOM      1  N   UNL     1      -1.471  11.880  19.373  0.00  0.00    +0.000 N 
ATOM      2  C   UNL     1      -0.952  10.811  19.998  0.00  0.00    +0.000 A 
ATOM      3  N   UNL     1       0.322  11.052  20.351  0.00  0.00    +0.000 N 
ATOM      4  C   UNL     1       0.704  12.285  19.823  0.00  0.00    +0.000 A 
ATOM      5  C   UNL     1       2.062  12.867  19.909  0.00  0.00    +0.000 C 
ATOM      6  C   UNL     1      -0.445  12.843  19.256  0.00  0.00    +0.000 A 
ATOM      7  C   UNL     1      -0.559  14.212  18.688  0.00  0.00    +0.000 C 
ENDROOT
BRANCH   1  13
ATOM      8  C   UNL     1      -6.944  12.414  17.472  0.00  0.00    +0.000 C 
ATOM      9  C   UNL     1      -5.557  12.217  18.009  0.00  0.00    +0.000 A 
ATOM     10  C   UNL     1      -5.219  12.574  19.310  0.00  0.00    +0.000 A 
ATOM     11  C   UNL     1      -3.896  12.451  19.796  0.00  0.00    +0.000 A 
ATOM     12  C   UNL     1      -3.706  12.906  21.220  0.00  0.00    +0.000 C 
ATOM     13  C   UNL     1      -2.900  11.919  18.934  0.00  0.00    +0.000 A 
ATOM     14  C   UNL     1      -3.263  11.440  17.661  0.00  0.00    +0.000 A 
ATOM     15  C   UNL     1      -2.417  10.612  16.742  0.00  0.00    +0.000 C 
ATOM     16  C   UNL     1      -4.578  11.654  17.199  0.00  0.00    +0.000 A 
ENDBRANCH   1  13
BRANCH   3  17
ATOM     17  C   UNL     1       1.156  10.143  21.198  0.00  0.00    +0.000 C 
BRANCH  17  18
ATOM     18  C   UNL     1       0.909   8.651  20.964  0.00  0.00    +0.000 C 
ATOM     19  O   UNL     1       0.050   8.023  21.585  0.00  0.00    +0.000 OA
BRANCH  18  20
ATOM     20  C   UNL     1       1.705   7.920  19.935  0.00  0.00    +0.000 A 
ATOM     21  C   UNL     1       1.934   8.567  18.715  0.00  0.00    +0.000 A 
ATOM     22  C   UNL     1       2.787   8.007  17.759  0.00  0.00    +0.000 A 
ATOM     23  C   UNL     1       3.433   6.797  18.015  0.00  0.00    +0.000 A 
ATOM     24  C   UNL     1       4.360   6.269  17.101  0.00  0.00    +0.000 A 
ATOM     25  C   UNL     1       5.015   5.071  17.370  0.00  0.00    +0.000 A 
ATOM     26  C   UNL     1       4.727   4.367  18.536  0.00  0.00    +0.000 A 
ATOM     27  C   UNL     1       3.798   4.871  19.447  0.00  0.00    +0.000 A 
ATOM     28  C   UNL     1       3.158   6.096  19.216  0.00  0.00    +0.000 A 
ATOM     29  C   UNL     1       2.278   6.663  20.161  0.00  0.00    +0.000 A 
ENDBRANCH  18  20
ENDBRANCH  17  18
ENDBRANCH   3  17
TORSDOF 4
ENDMDL
MODEL 9
REMARK VINA RESULT:      -8.0      2.500      3.121
REMARK  Name = 
REMARK  9 active torsions:
REMARK  status: ('A' for Active; 'I' for Inactive)
REMARK    1  A    between atoms: C_1  and  C_2
REMARK    2  A    between atoms: C_4  and  C_5
REMARK    3  A    between atoms: C_6  and  N_7
REMARK    4  A    between atoms: N_9  and  C_10
REMARK    5  A    between atoms: C_10  and  C_11
REMARK    6  A    between atoms: C_11  and  C_13
REMARK    7  A    between atoms: C_23  and  C_24
REMARK    8  A    between atoms: C_25  and  C_26
REMARK    9  A    between atoms: C_27  and  C_28
REMARK                            x       y       z     vdW  Elec       q    Type
REMARK                         _______ _______ _______ _____ _____    ______ ____
ROOT
ATOM      1  N   UNL     1       0.034  11.513  20.218  0.00  0.00    +0.000 N 
ATOM      2  C   UNL     1      -0.103  10.438  19.424  0.00  0.00    +0.000 A 
ATOM      3  N   UNL     1       0.916  10.372  18.550  0.00  0.00    +0.000 N 
ATOM      4  C   UNL     1       1.692  11.524  18.686  0.00  0.00    +0.000 A 
ATOM      5  C   UNL     1       2.853  11.875  17.838  0.00  0.00    +0.000 C 
ATOM      6  C   UNL     1       1.176  12.220  19.782  0.00  0.00    +0.000 A 
ATOM      7  C   UNL     1       1.760  13.444  20.390  0.00  0.00    +0.000 C 
ENDROOT
BRANCH   1  13
ATOM      8  C   UNL     1      -3.957  12.333  24.371  0.00  0.00    +0.000 C 
ATOM      9  C   UNL     1      -2.888  12.184  23.329  0.00  0.00    +0.000 A 
ATOM     10  C   UNL     1      -2.762  13.085  22.276  0.00  0.00    +0.000 A 
ATOM     11  C   UNL     1      -1.798  12.909  21.256  0.00  0.00    +0.000 A 
ATOM     12  C   UNL     1      -1.819  13.967  20.184  0.00  0.00    +0.000 C 
ATOM     13  C   UNL     1      -0.920  11.795  21.334  0.00  0.00    +0.000 A 
ATOM     14  C   UNL     1      -0.961  10.952  22.461  0.00  0.00    +0.000 A 
ATOM     15  C   UNL     1       0.052   9.914  22.839  0.00  0.00    +0.000 C 
ATOM     16  C   UNL     1      -1.988  11.130  23.411  0.00  0.00    +0.000 A 
ENDBRANCH   1  13
BRANCH   3  17
ATOM     17  C   UNL     1       1.167   9.226  17.622  0.00  0.00    +0.000 C 
BRANCH  17  18
ATOM     18  C   UNL     1       2.402   8.390  17.964  0.00  0.00    +0.000 C 
ATOM     19  O   UNL     1       3.544   8.763  17.690  0.00  0.00    +0.000 OA
BRANCH  18  20
ATOM     20  C   UNL     1       2.242   7.089  18.679  0.00  0.00    +0.000 A 
ATOM     21  C   UNL     1       2.029   7.133  20.062  0.00  0.00    +0.000 A 
ATOM     22  C   UNL     1       1.730   5.968  20.775  0.00  0.00    +0.000 A 
ATOM     23  C   UNL     1       1.628   4.744  20.113  0.00  0.00    +0.000 A 
ATOM     24  C   UNL     1       1.241   3.583  20.803  0.00  0.00    +0.000 A 
ATOM     25  C   UNL     1       1.123   2.369  20.133  0.00  0.00    +0.000 A 
ATOM     26  C   UNL     1       1.425   2.289  18.776  0.00  0.00    +0.000 A 
ATOM     27  C   UNL     1       1.824   3.431  18.080  0.00  0.00    +0.000 A 
ATOM     28  C   UNL     1       1.909   4.671  18.725  0.00  0.00    +0.000 A 
ATOM     29  C   UNL     1       2.231   5.852  18.023  0.00  0.00    +0.000 A 
ENDBRANCH  18  20
ENDBRANCH  17  18
ENDBRANCH   3  17
TORSDOF 4
ENDMDL
