MODEL 1
REMARK VINA RESULT:      -8.0      0.000      0.000
REMARK  Name = 
REMARK  7 active torsions:
REMARK  status: ('A' for Active; 'I' for Inactive)
REMARK    1  A    between atoms: C_1  and  C_2
REMARK    2  A    between atoms: C_3  and  C_4
REMARK    3  A    between atoms: C_4  and  O_5
REMARK    4  A    between atoms: O_5  and  C_6
REMARK    5  A    between atoms: C_9  and  C_10
REMARK    6  A    between atoms: C_15  and  C_16
REMARK    7  A    between atoms: N_18  and  O_19
REMARK                            x       y       z     vdW  Elec       q    Type
REMARK                         _______ _______ _______ _____ _____    ______ ____
ROOT
ATOM      1  C   UNL     1       2.799   6.192  19.486  0.00  0.00    +0.000 C 
ATOM      2  O   UNL     1       2.304   5.402  20.291  0.00  0.00    +0.000 OA
ATOM      3  N   UNL     1       3.920   5.863  18.735  0.00  0.00    +0.000 N 
ATOM      4  C   UNL     1       4.480   6.563  17.591  0.00  0.00    +0.000 C 
ATOM      5  C   UNL     1       5.038   5.454  16.721  0.00  0.00    +0.000 C 
ATOM      6  C   UNL     1       5.562   4.444  17.743  0.00  0.00    +0.000 C 
ATOM      7  C   UNL     1       4.596   4.584  18.923  0.00  0.00    +0.000 C 
ENDROOT
BRANCH   1  11
ATOM      8  C   UNL     1       0.849  10.006  19.027  0.00  0.00    +0.000 A 
ATOM      9  C   UNL     1       1.473   9.404  17.938  0.00  0.00    +0.000 A 
ATOM     10  C   UNL     1       2.138   8.189  18.083  0.00  0.00    +0.000 A 
ATOM     11  C   UNL     1       2.140   7.524  19.310  0.00  0.00    +0.000 A 
ATOM     12  C   UNL     1       1.559   8.155  20.420  0.00  0.00    +0.000 A 
ATOM     13  C   UNL     1       0.921   9.399  20.282  0.00  0.00    +0.000 A 
BRANCH   8  14
ATOM     14  O   UNL     1       0.240  11.193  18.731  0.00  0.00    +0.000 OA
BRANCH  14  15
ATOM     15  C   UNL     1      -1.169  11.261  18.903  0.00  0.00    +0.000 C 
BRANCH  15  18
ATOM     16  C   UNL     1      -3.035   9.790  15.337  0.00  0.00    +0.000 C 
ATOM     17  C   UNL     1      -2.398  10.291  16.554  0.00  0.00    +0.000 C 
ATOM     18  C   UNL     1      -1.831  10.739  17.639  0.00  0.00    +0.000 C 
ENDBRANCH  15  18
ENDBRANCH  14  15
ENDBRANCH   8  14
ENDBRANCH   1  11
BRANCH   6  19
ATOM     19  C   UNL     1       7.002   4.730  18.133  0.00  0.00    +0.000 C 
ATOM     20  O   UNL     1       7.964   4.556  17.386  0.00  0.00    +0.000 OA
ATOM     21  N   UNL     1       7.174   5.155  19.425  0.00  0.00    +0.000 N 
ATOM     22  H   UNL     1       6.442   5.347  20.099  0.00  0.00    +0.000 HD
BRANCH  21  23
ATOM     23  O   UNL     1       8.507   5.382  19.835  0.00  0.00    +0.000 OA
ATOM     24  H   UNL     1       8.553   6.363  19.871  0.00  0.00    +0.000 HD
ENDBRANCH  21  23
ENDBRANCH   6  19
TORSDOF 6
ENDMDL
MODEL 2
REMARK VINA RESULT:      -7.8      5.561      7.605
REMARK  Name = 
REMARK  7 active torsions:
REMARK  status: ('A' for Active; 'I' for Inactive)
REMARK    1  A    between atoms: C_1  and  C_2
REMARK    2  A    between atoms: C_3  and  C_4
REMARK    3  A    between atoms: C_4  and  O_5
REMARK    4  A    between atoms: O_5  and  C_6
REMARK    5  A    between atoms: C_9  and  C_10
REMARK    6  A    between atoms: C_15  and  C_16
REMARK    7  A    between atoms: N_18  and  O_19
REMARK                            x       y       z     vdW  Elec       q    Type
REMARK                         _______ _______ _______ _____ _____    ______ ____
ROOT
ATOM      1  C   UNL     1       5.243   4.382  16.907  0.00  0.00    +0.000 C 
ATOM      2  O   UNL     1       5.162   4.197  15.692  0.00  0.00    +0.000 OA
ATOM      3  N   UNL     1       4.486   3.644  17.809  0.00  0.00    +0.000 N 
ATOM      4  C   UNL     1       4.628   3.562  19.254  0.00  0.00    +0.000 C 
ATOM      5  C   UNL     1       4.235   2.134  19.580  0.00  0.00    +0.000 C 
ATOM      6  C   UNL     1       3.117   1.847  18.576  0.00  0.00    +0.000 C 
ATOM      7  C   UNL     1       3.515   2.661  17.342  0.00  0.00    +0.000 C 
ENDROOT
BRANCH   1  11
ATOM      8  C   UNL     1       8.015   7.323  18.395  0.00  0.00    +0.000 A 
ATOM      9  C   UNL     1       7.103   7.663  17.401  0.00  0.00    +0.000 A 
ATOM     10  C   UNL     1       6.226   6.710  16.886  0.00  0.00    +0.000 A 
ATOM     11  C   UNL     1       6.207   5.413  17.400  0.00  0.00    +0.000 A 
ATOM     12  C   UNL     1       7.163   5.055  18.363  0.00  0.00    +0.000 A 
ATOM     13  C   UNL     1       8.072   6.006  18.855  0.00  0.00    +0.000 A 
BRANCH   8  14
ATOM     14  O   UNL     1       8.808   8.360  18.798  0.00  0.00    +0.000 OA
BRANCH  14  15
ATOM     15  C   UNL     1       8.502   9.651  18.286  0.00  0.00    +0.000 C 
BRANCH  15  18
ATOM     16  C   UNL     1      11.375  12.430  19.830  0.00  0.00    +0.000 C 
ATOM     17  C   UNL     1      10.395  11.481  19.305  0.00  0.00    +0.000 C 
ATOM     18  C   UNL     1       9.521  10.636  18.834  0.00  0.00    +0.000 C 
ENDBRANCH  15  18
ENDBRANCH  14  15
ENDBRANCH   8  14
ENDBRANCH   1  11
BRANCH   6  19
ATOM     19  C   UNL     1       1.755   2.243  19.120  0.00  0.00    +0.000 C 
ATOM     20  O   UNL     1       0.761   2.427  18.418  0.00  0.00    +0.000 OA
ATOM     21  N   UNL     1       1.712   2.441  20.476  0.00  0.00    +0.000 N 
ATOM     22  H   UNL     1       2.471   2.291  21.131  0.00  0.00    +0.000 HD
BRANCH  21  23
ATOM     23  O   UNL     1       0.472   2.860  21.007  0.00  0.00    +0.000 OA
ATOM     24  H   UNL     1       0.418   3.794  20.707  0.00  0.00    +0.000 HD
ENDBRANCH  21  23
ENDBRANCH   6  19
TORSDOF 6
ENDMDL
MODEL 3
REMARK VINA RESULT:      -7.8      1.021      1.071
REMARK  Name = 
REMARK  7 active torsions:
REMARK  status: ('A' for Active; 'I' for Inactive)
REMARK    1  A    between atoms: C_1  and  C_2
REMARK    2  A    between atoms: C_3  and  C_4
REMARK    3  A    between atoms: C_4  and  O_5
REMARK    4  A    between atoms: O_5  and  C_6
REMARK    5  A    between atoms: C_9  and  C_10
REMARK    6  A    between atoms: C_15  and  C_16
REMARK    7  A    between atoms: N_18  and  O_19
REMARK                            x       y       z     vdW  Elec       q    Type
REMARK                         _______ _______ _______ _____ _____    ______ ____
ROOT
ATOM      1  C   UNL     1       2.806   5.805  18.507  0.00  0.00    +0.000 C 
ATOM      2  O   UNL     1       2.219   4.833  18.984  0.00  0.00    +0.000 OA
ATOM      3  N   UNL     1       3.928   5.656  17.701  0.00  0.00    +0.000 N 
ATOM      4  C   UNL     1       4.587   6.655  16.875  0.00  0.00    +0.000 C 
ATOM      5  C   UNL     1       5.092   5.868  15.681  0.00  0.00    +0.000 C 
ATOM      6  C   UNL     1       5.492   4.526  16.297  0.00  0.00    +0.000 C 
ATOM      7  C   UNL     1       4.493   4.336  17.442  0.00  0.00    +0.000 C 
ENDROOT
BRANCH   1  11
ATOM      8  C   UNL     1       1.191   9.700  19.382  0.00  0.00    +0.000 A 
ATOM      9  C   UNL     1       1.623   9.396  18.095  0.00  0.00    +0.000 A 
ATOM     10  C   UNL     1       2.181   8.152  17.808  0.00  0.00    +0.000 A 
ATOM     11  C   UNL     1       2.262   7.168  18.794  0.00  0.00    +0.000 A 
ATOM     12  C   UNL     1       1.877   7.492  20.104  0.00  0.00    +0.000 A 
ATOM     13  C   UNL     1       1.350   8.759  20.402  0.00  0.00    +0.000 A 
BRANCH   8  14
ATOM     14  O   UNL     1       0.667  10.956  19.510  0.00  0.00    +0.000 OA
BRANCH  14  15
ATOM     15  C   UNL     1      -0.731  11.057  19.745  0.00  0.00    +0.000 C 
BRANCH  15  18
ATOM     16  C   UNL     1      -2.787   9.876  16.175  0.00  0.00    +0.000 C 
ATOM     17  C   UNL     1      -2.086  10.280  17.393  0.00  0.00    +0.000 C 
ATOM     18  C   UNL     1      -1.460  10.639  18.479  0.00  0.00    +0.000 C 
ENDBRANCH  15  18
ENDBRANCH  14  15
ENDBRANCH   8  14
ENDBRANCH   1  11
BRANCH   6  19
ATOM     19  C   UNL     1       6.933   4.533  16.778  0.00  0.00    +0.000 C 
ATOM     20  O   UNL     1       7.907   4.595  16.029  0.00  0.00    +0.000 OA
ATOM     21  N   UNL     1       7.088   4.408  18.134  0.00  0.00    +0.000 N 
ATOM     22  H   UNL     1       6.347   4.375  18.825  0.00  0.00    +0.000 HD
BRANCH  21  23
ATOM     23  O   UNL     1       8.418   4.361  18.610  0.00  0.00    +0.000 OA
ATOM     24  H   UNL     1       8.765   5.243  18.351  0.00  0.00    +0.000 HD
ENDBRANCH  21  23
ENDBRANCH   6  19
TORSDOF 6
ENDMDL
MODEL 4
REMARK VINA RESULT:      -7.8      5.480      7.652
REMARK  Name = 
REMARK  7 active torsions:
REMARK  status: ('A' for Active; 'I' for Inactive)
REMARK    1  A    between atoms: C_1  and  C_2
REMARK    2  A    between atoms: C_3  and  C_4
REMARK    3  A    between atoms: C_4  and  O_5
REMARK    4  A    between atoms: O_5  and  C_6
REMARK    5  A    between atoms: C_9  and  C_10
REMARK    6  A    between atoms: C_15  and  C_16
REMARK    7  A    between atoms: N_18  and  O_19
REMARK                            x       y       z     vdW  Elec       q    Type
REMARK                         _______ _______ _______ _____ _____    ______ ____
ROOT
ATOM      1  C   UNL     1       5.199   4.327  16.968  0.00  0.00    +0.000 C 
ATOM      2  O   UNL     1       5.115   4.084  15.763  0.00  0.00    +0.000 OA
ATOM      3  N   UNL     1       4.488   3.596  17.911  0.00  0.00    +0.000 N 
ATOM      4  C   UNL     1       4.647   3.587  19.356  0.00  0.00    +0.000 C 
ATOM      5  C   UNL     1       4.326   2.158  19.750  0.00  0.00    +0.000 C 
ATOM      6  C   UNL     1       3.213   1.773  18.774  0.00  0.00    +0.000 C 
ATOM      7  C   UNL     1       3.560   2.548  17.500  0.00  0.00    +0.000 C 
ENDROOT
BRANCH   1  11
ATOM      8  C   UNL     1       7.847   7.511  18.151  0.00  0.00    +0.000 A 
ATOM      9  C   UNL     1       7.944   6.261  18.754  0.00  0.00    +0.000 A 
ATOM     10  C   UNL     1       7.069   5.234  18.406  0.00  0.00    +0.000 A 
ATOM     11  C   UNL     1       6.118   5.424  17.402  0.00  0.00    +0.000 A 
ATOM     12  C   UNL     1       5.983   6.699  16.833  0.00  0.00    +0.000 A 
ATOM     13  C   UNL     1       6.840   7.745  17.211  0.00  0.00    +0.000 A 
BRANCH   8  14
ATOM     14  O   UNL     1       8.771   8.415  18.594  0.00  0.00    +0.000 OA
BRANCH  14  15
ATOM     15  C   UNL     1       8.524   9.787  18.316  0.00  0.00    +0.000 C 
BRANCH  15  18
ATOM     16  C   UNL     1      11.698  12.101  20.031  0.00  0.00    +0.000 C 
ATOM     17  C   UNL     1      10.615  11.312  19.447  0.00  0.00    +0.000 C 
ATOM     18  C   UNL     1       9.650  10.608  18.924  0.00  0.00    +0.000 C 
ENDBRANCH  15  18
ENDBRANCH  14  15
ENDBRANCH   8  14
ENDBRANCH   1  11
BRANCH   6  19
ATOM     19  C   UNL     1       1.839   2.128  19.316  0.00  0.00    +0.000 C 
ATOM     20  O   UNL     1       0.819   2.167  18.630  0.00  0.00    +0.000 OA
ATOM     21  N   UNL     1       1.815   2.466  20.645  0.00  0.00    +0.000 N 
ATOM     22  H   UNL     1       2.598   2.439  21.288  0.00  0.00    +0.000 HD
BRANCH  21  23
ATOM     23  O   UNL     1       0.560   2.851  21.168  0.00  0.00    +0.000 OA
ATOM     24  H   UNL     1       0.003   2.910  20.360  0.00  0.00    +0.000 HD
ENDBRANCH  21  23
ENDBRANCH   6  19
TORSDOF 6
ENDMDL
MODEL 5
REMARK VINA RESULT:      -7.7      3.991      7.678
REMARK  Name = 
REMARK  7 active torsions:
REMARK  status: ('A' for Active; 'I' for Inactive)
REMARK    1  A    between atoms: C_1  and  C_2
REMARK    2  A    between atoms: C_3  and  C_4
REMARK    3  A    between atoms: C_4  and  O_5
REMARK    4  A    between atoms: O_5  and  C_6
REMARK    5  A    between atoms: C_9  and  C_10
REMARK    6  A    between atoms: C_15  and  C_16
REMARK    7  A    between atoms: N_18  and  O_19
REMARK                            x       y       z     vdW  Elec       q    Type
REMARK                         _______ _______ _______ _____ _____    ______ ____
ROOT
ATOM      1  C   UNL     1       5.854   4.730  17.817  0.00  0.00    +0.000 C 
ATOM      2  O   UNL     1       6.876   4.830  18.495  0.00  0.00    +0.000 OA
ATOM      3  N   UNL     1       4.591   4.894  18.372  0.00  0.00    +0.000 N 
ATOM      4  C   UNL     1       3.316   5.047  17.690  0.00  0.00    +0.000 C 
ATOM      5  C   UNL     1       2.530   5.981  18.590  0.00  0.00    +0.000 C 
ATOM      6  C   UNL     1       2.972   5.561  19.993  0.00  0.00    +0.000 C 
ATOM      7  C   UNL     1       4.428   5.126  19.803  0.00  0.00    +0.000 C 
ENDROOT
BRANCH   1  11
ATOM      8  C   UNL     1       6.299   4.004  13.594  0.00  0.00    +0.000 A 
ATOM      9  C   UNL     1       5.333   3.318  14.323  0.00  0.00    +0.000 A 
ATOM     10  C   UNL     1       5.204   3.517  15.696  0.00  0.00    +0.000 A 
ATOM     11  C   UNL     1       6.002   4.453  16.354  0.00  0.00    +0.000 A 
ATOM     12  C   UNL     1       7.012   5.106  15.631  0.00  0.00    +0.000 A 
ATOM     13  C   UNL     1       7.167   4.877  14.254  0.00  0.00    +0.000 A 
BRANCH   8  14
ATOM     14  O   UNL     1       6.305   3.705  12.261  0.00  0.00    +0.000 OA
BRANCH  14  15
ATOM     15  C   UNL     1       5.401   2.702  11.816  0.00  0.00    +0.000 C 
BRANCH  15  18
ATOM     16  C   UNL     1       2.444   4.559   9.331  0.00  0.00    +0.000 C 
ATOM     17  C   UNL     1       3.453   3.926  10.179  0.00  0.00    +0.000 C 
ATOM     18  C   UNL     1       4.353   3.361  10.934  0.00  0.00    +0.000 C 
ENDBRANCH  15  18
ENDBRANCH  14  15
ENDBRANCH   8  14
ENDBRANCH   1  11
BRANCH   6  19
ATOM     19  C   UNL     1       2.101   4.448  20.550  0.00  0.00    +0.000 C 
ATOM     20  O   UNL     1       2.330   3.859  21.606  0.00  0.00    +0.000 OA
ATOM     21  N   UNL     1       1.042   4.094  19.755  0.00  0.00    +0.000 N 
ATOM     22  H   UNL     1       0.765   4.538  18.886  0.00  0.00    +0.000 HD
BRANCH  21  23
ATOM     23  O   UNL     1       0.240   3.028  20.220  0.00  0.00    +0.000 OA
ATOM     24  H   UNL     1       0.875   2.277  20.234  0.00  0.00    +0.000 HD
ENDBRANCH  21  23
ENDBRANCH   6  19
TORSDOF 6
ENDMDL
MODEL 6
REMARK VINA RESULT:      -7.6      3.992      7.610
REMARK  Name = 
REMARK  7 active torsions:
REMARK  status: ('A' for Active; 'I' for Inactive)
REMARK    1  A    between atoms: C_1  and  C_2
REMARK    2  A    between atoms: C_3  and  C_4
REMARK    3  A    between atoms: C_4  and  O_5
REMARK    4  A    between atoms: O_5  and  C_6
REMARK    5  A    between atoms: C_9  and  C_10
REMARK    6  A    between atoms: C_15  and  C_16
REMARK    7  A    between atoms: N_18  and  O_19
REMARK                            x       y       z     vdW  Elec       q    Type
REMARK                         _______ _______ _______ _____ _____    ______ ____
ROOT
ATOM      1  C   UNL     1       5.534   4.707  18.262  0.00  0.00    +0.000 C 
ATOM      2  O   UNL     1       6.509   4.826  19.004  0.00  0.00    +0.000 OA
ATOM      3  N   UNL     1       4.234   4.773  18.749  0.00  0.00    +0.000 N 
ATOM      4  C   UNL     1       2.993   4.893  18.001  0.00  0.00    +0.000 C 
ATOM      5  C   UNL     1       2.106   5.734  18.898  0.00  0.00    +0.000 C 
ATOM      6  C   UNL     1       2.492   5.265  20.303  0.00  0.00    +0.000 C 
ATOM      7  C   UNL     1       3.978   4.920  20.177  0.00  0.00    +0.000 C 
ENDROOT
BRANCH   1  11
ATOM      8  C   UNL     1       6.208   4.095  14.052  0.00  0.00    +0.000 A 
ATOM      9  C   UNL     1       7.170   4.735  14.828  0.00  0.00    +0.000 A 
ATOM     10  C   UNL     1       6.947   4.971  16.183  0.00  0.00    +0.000 A 
ATOM     11  C   UNL     1       5.780   4.517  16.799  0.00  0.00    +0.000 A 
ATOM     12  C   UNL     1       4.787   3.921  16.006  0.00  0.00    +0.000 A 
ATOM     13  C   UNL     1       4.996   3.717  14.633  0.00  0.00    +0.000 A 
BRANCH   8  14
ATOM     14  O   UNL     1       6.567   3.934  12.744  0.00  0.00    +0.000 OA
BRANCH  14  15
ATOM     15  C   UNL     1       6.036   2.809  12.056  0.00  0.00    +0.000 C 
BRANCH  15  18
ATOM     16  C   UNL     1       2.735   4.126   9.662  0.00  0.00    +0.000 C 
ATOM     17  C   UNL     1       3.862   3.677  10.478  0.00  0.00    +0.000 C 
ATOM     18  C   UNL     1       4.866   3.276  11.207  0.00  0.00    +0.000 C 
ENDBRANCH  15  18
ENDBRANCH  14  15
ENDBRANCH   8  14
ENDBRANCH   1  11
BRANCH   6  19
ATOM     19  C   UNL     1       1.655   4.079  20.751  0.00  0.00    +0.000 C 
ATOM     20  O   UNL     1       0.595   3.747  20.222  0.00  0.00    +0.000 OA
ATOM     21  N   UNL     1       2.140   3.415  21.848  0.00  0.00    +0.000 N 
ATOM     22  H   UNL     1       3.011   3.603  22.330  0.00  0.00    +0.000 HD
BRANCH  21  23
ATOM     23  O   UNL     1       1.358   2.337  22.321  0.00  0.00    +0.000 OA
ATOM     24  H   UNL     1       0.458   2.575  22.005  0.00  0.00    +0.000 HD
ENDBRANCH  21  23
ENDBRANCH   6  19
TORSDOF 6
ENDMDL
MODEL 7
REMARK VINA RESULT:      -7.5      4.306      7.494
REMARK  Name = 
REMARK  7 active torsions:
REMARK  status: ('A' for Active; 'I' for Inactive)
REMARK    1  A    between atoms: C_1  and  C_2
REMARK    2  A    between atoms: C_3  and  C_4
REMARK    3  A    between atoms: C_4  and  O_5
REMARK    4  A    between atoms: O_5  and  C_6
REMARK    5  A    between atoms: C_9  and  C_10
REMARK    6  A    between atoms: C_15  and  C_16
REMARK    7  A    between atoms: N_18  and  O_19
REMARK                            x       y       z     vdW  Elec       q    Type
REMARK                         _______ _______ _______ _____ _____    ______ ____
ROOT
ATOM      1  C   UNL     1       4.835   5.504  17.838  0.00  0.00    +0.000 C 
ATOM      2  O   UNL     1       5.518   6.326  18.448  0.00  0.00    +0.000 OA
ATOM      3  N   UNL     1       3.652   5.002  18.366  0.00  0.00    +0.000 N 
ATOM      4  C   UNL     1       2.620   4.228  17.697  0.00  0.00    +0.000 C 
ATOM      5  C   UNL     1       1.334   4.680  18.362  0.00  0.00    +0.000 C 
ATOM      6  C   UNL     1       1.758   4.906  19.814  0.00  0.00    +0.000 C 
ATOM      7  C   UNL     1       3.208   5.386  19.701  0.00  0.00    +0.000 C 
ENDROOT
BRANCH   1  11
ATOM      8  C   UNL     1       6.111   4.296  13.905  0.00  0.00    +0.000 A 
ATOM      9  C   UNL     1       6.216   3.413  14.976  0.00  0.00    +0.000 A 
ATOM     10  C   UNL     1       5.840   3.805  16.259  0.00  0.00    +0.000 A 
ATOM     11  C   UNL     1       5.297   5.071  16.482  0.00  0.00    +0.000 A 
ATOM     12  C   UNL     1       5.243   5.980  15.415  0.00  0.00    +0.000 A 
ATOM     13  C   UNL     1       5.657   5.597  14.129  0.00  0.00    +0.000 A 
BRANCH   8  14
ATOM     14  O   UNL     1       6.517   3.771  12.711  0.00  0.00    +0.000 OA
BRANCH  14  15
ATOM     15  C   UNL     1       5.763   2.684  12.188  0.00  0.00    +0.000 C 
BRANCH  15  18
ATOM     16  C   UNL     1       2.727   4.269   9.612  0.00  0.00    +0.000 C 
ATOM     17  C   UNL     1       3.764   3.728  10.490  0.00  0.00    +0.000 C 
ATOM     18  C   UNL     1       4.687   3.246  11.274  0.00  0.00    +0.000 C 
ENDBRANCH  15  18
ENDBRANCH  14  15
ENDBRANCH   8  14
ENDBRANCH   1  11
BRANCH   6  19
ATOM     19  C   UNL     1       1.627   3.641  20.644  0.00  0.00    +0.000 C 
ATOM     20  O   UNL     1       0.635   2.913  20.635  0.00  0.00    +0.000 OA
ATOM     21  N   UNL     1       2.691   3.380  21.468  0.00  0.00    +0.000 N 
ATOM     22  H   UNL     1       3.555   3.908  21.522  0.00  0.00    +0.000 HD
BRANCH  21  23
ATOM     23  O   UNL     1       2.580   2.237  22.290  0.00  0.00    +0.000 OA
ATOM     24  H   UNL     1       1.896   2.511  22.941  0.00  0.00    +0.000 HD
ENDBRANCH  21  23
ENDBRANCH   6  19
TORSDOF 6
ENDMDL
MODEL 8
REMARK VINA RESULT:      -7.5      0.709      1.248
REMARK  Name = 
REMARK  7 active torsions:
REMARK  status: ('A' for Active; 'I' for Inactive)
REMARK    1  A    between atoms: C_1  and  C_2
REMARK    2  A    between atoms: C_3  and  C_4
REMARK    3  A    between atoms: C_4  and  O_5
REMARK    4  A    between atoms: O_5  and  C_6
REMARK    5  A    between atoms: C_9  and  C_10
REMARK    6  A    between atoms: C_15  and  C_16
REMARK    7  A    between atoms: N_18  and  O_19
REMARK                            x       y       z     vdW  Elec       q    Type
REMARK                         _______ _______ _______ _____ _____    ______ ____
ROOT
ATOM      1  C   UNL     1       2.750   6.236  19.527  0.00  0.00    +0.000 C 
ATOM      2  O   UNL     1       2.250   5.445  20.328  0.00  0.00    +0.000 OA
ATOM      3  N   UNL     1       3.871   5.902  18.776  0.00  0.00    +0.000 N 
ATOM      4  C   UNL     1       4.436   6.604  17.636  0.00  0.00    +0.000 C 
ATOM      5  C   UNL     1       4.988   5.496  16.761  0.00  0.00    +0.000 C 
ATOM      6  C   UNL     1       5.504   4.477  17.779  0.00  0.00    +0.000 C 
ATOM      7  C   UNL     1       4.537   4.618  18.958  0.00  0.00    +0.000 C 
ENDROOT
BRANCH   1  11
ATOM      8  C   UNL     1       0.930  10.101  18.986  0.00  0.00    +0.000 A 
ATOM      9  C   UNL     1       0.947   9.508  20.244  0.00  0.00    +0.000 A 
ATOM     10  C   UNL     1       1.501   8.242  20.424  0.00  0.00    +0.000 A 
ATOM     11  C   UNL     1       2.100   7.572  19.357  0.00  0.00    +0.000 A 
ATOM     12  C   UNL     1       2.034   8.145  18.078  0.00  0.00    +0.000 A 
ATOM     13  C   UNL     1       1.442   9.405  17.889  0.00  0.00    +0.000 A 
BRANCH   8  14
ATOM     14  O   UNL     1       0.355  11.341  18.965  0.00  0.00    +0.000 OA
BRANCH  14  15
ATOM     15  C   UNL     1      -0.871  11.501  19.668  0.00  0.00    +0.000 C 
BRANCH  15  18
ATOM     16  C   UNL     1      -4.084  11.267  16.842  0.00  0.00    +0.000 C 
ATOM     17  C   UNL     1      -2.988  11.348  17.806  0.00  0.00    +0.000 C 
ATOM     18  C   UNL     1      -2.010  11.419  18.665  0.00  0.00    +0.000 C 
ENDBRANCH  15  18
ENDBRANCH  14  15
ENDBRANCH   8  14
ENDBRANCH   1  11
BRANCH   6  19
ATOM     19  C   UNL     1       6.945   4.752  18.172  0.00  0.00    +0.000 C 
ATOM     20  O   UNL     1       7.906   4.586  17.420  0.00  0.00    +0.000 OA
ATOM     21  N   UNL     1       7.121   5.156  19.469  0.00  0.00    +0.000 N 
ATOM     22  H   UNL     1       6.390   5.341  20.147  0.00  0.00    +0.000 HD
BRANCH  21  23
ATOM     23  O   UNL     1       8.455   5.372  19.882  0.00  0.00    +0.000 OA
ATOM     24  H   UNL     1       8.931   4.626  19.455  0.00  0.00    +0.000 HD
ENDBRANCH  21  23
ENDBRANCH   6  19
TORSDOF 6
ENDMDL
MODEL 9
REMARK VINA RESULT:      -7.5      1.972      2.177
REMARK  Name = 
REMARK  7 active torsions:
REMARK  status: ('A' for Active; 'I' for Inactive)
REMARK    1  A    between atoms: C_1  and  C_2
REMARK    2  A    between atoms: C_3  and  C_4
REMARK    3  A    between atoms: C_4  and  O_5
REMARK    4  A    between atoms: O_5  and  C_6
REMARK    5  A    between atoms: C_9  and  C_10
REMARK    6  A    between atoms: C_15  and  C_16
REMARK    7  A    between atoms: N_18  and  O_19
REMARK                            x       y       z     vdW  Elec       q    Type
REMARK                         _______ _______ _______ _____ _____    ______ ____
ROOT
ATOM      1  C   UNL     1       2.814   5.536  18.171  0.00  0.00    +0.000 C 
ATOM      2  O   UNL     1       2.205   4.496  18.423  0.00  0.00    +0.000 OA
ATOM      3  N   UNL     1       3.927   5.547  17.339  0.00  0.00    +0.000 N 
ATOM      4  C   UNL     1       4.608   6.690  16.754  0.00  0.00    +0.000 C 
ATOM      5  C   UNL     1       5.085   6.181  15.407  0.00  0.00    +0.000 C 
ATOM      6  C   UNL     1       5.453   4.725  15.699  0.00  0.00    +0.000 C 
ATOM      7  C   UNL     1       4.456   4.306  16.783  0.00  0.00    +0.000 C 
ENDROOT
BRANCH   1  11
ATOM      8  C   UNL     1       1.314   9.170  19.931  0.00  0.00    +0.000 A 
ATOM      9  C   UNL     1       1.556   9.105  18.562  0.00  0.00    +0.000 A 
ATOM     10  C   UNL     1       2.076   7.947  17.987  0.00  0.00    +0.000 A 
ATOM     11  C   UNL     1       2.307   6.812  18.766  0.00  0.00    +0.000 A 
ATOM     12  C   UNL     1       2.116   6.895  20.153  0.00  0.00    +0.000 A 
ATOM     13  C   UNL     1       1.627   8.075  20.738  0.00  0.00    +0.000 A 
BRANCH   8  14
ATOM     14  O   UNL     1       0.806  10.368  20.347  0.00  0.00    +0.000 OA
BRANCH  14  15
ATOM     15  C   UNL     1       0.453  11.310  19.343  0.00  0.00    +0.000 C 
BRANCH  15  18
ATOM     16  C   UNL     1      -3.540  12.664  20.112  0.00  0.00    +0.000 C 
ATOM     17  C   UNL     1      -2.178  12.202  19.848  0.00  0.00    +0.000 C 
ATOM     18  C   UNL     1      -0.963  11.790  19.615  0.00  0.00    +0.000 C 
ENDBRANCH  15  18
ENDBRANCH  14  15
ENDBRANCH   8  14
ENDBRANCH   1  11
BRANCH   6  19
ATOM     19  C   UNL     1       6.897   4.589  16.153  0.00  0.00    +0.000 C 
ATOM     20  O   UNL     1       7.867   4.745  15.413  0.00  0.00    +0.000 OA
ATOM     21  N   UNL     1       7.055   4.217  17.462  0.00  0.00    +0.000 N 
ATOM     22  H   UNL     1       6.318   4.091  18.147  0.00  0.00    +0.000 HD
BRANCH  21  23
ATOM     23  O   UNL     1       8.385   4.032  17.903  0.00  0.00    +0.000 OA
ATOM     24  H   UNL     1       8.282   4.006  18.880  0.00  0.00    +0.000 HD
ENDBRANCH  21  23
ENDBRANCH   6  19
TORSDOF 6
ENDMDL
