MODEL 1
REMARK VINA RESULT:      -7.4      0.000      0.000
REMARK  Name = 
REMARK  13 active torsions:
REMARK  status: ('A' for Active; 'I' for Inactive)
REMARK    1  A    between atoms: C_1  and  C_2
REMARK    2  A    between atoms: C_4  and  O_5
REMARK    3  A    between atoms: O_5  and  C_6
REMARK    4  A    between atoms: C_6  and  C_7
REMARK    5  A    between atoms: C_7  and  C_8
REMARK    6  A    between atoms: C_8  and  N_9
REMARK    7  A    between atoms: N_9  and  C_10
REMARK    8  A    between atoms: N_9  and  C_11
REMARK    9  A    between atoms: N_9  and  C_12
REMARK   10  A    between atoms: C_12  and  C_13
REMARK   11  A    between atoms: C_20  and  C_21
REMARK   12  A    between atoms: C_21  and  C_22
REMARK   13  A    between atoms: C_21  and  C_23
REMARK                            x       y       z     vdW  Elec       q    Type
REMARK                         _______ _______ _______ _____ _____    ______ ____
ROOT
ATOM      1  C   UNL     1       3.406   3.656  16.956  0.00  0.00    +0.000 C 
ENDROOT
BRANCH   1   2
ATOM      2  O   UNL     1       4.810   3.655  17.158  0.00  0.00    +0.000 OA
BRANCH   2   6
ATOM      3  C   UNL     1       5.910   3.244  12.320  0.00  0.00    +0.000 C 
ATOM      4  C   UNL     1       6.148   3.867  13.671  0.00  0.00    +0.000 A 
ATOM      5  C   UNL     1       5.378   3.452  14.769  0.00  0.00    +0.000 A 
ATOM      6  C   UNL     1       5.554   4.010  16.051  0.00  0.00    +0.000 A 
ATOM      7  C   UNL     1       6.530   5.002  16.251  0.00  0.00    +0.000 A 
ATOM      8  C   UNL     1       7.298   5.413  15.144  0.00  0.00    +0.000 A 
ATOM      9  C   UNL     1       7.099   4.868  13.871  0.00  0.00    +0.000 A 
ATOM     10 CL   UNL     1       8.052   5.474  12.566  0.00  0.00    +0.000 Cl
BRANCH   7  11
ATOM     11  C   UNL     1       6.784   5.580  17.639  0.00  0.00    +0.000 C 
ATOM     12  C   UNL     1       7.839   4.751  18.377  0.00  0.00    +0.000 C 
ATOM     13  C   UNL     1       7.168   7.062  17.631  0.00  0.00    +0.000 C 
ENDBRANCH   7  11
ENDBRANCH   2   6
ENDBRANCH   1   2
BRANCH   1  14
ATOM     14  C   UNL     1       2.706   2.609  17.809  0.00  0.00    +0.000 C 
BRANCH  14  15
ATOM     15  C   UNL     1       3.123   2.632  19.290  0.00  0.00    +0.000 C 
BRANCH  15  16
ATOM     16  N   UNL     1       2.163   3.366  20.278  0.00  0.00    +0.000 N 
ATOM     17  C   UNL     1       0.842   3.758  19.625  0.00  0.00    +0.000 C 
ATOM     18  C   UNL     1       1.895   2.474  21.478  0.00  0.00    +0.000 C 
BRANCH  16  19
ATOM     19  C   UNL     1       2.898   4.670  20.749  0.00  0.00    +0.000 C 
BRANCH  19  20
ATOM     20  C   UNL     1       2.526   5.962  20.042  0.00  0.00    +0.000 A 
ATOM     21  C   UNL     1       3.010   6.248  18.757  0.00  0.00    +0.000 A 
ATOM     22  C   UNL     1       2.747   7.483  18.152  0.00  0.00    +0.000 A 
ATOM     23  C   UNL     1       1.995   8.442  18.824  0.00  0.00    +0.000 A 
ATOM     24 BR   UNL     1       1.665  10.118  18.018  0.00  0.00    +0.000 Br
ATOM     25  C   UNL     1       1.482   8.171  20.089  0.00  0.00    +0.000 A 
ATOM     26  C   UNL     1       1.723   6.928  20.682  0.00  0.00    +0.000 A 
ENDBRANCH  19  20
ENDBRANCH  16  19
ENDBRANCH  15  16
ENDBRANCH  14  15
ENDBRANCH   1  14
TORSDOF 8
ENDMDL
MODEL 2
REMARK VINA RESULT:      -7.0      4.930      8.459
REMARK  Name = 
REMARK  13 active torsions:
REMARK  status: ('A' for Active; 'I' for Inactive)
REMARK    1  A    between atoms: C_1  and  C_2
REMARK    2  A    between atoms: C_4  and  O_5
REMARK    3  A    between atoms: O_5  and  C_6
REMARK    4  A    between atoms: C_6  and  C_7
REMARK    5  A    between atoms: C_7  and  C_8
REMARK    6  A    between atoms: C_8  and  N_9
REMARK    7  A    between atoms: N_9  and  C_10
REMARK    8  A    between atoms: N_9  and  C_11
REMARK    9  A    between atoms: N_9  and  C_12
REMARK   10  A    between atoms: C_12  and  C_13
REMARK   11  A    between atoms: C_20  and  C_21
REMARK   12  A    between atoms: C_21  and  C_22
REMARK   13  A    between atoms: C_21  and  C_23
REMARK                            x       y       z     vdW  Elec       q    Type
REMARK                         _______ _______ _______ _____ _____    ______ ____
ROOT
ATOM      1  C   UNL     1       1.619   9.678  18.262  0.00  0.00    +0.000 C 
ENDROOT
BRANCH   1   2
ATOM      2  O   UNL     1       0.525   9.704  19.165  0.00  0.00    +0.000 OA
BRANCH   2   6
ATOM      3  C   UNL     1      -2.977   9.760  15.629  0.00  0.00    +0.000 C 
ATOM      4  C   UNL     1      -2.422  10.270  16.932  0.00  0.00    +0.000 A 
ATOM      5  C   UNL     1      -1.209   9.756  17.416  0.00  0.00    +0.000 A 
ATOM      6  C   UNL     1      -0.652  10.192  18.635  0.00  0.00    +0.000 A 
ATOM      7  C   UNL     1      -1.314  11.174  19.391  0.00  0.00    +0.000 A 
ATOM      8  C   UNL     1      -2.532  11.685  18.901  0.00  0.00    +0.000 A 
ATOM      9  C   UNL     1      -3.087  11.228  17.700  0.00  0.00    +0.000 A 
ATOM     10 CL   UNL     1      -4.609  11.874  17.207  0.00  0.00    +0.000 Cl
BRANCH   7  11
ATOM     11  C   UNL     1      -0.705  11.709  20.683  0.00  0.00    +0.000 C 
ATOM     12  C   UNL     1       0.169  12.932  20.395  0.00  0.00    +0.000 C 
ATOM     13  C   UNL     1      -1.738  12.025  21.769  0.00  0.00    +0.000 C 
ENDBRANCH   7  11
ENDBRANCH   2   6
ENDBRANCH   1   2
BRANCH   1  14
ATOM     14  C   UNL     1       2.157   8.270  18.058  0.00  0.00    +0.000 C 
BRANCH  14  15
ATOM     15  C   UNL     1       2.195   7.426  19.344  0.00  0.00    +0.000 C 
BRANCH  15  16
ATOM     16  N   UNL     1       2.689   5.951  19.201  0.00  0.00    +0.000 N 
ATOM     17  C   UNL     1       2.385   5.112  20.437  0.00  0.00    +0.000 C 
ATOM     18  C   UNL     1       2.041   5.319  17.981  0.00  0.00    +0.000 C 
BRANCH  16  19
ATOM     19  C   UNL     1       4.244   6.006  18.998  0.00  0.00    +0.000 C 
BRANCH  19  20
ATOM     20  C   UNL     1       4.781   5.506  17.668  0.00  0.00    +0.000 A 
ATOM     21  C   UNL     1       4.995   6.387  16.597  0.00  0.00    +0.000 A 
ATOM     22  C   UNL     1       5.393   5.906  15.344  0.00  0.00    +0.000 A 
ATOM     23  C   UNL     1       5.583   4.540  15.150  0.00  0.00    +0.000 A 
ATOM     24 BR   UNL     1       6.092   3.891  13.450  0.00  0.00    +0.000 Br
ATOM     25  C   UNL     1       5.402   3.650  16.204  0.00  0.00    +0.000 A 
ATOM     26  C   UNL     1       5.030   4.134  17.462  0.00  0.00    +0.000 A 
ENDBRANCH  19  20
ENDBRANCH  16  19
ENDBRANCH  15  16
ENDBRANCH  14  15
ENDBRANCH   1  14
TORSDOF 8
ENDMDL
MODEL 3
REMARK VINA RESULT:      -6.8      3.944      6.609
REMARK  Name = 
REMARK  13 active torsions:
REMARK  status: ('A' for Active; 'I' for Inactive)
REMARK    1  A    between atoms: C_1  and  C_2
REMARK    2  A    between atoms: C_4  and  O_5
REMARK    3  A    between atoms: O_5  and  C_6
REMARK    4  A    between atoms: C_6  and  C_7
REMARK    5  A    between atoms: C_7  and  C_8
REMARK    6  A    between atoms: C_8  and  N_9
REMARK    7  A    between atoms: N_9  and  C_10
REMARK    8  A    between atoms: N_9  and  C_11
REMARK    9  A    between atoms: N_9  and  C_12
REMARK   10  A    between atoms: C_12  and  C_13
REMARK   11  A    between atoms: C_20  and  C_21
REMARK   12  A    between atoms: C_21  and  C_22
REMARK   13  A    between atoms: C_21  and  C_23
REMARK                            x       y       z     vdW  Elec       q    Type
REMARK                         _______ _______ _______ _____ _____    ______ ____
ROOT
ATOM      1  C   UNL     1       1.643   8.385  20.010  0.00  0.00    +0.000 C 
ENDROOT
BRANCH   1   2
ATOM      2  O   UNL     1       1.689   6.979  20.194  0.00  0.00    +0.000 OA
BRANCH   2   6
ATOM      3  C   UNL     1       4.887   6.900  16.379  0.00  0.00    +0.000 C 
ATOM      4  C   UNL     1       4.020   6.180  17.378  0.00  0.00    +0.000 A 
ATOM      5  C   UNL     1       3.259   6.922  18.295  0.00  0.00    +0.000 A 
ATOM      6  C   UNL     1       2.440   6.297  19.256  0.00  0.00    +0.000 A 
ATOM      7  C   UNL     1       2.366   4.895  19.302  0.00  0.00    +0.000 A 
ATOM      8  C   UNL     1       3.133   4.157  18.380  0.00  0.00    +0.000 A 
ATOM      9  C   UNL     1       3.960   4.788  17.444  0.00  0.00    +0.000 A 
ATOM     10 CL   UNL     1       4.903   3.798  16.391  0.00  0.00    +0.000 Cl
BRANCH   7  11
ATOM     11  C   UNL     1       1.442   4.192  20.291  0.00  0.00    +0.000 C 
ATOM     12  C   UNL     1       0.742   3.007  19.620  0.00  0.00    +0.000 C 
ATOM     13  C   UNL     1       2.138   3.750  21.581  0.00  0.00    +0.000 C 
ENDBRANCH   7  11
ENDBRANCH   2   6
ENDBRANCH   1   2
BRANCH   1  14
ATOM     14  C   UNL     1       0.817   9.074  21.086  0.00  0.00    +0.000 C 
BRANCH  14  15
ATOM     15  C   UNL     1       1.176  10.555  21.294  0.00  0.00    +0.000 C 
BRANCH  15  16
ATOM     16  N   UNL     1       0.273  11.604  20.570  0.00  0.00    +0.000 N 
ATOM     17  C   UNL     1       0.107  12.886  21.377  0.00  0.00    +0.000 C 
ATOM     18  C   UNL     1       0.867  11.928  19.210  0.00  0.00    +0.000 C 
BRANCH  16  19
ATOM     19  C   UNL     1      -1.137  10.941  20.380  0.00  0.00    +0.000 C 
BRANCH  19  20
ATOM     20  C   UNL     1      -1.662  10.839  18.958  0.00  0.00    +0.000 A 
ATOM     21  C   UNL     1      -2.712  11.656  18.514  0.00  0.00    +0.000 A 
ATOM     22  C   UNL     1      -3.258  11.487  17.236  0.00  0.00    +0.000 A 
ATOM     23  C   UNL     1      -2.758  10.502  16.389  0.00  0.00    +0.000 A 
ATOM     24 BR   UNL     1      -3.515  10.257  14.676  0.00  0.00    +0.000 Br
ATOM     25  C   UNL     1      -1.699   9.697  16.798  0.00  0.00    +0.000 A 
ATOM     26  C   UNL     1      -1.137   9.883  18.065  0.00  0.00    +0.000 A 
ENDBRANCH  19  20
ENDBRANCH  16  19
ENDBRANCH  15  16
ENDBRANCH  14  15
ENDBRANCH   1  14
TORSDOF 8
ENDMDL
MODEL 4
REMARK VINA RESULT:      -6.7      4.544      6.838
REMARK  Name = 
REMARK  13 active torsions:
REMARK  status: ('A' for Active; 'I' for Inactive)
REMARK    1  A    between atoms: C_1  and  C_2
REMARK    2  A    between atoms: C_4  and  O_5
REMARK    3  A    between atoms: O_5  and  C_6
REMARK    4  A    between atoms: C_6  and  C_7
REMARK    5  A    between atoms: C_7  and  C_8
REMARK    6  A    between atoms: C_8  and  N_9
REMARK    7  A    between atoms: N_9  and  C_10
REMARK    8  A    between atoms: N_9  and  C_11
REMARK    9  A    between atoms: N_9  and  C_12
REMARK   10  A    between atoms: C_12  and  C_13
REMARK   11  A    between atoms: C_20  and  C_21
REMARK   12  A    between atoms: C_21  and  C_22
REMARK   13  A    between atoms: C_21  and  C_23
REMARK                            x       y       z     vdW  Elec       q    Type
REMARK                         _______ _______ _______ _____ _____    ______ ____
ROOT
ATOM      1  C   UNL     1       2.029   8.287  18.774  0.00  0.00    +0.000 C 
ENDROOT
BRANCH   1   2
ATOM      2  O   UNL     1       3.113   7.615  18.153  0.00  0.00    +0.000 OA
BRANCH   2   6
ATOM      3  C   UNL     1       1.894   3.704  20.982  0.00  0.00    +0.000 C 
ATOM      4  C   UNL     1       2.821   4.378  20.005  0.00  0.00    +0.000 A 
ATOM      5  C   UNL     1       2.533   5.677  19.560  0.00  0.00    +0.000 A 
ATOM      6  C   UNL     1       3.363   6.347  18.639  0.00  0.00    +0.000 A 
ATOM      7  C   UNL     1       4.519   5.713  18.154  0.00  0.00    +0.000 A 
ATOM      8  C   UNL     1       4.802   4.409  18.605  0.00  0.00    +0.000 A 
ATOM      9  C   UNL     1       3.958   3.745  19.502  0.00  0.00    +0.000 A 
ATOM     10 CL   UNL     1       4.360   2.128  19.954  0.00  0.00    +0.000 Cl
BRANCH   7  11
ATOM     11  C   UNL     1       5.468   6.437  17.205  0.00  0.00    +0.000 C 
ATOM     12  C   UNL     1       6.918   6.264  17.664  0.00  0.00    +0.000 C 
ATOM     13  C   UNL     1       5.311   6.022  15.739  0.00  0.00    +0.000 C 
ENDBRANCH   7  11
ENDBRANCH   2   6
ENDBRANCH   1   2
BRANCH   1  14
ATOM     14  C   UNL     1       1.428   9.355  17.873  0.00  0.00    +0.000 C 
BRANCH  14  15
ATOM     15  C   UNL     1       0.387  10.247  18.572  0.00  0.00    +0.000 C 
BRANCH  15  16
ATOM     16  N   UNL     1       0.859  11.672  19.000  0.00  0.00    +0.000 N 
ATOM     17  C   UNL     1       0.973  11.818  20.514  0.00  0.00    +0.000 C 
ATOM     18  C   UNL     1       2.201  11.974  18.355  0.00  0.00    +0.000 C 
BRANCH  16  19
ATOM     19  C   UNL     1      -0.215  12.689  18.475  0.00  0.00    +0.000 C 
BRANCH  19  20
ATOM     20  C   UNL     1      -1.658  12.215  18.457  0.00  0.00    +0.000 A 
ATOM     21  C   UNL     1      -2.202  11.596  17.322  0.00  0.00    +0.000 A 
ATOM     22  C   UNL     1      -3.558  11.253  17.275  0.00  0.00    +0.000 A 
ATOM     23  C   UNL     1      -4.384  11.523  18.363  0.00  0.00    +0.000 A 
ATOM     24 BR   UNL     1      -6.220  11.086  18.287  0.00  0.00    +0.000 Br
ATOM     25  C   UNL     1      -3.861  12.112  19.510  0.00  0.00    +0.000 A 
ATOM     26  C   UNL     1      -2.501  12.431  19.566  0.00  0.00    +0.000 A 
ENDBRANCH  19  20
ENDBRANCH  16  19
ENDBRANCH  15  16
ENDBRANCH  14  15
ENDBRANCH   1  14
TORSDOF 8
ENDMDL
MODEL 5
REMARK VINA RESULT:      -6.7      4.502      6.743
REMARK  Name = 
REMARK  13 active torsions:
REMARK  status: ('A' for Active; 'I' for Inactive)
REMARK    1  A    between atoms: C_1  and  C_2
REMARK    2  A    between atoms: C_4  and  O_5
REMARK    3  A    between atoms: O_5  and  C_6
REMARK    4  A    between atoms: C_6  and  C_7
REMARK    5  A    between atoms: C_7  and  C_8
REMARK    6  A    between atoms: C_8  and  N_9
REMARK    7  A    between atoms: N_9  and  C_10
REMARK    8  A    between atoms: N_9  and  C_11
REMARK    9  A    between atoms: N_9  and  C_12
REMARK   10  A    between atoms: C_12  and  C_13
REMARK   11  A    between atoms: C_20  and  C_21
REMARK   12  A    between atoms: C_21  and  C_22
REMARK   13  A    between atoms: C_21  and  C_23
REMARK                            x       y       z     vdW  Elec       q    Type
REMARK                         _______ _______ _______ _____ _____    ______ ____
ROOT
ATOM      1  C   UNL     1       2.212   8.107  18.739  0.00  0.00    +0.000 C 
ENDROOT
BRANCH   1   2
ATOM      2  O   UNL     1       3.027   7.432  17.795  0.00  0.00    +0.000 OA
BRANCH   2   6
ATOM      3  C   UNL     1       1.235   3.178  19.659  0.00  0.00    +0.000 C 
ATOM      4  C   UNL     1       2.248   3.922  18.830  0.00  0.00    +0.000 A 
ATOM      5  C   UNL     1       2.163   5.319  18.723  0.00  0.00    +0.000 A 
ATOM      6  C   UNL     1       3.079   6.061  17.951  0.00  0.00    +0.000 A 
ATOM      7  C   UNL     1       4.117   5.398  17.274  0.00  0.00    +0.000 A 
ATOM      8  C   UNL     1       4.195   3.996  17.385  0.00  0.00    +0.000 A 
ATOM      9  C   UNL     1       3.266   3.268  18.136  0.00  0.00    +0.000 A 
ATOM     10 CL   UNL     1       3.412   1.548  18.169  0.00  0.00    +0.000 Cl
BRANCH   7  11
ATOM     11  C   UNL     1       5.159   6.180  16.482  0.00  0.00    +0.000 C 
ATOM     12  C   UNL     1       6.384   6.471  17.353  0.00  0.00    +0.000 C 
ATOM     13  C   UNL     1       5.574   5.506  15.171  0.00  0.00    +0.000 C 
ENDBRANCH   7  11
ENDBRANCH   2   6
ENDBRANCH   1   2
BRANCH   1  14
ATOM     14  C   UNL     1       1.498   9.302  18.125  0.00  0.00    +0.000 C 
BRANCH  14  15
ATOM     15  C   UNL     1       0.552  10.030  19.096  0.00  0.00    +0.000 C 
BRANCH  15  16
ATOM     16  N   UNL     1       0.789  11.561  19.289  0.00  0.00    +0.000 N 
ATOM     17  C   UNL     1       1.990  12.070  18.500  0.00  0.00    +0.000 C 
ATOM     18  C   UNL     1      -0.458  12.321  18.869  0.00  0.00    +0.000 C 
BRANCH  16  19
ATOM     19  C   UNL     1       1.054  11.796  20.818  0.00  0.00    +0.000 C 
BRANCH  19  20
ATOM     20  C   UNL     1      -0.107  12.325  21.643  0.00  0.00    +0.000 A 
ATOM     21  C   UNL     1      -0.197  13.684  21.977  0.00  0.00    +0.000 A 
ATOM     22  C   UNL     1      -1.213  14.148  22.821  0.00  0.00    +0.000 A 
ATOM     23  C   UNL     1      -2.150  13.257  23.337  0.00  0.00    +0.000 A 
ATOM     24 BR   UNL     1      -3.504  13.880  24.499  0.00  0.00    +0.000 Br
ATOM     25  C   UNL     1      -2.097  11.908  22.999  0.00  0.00    +0.000 A 
ATOM     26  C   UNL     1      -1.097  11.451  22.135  0.00  0.00    +0.000 A 
ENDBRANCH  19  20
ENDBRANCH  16  19
ENDBRANCH  15  16
ENDBRANCH  14  15
ENDBRANCH   1  14
TORSDOF 8
ENDMDL
MODEL 6
REMARK VINA RESULT:      -6.7      5.523      8.071
REMARK  Name = 
REMARK  13 active torsions:
REMARK  status: ('A' for Active; 'I' for Inactive)
REMARK    1  A    between atoms: C_1  and  C_2
REMARK    2  A    between atoms: C_4  and  O_5
REMARK    3  A    between atoms: O_5  and  C_6
REMARK    4  A    between atoms: C_6  and  C_7
REMARK    5  A    between atoms: C_7  and  C_8
REMARK    6  A    between atoms: C_8  and  N_9
REMARK    7  A    between atoms: N_9  and  C_10
REMARK    8  A    between atoms: N_9  and  C_11
REMARK    9  A    between atoms: N_9  and  C_12
REMARK   10  A    between atoms: C_12  and  C_13
REMARK   11  A    between atoms: C_20  and  C_21
REMARK   12  A    between atoms: C_21  and  C_22
REMARK   13  A    between atoms: C_21  and  C_23
REMARK                            x       y       z     vdW  Elec       q    Type
REMARK                         _______ _______ _______ _____ _____    ______ ____
ROOT
ATOM      1  C   UNL     1       8.312   9.320  18.419  0.00  0.00    +0.000 C 
ENDROOT
BRANCH   1   2
ATOM      2  O   UNL     1       9.522   9.673  19.070  0.00  0.00    +0.000 OA
BRANCH   2   6
ATOM      3  C   UNL     1       8.179  11.756  23.388  0.00  0.00    +0.000 C 
ATOM      4  C   UNL     1       8.801  11.858  22.020  0.00  0.00    +0.000 A 
ATOM      5  C   UNL     1       8.849  10.723  21.195  0.00  0.00    +0.000 A 
ATOM      6  C   UNL     1       9.429  10.764  19.912  0.00  0.00    +0.000 A 
ATOM      7  C   UNL     1       9.969  11.968  19.429  0.00  0.00    +0.000 A 
ATOM      8  C   UNL     1       9.918  13.102  20.262  0.00  0.00    +0.000 A 
ATOM      9  C   UNL     1       9.360  13.045  21.544  0.00  0.00    +0.000 A 
ATOM     10 CL   UNL     1       9.392  14.473  22.512  0.00  0.00    +0.000 Cl
BRANCH   7  11
ATOM     11  C   UNL     1      10.548  12.056  18.021  0.00  0.00    +0.000 C 
ATOM     12  C   UNL     1      10.052  13.323  17.318  0.00  0.00    +0.000 C 
ATOM     13  C   UNL     1      12.076  11.975  17.975  0.00  0.00    +0.000 C 
ENDBRANCH   7  11
ENDBRANCH   2   6
ENDBRANCH   1   2
BRANCH   1  14
ATOM     14  C   UNL     1       8.239   7.831  18.119  0.00  0.00    +0.000 C 
BRANCH  14  15
ATOM     15  C   UNL     1       6.974   7.412  17.349  0.00  0.00    +0.000 C 
BRANCH  15  16
ATOM     16  N   UNL     1       6.413   5.985  17.646  0.00  0.00    +0.000 N 
ATOM     17  C   UNL     1       7.036   4.917  16.754  0.00  0.00    +0.000 C 
ATOM     18  C   UNL     1       6.659   5.640  19.105  0.00  0.00    +0.000 C 
BRANCH  16  19
ATOM     19  C   UNL     1       4.869   6.033  17.373  0.00  0.00    +0.000 C 
BRANCH  19  20
ATOM     20  C   UNL     1       3.980   5.241  18.317  0.00  0.00    +0.000 A 
ATOM     21  C   UNL     1       3.329   5.865  19.391  0.00  0.00    +0.000 A 
ATOM     22  C   UNL     1       2.594   5.114  20.316  0.00  0.00    +0.000 A 
ATOM     23  C   UNL     1       2.500   3.732  20.174  0.00  0.00    +0.000 A 
ATOM     24 BR   UNL     1       1.531   2.716  21.438  0.00  0.00    +0.000 Br
ATOM     25  C   UNL     1       3.115   3.094  19.101  0.00  0.00    +0.000 A 
ATOM     26  C   UNL     1       3.828   3.848  18.164  0.00  0.00    +0.000 A 
ENDBRANCH  19  20
ENDBRANCH  16  19
ENDBRANCH  15  16
ENDBRANCH  14  15
ENDBRANCH   1  14
TORSDOF 8
ENDMDL
MODEL 7
REMARK VINA RESULT:      -6.5      4.580      6.707
REMARK  Name = 
REMARK  13 active torsions:
REMARK  status: ('A' for Active; 'I' for Inactive)
REMARK    1  A    between atoms: C_1  and  C_2
REMARK    2  A    between atoms: C_4  and  O_5
REMARK    3  A    between atoms: O_5  and  C_6
REMARK    4  A    between atoms: C_6  and  C_7
REMARK    5  A    between atoms: C_7  and  C_8
REMARK    6  A    between atoms: C_8  and  N_9
REMARK    7  A    between atoms: N_9  and  C_10
REMARK    8  A    between atoms: N_9  and  C_11
REMARK    9  A    between atoms: N_9  and  C_12
REMARK   10  A    between atoms: C_12  and  C_13
REMARK   11  A    between atoms: C_20  and  C_21
REMARK   12  A    between atoms: C_21  and  C_22
REMARK   13  A    between atoms: C_21  and  C_23
REMARK                            x       y       z     vdW  Elec       q    Type
REMARK                         _______ _______ _______ _____ _____    ______ ____
ROOT
ATOM      1  C   UNL     1       1.779   8.254  18.221  0.00  0.00    +0.000 C 
ENDROOT
BRANCH   1   2
ATOM      2  O   UNL     1       2.989   7.636  17.814  0.00  0.00    +0.000 OA
BRANCH   2   6
ATOM      3  C   UNL     1       1.145   3.429  19.732  0.00  0.00    +0.000 C 
ATOM      4  C   UNL     1       2.172   4.150  18.900  0.00  0.00    +0.000 A 
ATOM      5  C   UNL     1       2.099   5.546  18.768  0.00  0.00    +0.000 A 
ATOM      6  C   UNL     1       3.028   6.268  17.994  0.00  0.00    +0.000 A 
ATOM      7  C   UNL     1       4.068   5.585  17.338  0.00  0.00    +0.000 A 
ATOM      8  C   UNL     1       4.134   4.185  17.474  0.00  0.00    +0.000 A 
ATOM      9  C   UNL     1       3.191   3.476  18.228  0.00  0.00    +0.000 A 
ATOM     10 CL   UNL     1       3.324   1.757  18.291  0.00  0.00    +0.000 Cl
BRANCH   7  11
ATOM     11  C   UNL     1       5.123   6.346  16.543  0.00  0.00    +0.000 C 
ATOM     12  C   UNL     1       6.371   6.578  17.399  0.00  0.00    +0.000 C 
ATOM     13  C   UNL     1       5.494   5.681  15.214  0.00  0.00    +0.000 C 
ENDBRANCH   7  11
ENDBRANCH   2   6
ENDBRANCH   1   2
BRANCH   1  14
ATOM     14  C   UNL     1       1.720   9.718  17.810  0.00  0.00    +0.000 C 
BRANCH  14  15
ATOM     15  C   UNL     1       1.409  10.679  18.971  0.00  0.00    +0.000 C 
BRANCH  15  16
ATOM     16  N   UNL     1      -0.060  10.686  19.500  0.00  0.00    +0.000 N 
ATOM     17  C   UNL     1      -1.082  10.477  18.388  0.00  0.00    +0.000 C 
ATOM     18  C   UNL     1      -0.221   9.603  20.554  0.00  0.00    +0.000 C 
BRANCH  16  19
ATOM     19  C   UNL     1      -0.306  12.091  20.153  0.00  0.00    +0.000 C 
BRANCH  19  20
ATOM     20  C   UNL     1      -1.544  12.238  21.021  0.00  0.00    +0.000 A 
ATOM     21  C   UNL     1      -2.775  12.619  20.467  0.00  0.00    +0.000 A 
ATOM     22  C   UNL     1      -3.887  12.851  21.286  0.00  0.00    +0.000 A 
ATOM     23  C   UNL     1      -3.780  12.701  22.666  0.00  0.00    +0.000 A 
ATOM     24 BR   UNL     1      -5.273  13.042  23.771  0.00  0.00    +0.000 Br
ATOM     25  C   UNL     1      -2.576  12.298  23.236  0.00  0.00    +0.000 A 
ATOM     26  C   UNL     1      -1.473  12.042  22.416  0.00  0.00    +0.000 A 
ENDBRANCH  19  20
ENDBRANCH  16  19
ENDBRANCH  15  16
ENDBRANCH  14  15
ENDBRANCH   1  14
TORSDOF 8
ENDMDL
MODEL 8
REMARK VINA RESULT:      -6.5      4.395      6.666
REMARK  Name = 
REMARK  13 active torsions:
REMARK  status: ('A' for Active; 'I' for Inactive)
REMARK    1  A    between atoms: C_1  and  C_2
REMARK    2  A    between atoms: C_4  and  O_5
REMARK    3  A    between atoms: O_5  and  C_6
REMARK    4  A    between atoms: C_6  and  C_7
REMARK    5  A    between atoms: C_7  and  C_8
REMARK    6  A    between atoms: C_8  and  N_9
REMARK    7  A    between atoms: N_9  and  C_10
REMARK    8  A    between atoms: N_9  and  C_11
REMARK    9  A    between atoms: N_9  and  C_12
REMARK   10  A    between atoms: C_12  and  C_13
REMARK   11  A    between atoms: C_20  and  C_21
REMARK   12  A    between atoms: C_21  and  C_22
REMARK   13  A    between atoms: C_21  and  C_23
REMARK                            x       y       z     vdW  Elec       q    Type
REMARK                         _______ _______ _______ _____ _____    ______ ____
ROOT
ATOM      1  C   UNL     1       2.042   8.119  18.666  0.00  0.00    +0.000 C 
ENDROOT
BRANCH   1   2
ATOM      2  O   UNL     1       3.206   7.461  18.191  0.00  0.00    +0.000 OA
BRANCH   2   6
ATOM      3  C   UNL     1       1.033   3.245  19.703  0.00  0.00    +0.000 C 
ATOM      4  C   UNL     1       2.163   3.964  19.014  0.00  0.00    +0.000 A 
ATOM      5  C   UNL     1       2.152   5.366  18.946  0.00  0.00    +0.000 A 
ATOM      6  C   UNL     1       3.179   6.086  18.304  0.00  0.00    +0.000 A 
ATOM      7  C   UNL     1       4.254   5.394  17.720  0.00  0.00    +0.000 A 
ATOM      8  C   UNL     1       4.258   3.987  17.790  0.00  0.00    +0.000 A 
ATOM      9  C   UNL     1       3.221   3.282  18.411  0.00  0.00    +0.000 A 
ATOM     10 CL   UNL     1       3.287   1.558  18.400  0.00  0.00    +0.000 Cl
BRANCH   7  11
ATOM     11  C   UNL     1       5.410   6.148  17.072  0.00  0.00    +0.000 C 
ATOM     12  C   UNL     1       6.745   5.486  17.425  0.00  0.00    +0.000 C 
ATOM     13  C   UNL     1       5.270   6.311  15.556  0.00  0.00    +0.000 C 
ENDBRANCH   7  11
ENDBRANCH   2   6
ENDBRANCH   1   2
BRANCH   1  14
ATOM     14  C   UNL     1       1.679   9.324  17.811  0.00  0.00    +0.000 C 
BRANCH  14  15
ATOM     15  C   UNL     1       0.387  10.034  18.252  0.00  0.00    +0.000 C 
BRANCH  15  16
ATOM     16  N   UNL     1       0.554  11.388  19.011  0.00  0.00    +0.000 N 
ATOM     17  C   UNL     1       1.757  12.186  18.521  0.00  0.00    +0.000 C 
ATOM     18  C   UNL     1      -0.709  12.216  18.850  0.00  0.00    +0.000 C 
BRANCH  16  19
ATOM     19  C   UNL     1       0.763  11.042  20.527  0.00  0.00    +0.000 C 
BRANCH  19  20
ATOM     20  C   UNL     1      -0.024  11.864  21.534  0.00  0.00    +0.000 A 
ATOM     21  C   UNL     1      -1.037  11.281  22.309  0.00  0.00    +0.000 A 
ATOM     22  C   UNL     1      -1.826  12.063  23.161  0.00  0.00    +0.000 A 
ATOM     23  C   UNL     1      -1.609  13.436  23.246  0.00  0.00    +0.000 A 
ATOM     24 BR   UNL     1      -2.694  14.494  24.374  0.00  0.00    +0.000 Br
ATOM     25  C   UNL     1      -0.593  14.033  22.506  0.00  0.00    +0.000 A 
ATOM     26  C   UNL     1       0.212  13.246  21.676  0.00  0.00    +0.000 A 
ENDBRANCH  19  20
ENDBRANCH  16  19
ENDBRANCH  15  16
ENDBRANCH  14  15
ENDBRANCH   1  14
TORSDOF 8
ENDMDL
MODEL 9
REMARK VINA RESULT:      -6.5      5.520      8.041
REMARK  Name = 
REMARK  13 active torsions:
REMARK  status: ('A' for Active; 'I' for Inactive)
REMARK    1  A    between atoms: C_1  and  C_2
REMARK    2  A    between atoms: C_4  and  O_5
REMARK    3  A    between atoms: O_5  and  C_6
REMARK    4  A    between atoms: C_6  and  C_7
REMARK    5  A    between atoms: C_7  and  C_8
REMARK    6  A    between atoms: C_8  and  N_9
REMARK    7  A    between atoms: N_9  and  C_10
REMARK    8  A    between atoms: N_9  and  C_11
REMARK    9  A    between atoms: N_9  and  C_12
REMARK   10  A    between atoms: C_12  and  C_13
REMARK   11  A    between atoms: C_20  and  C_21
REMARK   12  A    between atoms: C_21  and  C_22
REMARK   13  A    between atoms: C_21  and  C_23
REMARK                            x       y       z     vdW  Elec       q    Type
REMARK                         _______ _______ _______ _____ _____    ______ ____
ROOT
ATOM      1  C   UNL     1       8.387   9.325  18.367  0.00  0.00    +0.000 C 
ENDROOT
BRANCH   1   2
ATOM      2  O   UNL     1       9.570   9.660  19.073  0.00  0.00    +0.000 OA
BRANCH   2   6
ATOM      3  C   UNL     1       8.150  11.767  23.353  0.00  0.00    +0.000 C 
ATOM      4  C   UNL     1       8.791  11.863  21.994  0.00  0.00    +0.000 A 
ATOM      5  C   UNL     1       8.859  10.722  21.179  0.00  0.00    +0.000 A 
ATOM      6  C   UNL     1       9.458  10.756  19.904  0.00  0.00    +0.000 A 
ATOM      7  C   UNL     1       9.997  11.961  19.420  0.00  0.00    +0.000 A 
ATOM      8  C   UNL     1       9.926  13.101  20.243  0.00  0.00    +0.000 A 
ATOM      9  C   UNL     1       9.349  13.050  21.517  0.00  0.00    +0.000 A 
ATOM     10 CL   UNL     1       9.356  14.486  22.474  0.00  0.00    +0.000 Cl
BRANCH   7  11
ATOM     11  C   UNL     1      10.596  12.042  18.020  0.00  0.00    +0.000 C 
ATOM     12  C   UNL     1      10.198  13.357  17.344  0.00  0.00    +0.000 C 
ATOM     13  C   UNL     1      12.115  11.853  17.986  0.00  0.00    +0.000 C 
ENDBRANCH   7  11
ENDBRANCH   2   6
ENDBRANCH   1   2
BRANCH   1  14
ATOM     14  C   UNL     1       8.178   7.820  18.285  0.00  0.00    +0.000 C 
BRANCH  14  15
ATOM     15  C   UNL     1       7.268   7.380  17.126  0.00  0.00    +0.000 C 
BRANCH  15  16
ATOM     16  N   UNL     1       6.535   6.010  17.290  0.00  0.00    +0.000 N 
ATOM     17  C   UNL     1       5.215   5.961  16.528  0.00  0.00    +0.000 C 
ATOM     18  C   UNL     1       7.445   4.891  16.811  0.00  0.00    +0.000 C 
BRANCH  16  19
ATOM     19  C   UNL     1       6.241   5.827  18.820  0.00  0.00    +0.000 C 
BRANCH  19  20
ATOM     20  C   UNL     1       4.952   5.114  19.191  0.00  0.00    +0.000 A 
ATOM     21  C   UNL     1       4.870   3.714  19.175  0.00  0.00    +0.000 A 
ATOM     22  C   UNL     1       3.653   3.067  19.419  0.00  0.00    +0.000 A 
ATOM     23  C   UNL     1       2.507   3.812  19.684  0.00  0.00    +0.000 A 
ATOM     24 BR   UNL     1       0.860   2.937  19.985  0.00  0.00    +0.000 Br
ATOM     25  C   UNL     1       2.570   5.201  19.732  0.00  0.00    +0.000 A 
ATOM     26  C   UNL     1       3.791   5.847  19.513  0.00  0.00    +0.000 A 
ENDBRANCH  19  20
ENDBRANCH  16  19
ENDBRANCH  15  16
ENDBRANCH  14  15
ENDBRANCH   1  14
TORSDOF 8
ENDMDL
