MODEL 1
REMARK VINA RESULT:      -8.0      0.000      0.000
REMARK  Name = 
REMARK  5 active torsions:
REMARK  status: ('A' for Active; 'I' for Inactive)
REMARK    1  A    between atoms: C_1  and  C_2
REMARK    2  A    between atoms: C_5  and  C_6
REMARK    3  A    between atoms: C_7  and  S_8
REMARK    4  A    between atoms: S_8  and  N_11
REMARK    5  A    between atoms: N_11  and  C_12
REMARK                            x       y       z     vdW  Elec       q    Type
REMARK                         _______ _______ _______ _____ _____    ______ ____
ROOT
ATOM      1  S   UNL     1       5.383   5.051  18.783  0.00  0.00    +0.000 S 
ATOM      2  O   UNL     1       6.371   4.892  19.825  0.00  0.00    +0.000 OA
ATOM      3  O   UNL     1       4.386   6.098  18.807  0.00  0.00    +0.000 OA
ENDROOT
BRANCH   1  10
ATOM      4  C   UNL     1       5.427   3.613  15.751  0.00  0.00    +0.000 C 
ATOM      5  C   UNL     1       6.268   4.761  16.166  0.00  0.00    +0.000 A 
ATOM      6  N   UNL     1       7.133   5.305  15.298  0.00  0.00    +0.000 NA
ATOM      7  O   UNL     1       7.763   6.327  15.980  0.00  0.00    +0.000 OA
ATOM      8  C   UNL     1       7.280   6.400  17.253  0.00  0.00    +0.000 A 
ATOM      9  C   UNL     1       7.878   7.446  18.100  0.00  0.00    +0.000 C 
ATOM     10  C   UNL     1       6.323   5.429  17.410  0.00  0.00    +0.000 A 
ENDBRANCH   1  10
BRANCH   1  11
ATOM     11  N   UNL     1       4.642   3.531  18.572  0.00  0.00    +0.000 N 
ATOM     12  H   UNL     1       5.364   2.839  18.797  0.00  0.00    +0.000 HD
BRANCH  11  13
ATOM     13  C   UNL     1       3.475   3.312  19.398  0.00  0.00    +0.000 A 
ATOM     14  C   UNL     1       3.657   2.782  20.678  0.00  0.00    +0.000 A 
ATOM     15  C   UNL     1       2.558   2.551  21.509  0.00  0.00    +0.000 A 
ATOM     16  C   UNL     1       1.269   2.836  21.062  0.00  0.00    +0.000 A 
ATOM     17  C   UNL     1       1.074   3.340  19.776  0.00  0.00    +0.000 A 
ATOM     18  C   UNL     1       2.172   3.569  18.940  0.00  0.00    +0.000 A 
ATOM     19 CL   UNL     1       1.886   4.204  17.362  0.00  0.00    +0.000 Cl
ENDBRANCH  11  13
ENDBRANCH   1  11
TORSDOF 3
ENDMDL
MODEL 2
REMARK VINA RESULT:      -7.9      0.525      1.914
REMARK  Name = 
REMARK  5 active torsions:
REMARK  status: ('A' for Active; 'I' for Inactive)
REMARK    1  A    between atoms: C_1  and  C_2
REMARK    2  A    between atoms: C_5  and  C_6
REMARK    3  A    between atoms: C_7  and  S_8
REMARK    4  A    between atoms: S_8  and  N_11
REMARK    5  A    between atoms: N_11  and  C_12
REMARK                            x       y       z     vdW  Elec       q    Type
REMARK                         _______ _______ _______ _____ _____    ______ ____
ROOT
ATOM      1  S   UNL     1       5.383   4.916  18.912  0.00  0.00    +0.000 S 
ATOM      2  O   UNL     1       6.458   4.718  19.856  0.00  0.00    +0.000 OA
ATOM      3  O   UNL     1       4.404   5.970  19.057  0.00  0.00    +0.000 OA
ENDROOT
BRANCH   1  10
ATOM      4  C   UNL     1       7.933   7.041  18.425  0.00  0.00    +0.000 C 
ATOM      5  C   UNL     1       7.275   6.239  17.367  0.00  0.00    +0.000 A 
ATOM      6  N   UNL     1       7.691   6.336  16.097  0.00  0.00    +0.000 NA
ATOM      7  O   UNL     1       6.880   5.489  15.366  0.00  0.00    +0.000 OA
ATOM      8  C   UNL     1       5.980   4.885  16.192  0.00  0.00    +0.000 A 
ATOM      9  C   UNL     1       5.041   3.958  15.537  0.00  0.00    +0.000 C 
ATOM     10  C   UNL     1       6.200   5.327  17.472  0.00  0.00    +0.000 A 
ENDBRANCH   1  10
BRANCH   1  11
ATOM     11  N   UNL     1       4.610   3.410  18.725  0.00  0.00    +0.000 N 
ATOM     12  H   UNL     1       5.309   2.706  18.986  0.00  0.00    +0.000 HD
BRANCH  11  13
ATOM     13  C   UNL     1       3.419   3.242  19.528  0.00  0.00    +0.000 A 
ATOM     14  C   UNL     1       3.555   2.725  20.819  0.00  0.00    +0.000 A 
ATOM     15  C   UNL     1       2.432   2.543  21.629  0.00  0.00    +0.000 A 
ATOM     16  C   UNL     1       1.163   2.864  21.150  0.00  0.00    +0.000 A 
ATOM     17  C   UNL     1       1.012   3.354  19.852  0.00  0.00    +0.000 A 
ATOM     18  C   UNL     1       2.135   3.533  19.037  0.00  0.00    +0.000 A 
ATOM     19 CL   UNL     1       1.904   4.154  17.444  0.00  0.00    +0.000 Cl
ENDBRANCH  11  13
ENDBRANCH   1  11
TORSDOF 3
ENDMDL
MODEL 3
REMARK VINA RESULT:      -7.6      1.334      1.794
REMARK  Name = 
REMARK  5 active torsions:
REMARK  status: ('A' for Active; 'I' for Inactive)
REMARK    1  A    between atoms: C_1  and  C_2
REMARK    2  A    between atoms: C_5  and  C_6
REMARK    3  A    between atoms: C_7  and  S_8
REMARK    4  A    between atoms: S_8  and  N_11
REMARK    5  A    between atoms: N_11  and  C_12
REMARK                            x       y       z     vdW  Elec       q    Type
REMARK                         _______ _______ _______ _____ _____    ______ ____
ROOT
ATOM      1  S   UNL     1       5.531   4.863  18.470  0.00  0.00    +0.000 S 
ATOM      2  O   UNL     1       6.504   4.607  19.506  0.00  0.00    +0.000 OA
ATOM      3  O   UNL     1       4.504   5.872  18.597  0.00  0.00    +0.000 OA
ENDROOT
BRANCH   1  10
ATOM      4  C   UNL     1       5.833   3.662  15.352  0.00  0.00    +0.000 C 
ATOM      5  C   UNL     1       6.542   4.850  15.883  0.00  0.00    +0.000 A 
ATOM      6  N   UNL     1       7.385   5.534  15.096  0.00  0.00    +0.000 NA
ATOM      7  O   UNL     1       7.886   6.557  15.876  0.00  0.00    +0.000 OA
ATOM      8  C   UNL     1       7.348   6.491  17.127  0.00  0.00    +0.000 A 
ATOM      9  C   UNL     1       7.808   7.524  18.071  0.00  0.00    +0.000 C 
ATOM     10  C   UNL     1       6.484   5.426  17.172  0.00  0.00    +0.000 A 
ENDBRANCH   1  10
BRANCH   1  11
ATOM     11  N   UNL     1       4.838   3.359  18.065  0.00  0.00    +0.000 N 
ATOM     12  H   UNL     1       5.457   2.651  18.474  0.00  0.00    +0.000 HD
BRANCH  11  13
ATOM     13  C   UNL     1       3.487   3.171  18.547  0.00  0.00    +0.000 A 
ATOM     14  C   UNL     1       2.430   3.617  17.751  0.00  0.00    +0.000 A 
ATOM     15  C   UNL     1       1.109   3.459  18.178  0.00  0.00    +0.000 A 
ATOM     16  C   UNL     1       0.838   2.864  19.409  0.00  0.00    +0.000 A 
ATOM     17  C   UNL     1       1.888   2.440  20.225  0.00  0.00    +0.000 A 
ATOM     18  C   UNL     1       3.211   2.602  19.802  0.00  0.00    +0.000 A 
ATOM     19 CL   UNL     1       4.478   2.052  20.836  0.00  0.00    +0.000 Cl
ENDBRANCH  11  13
ENDBRANCH   1  11
TORSDOF 3
ENDMDL
MODEL 4
REMARK VINA RESULT:      -7.4      1.573      1.796
REMARK  Name = 
REMARK  5 active torsions:
REMARK  status: ('A' for Active; 'I' for Inactive)
REMARK    1  A    between atoms: C_1  and  C_2
REMARK    2  A    between atoms: C_5  and  C_6
REMARK    3  A    between atoms: C_7  and  S_8
REMARK    4  A    between atoms: S_8  and  N_11
REMARK    5  A    between atoms: N_11  and  C_12
REMARK                            x       y       z     vdW  Elec       q    Type
REMARK                         _______ _______ _______ _____ _____    ______ ____
ROOT
ATOM      1  S   UNL     1       4.554   5.663  18.011  0.00  0.00    +0.000 S 
ATOM      2  O   UNL     1       4.718   5.532  19.440  0.00  0.00    +0.000 OA
ATOM      3  O   UNL     1       4.356   6.941  17.364  0.00  0.00    +0.000 OA
ENDROOT
BRANCH   1  10
ATOM      4  C   UNL     1       5.303   4.344  15.019  0.00  0.00    +0.000 C 
ATOM      5  C   UNL     1       6.273   4.591  16.111  0.00  0.00    +0.000 A 
ATOM      6  N   UNL     1       7.565   4.279  15.941  0.00  0.00    +0.000 NA
ATOM      7  O   UNL     1       8.195   4.612  17.125  0.00  0.00    +0.000 OA
ATOM      8  C   UNL     1       7.286   5.123  18.004  0.00  0.00    +0.000 A 
ATOM      9  C   UNL     1       7.825   5.511  19.319  0.00  0.00    +0.000 C 
ATOM     10  C   UNL     1       6.055   5.135  17.397  0.00  0.00    +0.000 A 
ENDBRANCH   1  10
BRANCH   1  11
ATOM     11  N   UNL     1       3.329   4.571  17.555  0.00  0.00    +0.000 N 
ATOM     12  H   UNL     1       3.805   3.820  17.044  0.00  0.00    +0.000 HD
BRANCH  11  13
ATOM     13  C   UNL     1       2.575   4.017  18.658  0.00  0.00    +0.000 A 
ATOM     14  C   UNL     1       1.803   4.882  19.436  0.00  0.00    +0.000 A 
ATOM     15  C   UNL     1       1.062   4.392  20.514  0.00  0.00    +0.000 A 
ATOM     16  C   UNL     1       1.097   3.034  20.828  0.00  0.00    +0.000 A 
ATOM     17  C   UNL     1       1.887   2.165  20.074  0.00  0.00    +0.000 A 
ATOM     18  C   UNL     1       2.634   2.655  18.998  0.00  0.00    +0.000 A 
ATOM     19 CL   UNL     1       3.587   1.543  18.085  0.00  0.00    +0.000 Cl
ENDBRANCH  11  13
ENDBRANCH   1  11
TORSDOF 3
ENDMDL
MODEL 5
REMARK VINA RESULT:      -7.4      1.282      1.518
REMARK  Name = 
REMARK  5 active torsions:
REMARK  status: ('A' for Active; 'I' for Inactive)
REMARK    1  A    between atoms: C_1  and  C_2
REMARK    2  A    between atoms: C_5  and  C_6
REMARK    3  A    between atoms: C_7  and  S_8
REMARK    4  A    between atoms: S_8  and  N_11
REMARK    5  A    between atoms: N_11  and  C_12
REMARK                            x       y       z     vdW  Elec       q    Type
REMARK                         _______ _______ _______ _____ _____    ______ ____
ROOT
ATOM      1  S   UNL     1       4.639   5.803  18.055  0.00  0.00    +0.000 S 
ATOM      2  O   UNL     1       5.252   5.378  19.292  0.00  0.00    +0.000 OA
ATOM      3  O   UNL     1       4.034   7.106  17.892  0.00  0.00    +0.000 OA
ENDROOT
BRANCH   1  10
ATOM      4  C   UNL     1       5.155   3.997  15.275  0.00  0.00    +0.000 C 
ATOM      5  C   UNL     1       6.075   5.029  15.807  0.00  0.00    +0.000 A 
ATOM      6  N   UNL     1       7.220   5.299  15.164  0.00  0.00    +0.000 NA
ATOM      7  O   UNL     1       7.850   6.279  15.907  0.00  0.00    +0.000 OA
ATOM      8  C   UNL     1       7.087   6.599  16.992  0.00  0.00    +0.000 A 
ATOM      9  C   UNL     1       7.650   7.629  17.881  0.00  0.00    +0.000 C 
ATOM     10  C   UNL     1       5.948   5.833  16.962  0.00  0.00    +0.000 A 
ENDBRANCH   1  10
BRANCH   1  11
ATOM     11  N   UNL     1       3.542   4.580  17.605  0.00  0.00    +0.000 N 
ATOM     12  H   UNL     1       4.115   3.824  17.216  0.00  0.00    +0.000 HD
BRANCH  11  13
ATOM     13  C   UNL     1       2.729   4.073  18.688  0.00  0.00    +0.000 A 
ATOM     14  C   UNL     1       1.994   4.985  19.450  0.00  0.00    +0.000 A 
ATOM     15  C   UNL     1       1.198   4.541  20.508  0.00  0.00    +0.000 A 
ATOM     16  C   UNL     1       1.140   3.184  20.820  0.00  0.00    +0.000 A 
ATOM     17  C   UNL     1       1.891   2.267  20.083  0.00  0.00    +0.000 A 
ATOM     18  C   UNL     1       2.693   2.710  19.026  0.00  0.00    +0.000 A 
ATOM     19 CL   UNL     1       3.595   1.541  18.134  0.00  0.00    +0.000 Cl
ENDBRANCH  11  13
ENDBRANCH   1  11
TORSDOF 3
ENDMDL
MODEL 6
REMARK VINA RESULT:      -7.4      1.642      2.496
REMARK  Name = 
REMARK  5 active torsions:
REMARK  status: ('A' for Active; 'I' for Inactive)
REMARK    1  A    between atoms: C_1  and  C_2
REMARK    2  A    between atoms: C_5  and  C_6
REMARK    3  A    between atoms: C_7  and  S_8
REMARK    4  A    between atoms: S_8  and  N_11
REMARK    5  A    between atoms: N_11  and  C_12
REMARK                            x       y       z     vdW  Elec       q    Type
REMARK                         _______ _______ _______ _____ _____    ______ ____
ROOT
ATOM      1  S   UNL     1       4.578   5.726  18.050  0.00  0.00    +0.000 S 
ATOM      2  O   UNL     1       4.732   5.518  19.470  0.00  0.00    +0.000 OA
ATOM      3  O   UNL     1       4.484   7.043  17.460  0.00  0.00    +0.000 OA
ENDROOT
BRANCH   1  10
ATOM      4  C   UNL     1       7.646   5.604  19.402  0.00  0.00    +0.000 C 
ATOM      5  C   UNL     1       7.283   5.095  18.058  0.00  0.00    +0.000 A 
ATOM      6  N   UNL     1       8.219   4.535  17.280  0.00  0.00    +0.000 NA
ATOM      7  O   UNL     1       7.577   4.183  16.108  0.00  0.00    +0.000 OA
ATOM      8  C   UNL     1       6.260   4.530  16.180  0.00  0.00    +0.000 A 
ATOM      9  C   UNL     1       5.456   4.220  14.986  0.00  0.00    +0.000 C 
ATOM     10  C   UNL     1       6.030   5.105  17.405  0.00  0.00    +0.000 A 
ENDBRANCH   1  10
BRANCH   1  11
ATOM     11  N   UNL     1       3.266   4.760  17.551  0.00  0.00    +0.000 N 
ATOM     12  H   UNL     1       3.669   4.044  16.937  0.00  0.00    +0.000 HD
BRANCH  11  13
ATOM     13  C   UNL     1       2.538   4.131  18.631  0.00  0.00    +0.000 A 
ATOM     14  C   UNL     1       1.754   4.936  19.461  0.00  0.00    +0.000 A 
ATOM     15  C   UNL     1       1.037   4.372  20.518  0.00  0.00    +0.000 A 
ATOM     16  C   UNL     1       1.107   3.001  20.760  0.00  0.00    +0.000 A 
ATOM     17  C   UNL     1       1.909   2.192  19.954  0.00  0.00    +0.000 A 
ATOM     18  C   UNL     1       2.632   2.755  18.898  0.00  0.00    +0.000 A 
ATOM     19 CL   UNL     1       3.600   1.715  17.918  0.00  0.00    +0.000 Cl
ENDBRANCH  11  13
ENDBRANCH   1  11
TORSDOF 3
ENDMDL
MODEL 7
REMARK VINA RESULT:      -7.4      1.947      2.770
REMARK  Name = 
REMARK  5 active torsions:
REMARK  status: ('A' for Active; 'I' for Inactive)
REMARK    1  A    between atoms: C_1  and  C_2
REMARK    2  A    between atoms: C_5  and  C_6
REMARK    3  A    between atoms: C_7  and  S_8
REMARK    4  A    between atoms: S_8  and  N_11
REMARK    5  A    between atoms: N_11  and  C_12
REMARK                            x       y       z     vdW  Elec       q    Type
REMARK                         _______ _______ _______ _____ _____    ______ ____
ROOT
ATOM      1  S   UNL     1       4.536   5.584  17.788  0.00  0.00    +0.000 S 
ATOM      2  O   UNL     1       4.655   6.995  17.504  0.00  0.00    +0.000 OA
ATOM      3  O   UNL     1       3.608   4.724  17.088  0.00  0.00    +0.000 OA
ENDROOT
BRANCH   1  10
ATOM      4  C   UNL     1       7.408   5.506  19.521  0.00  0.00    +0.000 C 
ATOM      5  C   UNL     1       7.223   4.977  18.149  0.00  0.00    +0.000 A 
ATOM      6  N   UNL     1       8.254   4.415  17.504  0.00  0.00    +0.000 NA
ATOM      7  O   UNL     1       7.769   4.042  16.265  0.00  0.00    +0.000 OA
ATOM      8  C   UNL     1       6.451   4.378  16.165  0.00  0.00    +0.000 A 
ATOM      9  C   UNL     1       5.808   4.045  14.882  0.00  0.00    +0.000 C 
ATOM     10  C   UNL     1       6.063   4.967  17.342  0.00  0.00    +0.000 A 
ENDBRANCH   1  10
BRANCH   1  11
ATOM     11  N   UNL     1       4.326   5.437  19.472  0.00  0.00    +0.000 N 
ATOM     12  H   UNL     1       4.217   6.395  19.821  0.00  0.00    +0.000 HD
BRANCH  11  13
ATOM     13  C   UNL     1       3.189   4.636  19.869  0.00  0.00    +0.000 A 
ATOM     14  C   UNL     1       1.973   5.281  20.109  0.00  0.00    +0.000 A 
ATOM     15  C   UNL     1       0.849   4.548  20.497  0.00  0.00    +0.000 A 
ATOM     16  C   UNL     1       0.936   3.166  20.659  0.00  0.00    +0.000 A 
ATOM     17  C   UNL     1       2.153   2.515  20.449  0.00  0.00    +0.000 A 
ATOM     18  C   UNL     1       3.280   3.248  20.065  0.00  0.00    +0.000 A 
ATOM     19 CL   UNL     1       4.761   2.401  19.803  0.00  0.00    +0.000 Cl
ENDBRANCH  11  13
ENDBRANCH   1  11
TORSDOF 3
ENDMDL
MODEL 8
REMARK VINA RESULT:      -7.4      1.827      2.187
REMARK  Name = 
REMARK  5 active torsions:
REMARK  status: ('A' for Active; 'I' for Inactive)
REMARK    1  A    between atoms: C_1  and  C_2
REMARK    2  A    between atoms: C_5  and  C_6
REMARK    3  A    between atoms: C_7  and  S_8
REMARK    4  A    between atoms: S_8  and  N_11
REMARK    5  A    between atoms: N_11  and  C_12
REMARK                            x       y       z     vdW  Elec       q    Type
REMARK                         _______ _______ _______ _____ _____    ______ ____
ROOT
ATOM      1  S   UNL     1       4.395   5.580  17.691  0.00  0.00    +0.000 S 
ATOM      2  O   UNL     1       4.358   6.982  17.349  0.00  0.00    +0.000 OA
ATOM      3  O   UNL     1       3.546   4.599  17.054  0.00  0.00    +0.000 OA
ENDROOT
BRANCH   1  10
ATOM      4  C   UNL     1       5.498   4.406  14.748  0.00  0.00    +0.000 C 
ATOM      5  C   UNL     1       6.337   4.624  15.950  0.00  0.00    +0.000 A 
ATOM      6  N   UNL     1       7.647   4.343  15.912  0.00  0.00    +0.000 NA
ATOM      7  O   UNL     1       8.135   4.636  17.170  0.00  0.00    +0.000 OA
ATOM      8  C   UNL     1       7.124   5.092  17.964  0.00  0.00    +0.000 A 
ATOM      9  C   UNL     1       7.505   5.433  19.345  0.00  0.00    +0.000 C 
ATOM     10  C   UNL     1       5.967   5.107  17.226  0.00  0.00    +0.000 A 
ENDBRANCH   1  10
BRANCH   1  11
ATOM     11  N   UNL     1       4.244   5.484  19.386  0.00  0.00    +0.000 N 
ATOM     12  H   UNL     1       4.107   6.449  19.706  0.00  0.00    +0.000 HD
BRANCH  11  13
ATOM     13  C   UNL     1       3.153   4.653  19.846  0.00  0.00    +0.000 A 
ATOM     14  C   UNL     1       1.917   5.255  20.090  0.00  0.00    +0.000 A 
ATOM     15  C   UNL     1       0.836   4.492  20.538  0.00  0.00    +0.000 A 
ATOM     16  C   UNL     1       0.988   3.123  20.758  0.00  0.00    +0.000 A 
ATOM     17  C   UNL     1       2.227   2.517  20.544  0.00  0.00    +0.000 A 
ATOM     18  C   UNL     1       3.311   3.280  20.099  0.00  0.00    +0.000 A 
ATOM     19 CL   UNL     1       4.821   2.488  19.836  0.00  0.00    +0.000 Cl
ENDBRANCH  11  13
ENDBRANCH   1  11
TORSDOF 3
ENDMDL
MODEL 9
REMARK VINA RESULT:      -7.4      1.371      1.608
REMARK  Name = 
REMARK  5 active torsions:
REMARK  status: ('A' for Active; 'I' for Inactive)
REMARK    1  A    between atoms: C_1  and  C_2
REMARK    2  A    between atoms: C_5  and  C_6
REMARK    3  A    between atoms: C_7  and  S_8
REMARK    4  A    between atoms: S_8  and  N_11
REMARK    5  A    between atoms: N_11  and  C_12
REMARK                            x       y       z     vdW  Elec       q    Type
REMARK                         _______ _______ _______ _____ _____    ______ ____
ROOT
ATOM      1  S   UNL     1       5.446   5.006  19.042  0.00  0.00    +0.000 S 
ATOM      2  O   UNL     1       6.849   5.010  19.385  0.00  0.00    +0.000 OA
ATOM      3  O   UNL     1       4.467   5.798  19.753  0.00  0.00    +0.000 OA
ENDROOT
BRANCH   1  10
ATOM      4  C   UNL     1       7.355   4.274  16.382  0.00  0.00    +0.000 C 
ATOM      5  C   UNL     1       6.277   5.291  16.407  0.00  0.00    +0.000 A 
ATOM      6  N   UNL     1       6.005   6.005  15.306  0.00  0.00    +0.000 NA
ATOM      7  O   UNL     1       4.978   6.862  15.653  0.00  0.00    +0.000 OA
ATOM      8  C   UNL     1       4.633   6.665  16.957  0.00  0.00    +0.000 A 
ATOM      9  C   UNL     1       3.551   7.526  17.464  0.00  0.00    +0.000 C 
ATOM     10  C   UNL     1       5.428   5.671  17.471  0.00  0.00    +0.000 A 
ENDBRANCH   1  10
BRANCH   1  11
ATOM     11  N   UNL     1       4.959   3.375  18.982  0.00  0.00    +0.000 N 
ATOM     12  H   UNL     1       5.646   2.861  19.544  0.00  0.00    +0.000 HD
BRANCH  11  13
ATOM     13  C   UNL     1       3.626   3.127  19.487  0.00  0.00    +0.000 A 
ATOM     14  C   UNL     1       3.474   2.822  20.841  0.00  0.00    +0.000 A 
ATOM     15  C   UNL     1       2.206   2.572  21.371  0.00  0.00    +0.000 A 
ATOM     16  C   UNL     1       1.083   2.612  20.547  0.00  0.00    +0.000 A 
ATOM     17  C   UNL     1       1.226   2.888  19.187  0.00  0.00    +0.000 A 
ATOM     18  C   UNL     1       2.495   3.134  18.653  0.00  0.00    +0.000 A 
ATOM     19 CL   UNL     1       2.625   3.483  16.969  0.00  0.00    +0.000 Cl
ENDBRANCH  11  13
ENDBRANCH   1  11
TORSDOF 3
ENDMDL
