MODEL 1
REMARK VINA RESULT:      -7.4      0.000      0.000
REMARK  Name = 
REMARK  10 active torsions:
REMARK  status: ('A' for Active; 'I' for Inactive)
REMARK    1  A    between atoms: C_1  and  O_2
REMARK    2  A    between atoms: O_2  and  C_3
REMARK    3  A    between atoms: C_3  and  C_4
REMARK    4  A    between atoms: C_4  and  C_5
REMARK    5  A    between atoms: C_5  and  O_6
REMARK    6  A    between atoms: O_6  and  C_7
REMARK    7  A    between atoms: C_11  and  C_12
REMARK    8  A    between atoms: C_12  and  S_13
REMARK    9  A    between atoms: S_13  and  C_15
REMARK   10  A    between atoms: C_24  and  C_25
REMARK                            x       y       z     vdW  Elec       q    Type
REMARK                         _______ _______ _______ _____ _____    ______ ____
ROOT
ATOM      1  C   UNL     1       2.124   3.764  18.018  0.00  0.00    +0.000 A 
ATOM      2  C   UNL     1       1.633   5.063  17.908  0.00  0.00    +0.000 A 
ATOM      3  C   UNL     1       2.520   6.113  17.985  0.00  0.00    +0.000 A 
ATOM      4  N   UNL     1       3.839   5.953  18.169  0.00  0.00    +0.000 NA
ATOM      5  C   UNL     1       4.325   4.688  18.338  0.00  0.00    +0.000 A 
ATOM      6  C   UNL     1       3.483   3.559  18.335  0.00  0.00    +0.000 A 
ATOM      7  C   UNL     1       3.979   2.175  18.643  0.00  0.00    +0.000 C 
ENDROOT
BRANCH   1   8
ATOM      8  O   UNL     1       1.325   2.652  17.796  0.00  0.00    +0.000 OA
BRANCH   8   9
ATOM      9  C   UNL     1       0.700   2.155  18.994  0.00  0.00    +0.000 C 
BRANCH   9  10
ATOM     10  C   UNL     1       0.788   3.132  20.166  0.00  0.00    +0.000 C 
BRANCH  10  11
ATOM     11  C   UNL     1       1.455   2.454  21.366  0.00  0.00    +0.000 C 
BRANCH  11  13
ATOM     12  C   UNL     1       2.258   4.687  21.450  0.00  0.00    +0.000 C 
ATOM     13  O   UNL     1       2.160   3.441  22.125  0.00  0.00    +0.000 OA
ENDBRANCH  11  13
ENDBRANCH  10  11
ENDBRANCH   9  10
ENDBRANCH   8   9
ENDBRANCH   1   8
BRANCH   5  14
ATOM     14  C   UNL     1       5.828   4.631  18.469  0.00  0.00    +0.000 C 
BRANCH  14  15
ATOM     15  S   UNL     1       6.618   6.057  17.692  0.00  0.00    +0.000 S 
ATOM     16  O   UNL     1       8.153   6.118  18.027  0.00  0.00    +0.000 OA
BRANCH  15  17
ATOM     17  C   UNL     1       6.514   5.594  16.019  0.00  0.00    +0.000 A 
ATOM     18  N   UNL     1       7.480   5.681  15.128  0.00  0.00    +0.000 NA
ATOM     19  C   UNL     1       7.036   4.954  14.047  0.00  0.00    +0.000 A 
ATOM     20  C   UNL     1       7.698   4.626  12.852  0.00  0.00    +0.000 A 
ATOM     21  C   UNL     1       7.055   3.782  11.935  0.00  0.00    +0.000 A 
ATOM     22  C   UNL     1       5.769   3.299  12.187  0.00  0.00    +0.000 A 
ATOM     23  C   UNL     1       5.076   3.647  13.353  0.00  0.00    +0.000 A 
ATOM     24  C   UNL     1       5.751   4.469  14.264  0.00  0.00    +0.000 A 
ATOM     25  N   UNL     1       5.415   4.960  15.499  0.00  0.00    +0.000 N 
ATOM     26  H   UNL     1       4.555   4.799  16.004  0.00  0.00    +0.000 HD
ENDBRANCH  15  17
ENDBRANCH  14  15
ENDBRANCH   5  14
TORSDOF 8
ENDMDL
MODEL 2
REMARK VINA RESULT:      -7.3      3.249      4.412
REMARK  Name = 
REMARK  10 active torsions:
REMARK  status: ('A' for Active; 'I' for Inactive)
REMARK    1  A    between atoms: C_1  and  O_2
REMARK    2  A    between atoms: O_2  and  C_3
REMARK    3  A    between atoms: C_3  and  C_4
REMARK    4  A    between atoms: C_4  and  C_5
REMARK    5  A    between atoms: C_5  and  O_6
REMARK    6  A    between atoms: O_6  and  C_7
REMARK    7  A    between atoms: C_11  and  C_12
REMARK    8  A    between atoms: C_12  and  S_13
REMARK    9  A    between atoms: S_13  and  C_15
REMARK   10  A    between atoms: C_24  and  C_25
REMARK                            x       y       z     vdW  Elec       q    Type
REMARK                         _______ _______ _______ _____ _____    ______ ____
ROOT
ATOM      1  C   UNL     1       1.979   6.960  20.168  0.00  0.00    +0.000 A 
ATOM      2  C   UNL     1       1.550   5.911  20.977  0.00  0.00    +0.000 A 
ATOM      3  C   UNL     1       1.856   4.621  20.604  0.00  0.00    +0.000 A 
ATOM      4  N   UNL     1       2.543   4.318  19.493  0.00  0.00    +0.000 NA
ATOM      5  C   UNL     1       2.918   5.334  18.661  0.00  0.00    +0.000 A 
ATOM      6  C   UNL     1       2.595   6.678  18.931  0.00  0.00    +0.000 A 
ATOM      7  C   UNL     1       2.887   7.794  17.968  0.00  0.00    +0.000 C 
ENDROOT
BRANCH   1   8
ATOM      8  O   UNL     1       1.849   8.288  20.551  0.00  0.00    +0.000 OA
BRANCH   8   9
ATOM      9  C   UNL     1       0.602   8.567  21.214  0.00  0.00    +0.000 C 
BRANCH   9  10
ATOM     10  C   UNL     1      -0.171   9.721  20.578  0.00  0.00    +0.000 C 
BRANCH  10  11
ATOM     11  C   UNL     1       0.539  11.048  20.861  0.00  0.00    +0.000 C 
BRANCH  11  13
ATOM     12  C   UNL     1      -0.432  11.380  18.719  0.00  0.00    +0.000 C 
ATOM     13  O   UNL     1       0.186  11.991  19.844  0.00  0.00    +0.000 OA
ENDBRANCH  11  13
ENDBRANCH  10  11
ENDBRANCH   9  10
ENDBRANCH   8   9
ENDBRANCH   1   8
BRANCH   5  14
ATOM     14  C   UNL     1       3.742   4.876  17.480  0.00  0.00    +0.000 C 
BRANCH  14  15
ATOM     15  S   UNL     1       5.498   5.221  17.722  0.00  0.00    +0.000 S 
ATOM     16  O   UNL     1       6.143   4.227  18.755  0.00  0.00    +0.000 OA
BRANCH  15  17
ATOM     17  C   UNL     1       6.120   4.758  16.165  0.00  0.00    +0.000 A 
ATOM     18  N   UNL     1       5.629   3.822  15.379  0.00  0.00    +0.000 NA
ATOM     19  C   UNL     1       6.258   4.005  14.169  0.00  0.00    +0.000 A 
ATOM     20  C   UNL     1       6.050   3.354  12.941  0.00  0.00    +0.000 A 
ATOM     21  C   UNL     1       6.763   3.794  11.816  0.00  0.00    +0.000 A 
ATOM     22  C   UNL     1       7.686   4.837  11.917  0.00  0.00    +0.000 A 
ATOM     23  C   UNL     1       7.938   5.471  13.139  0.00  0.00    +0.000 A 
ATOM     24  C   UNL     1       7.193   5.032  14.241  0.00  0.00    +0.000 A 
ATOM     25  N   UNL     1       7.137   5.440  15.548  0.00  0.00    +0.000 N 
ATOM     26  H   UNL     1       7.666   6.189  15.975  0.00  0.00    +0.000 HD
ENDBRANCH  15  17
ENDBRANCH  14  15
ENDBRANCH   5  14
TORSDOF 8
ENDMDL
MODEL 3
REMARK VINA RESULT:      -7.3      2.863      3.687
REMARK  Name = 
REMARK  10 active torsions:
REMARK  status: ('A' for Active; 'I' for Inactive)
REMARK    1  A    between atoms: C_1  and  O_2
REMARK    2  A    between atoms: O_2  and  C_3
REMARK    3  A    between atoms: C_3  and  C_4
REMARK    4  A    between atoms: C_4  and  C_5
REMARK    5  A    between atoms: C_5  and  O_6
REMARK    6  A    between atoms: O_6  and  C_7
REMARK    7  A    between atoms: C_11  and  C_12
REMARK    8  A    between atoms: C_12  and  S_13
REMARK    9  A    between atoms: S_13  and  C_15
REMARK   10  A    between atoms: C_24  and  C_25
REMARK                            x       y       z     vdW  Elec       q    Type
REMARK                         _______ _______ _______ _____ _____    ______ ____
ROOT
ATOM      1  C   UNL     1       2.358   5.972  19.941  0.00  0.00    +0.000 A 
ATOM      2  C   UNL     1       1.915   5.081  20.915  0.00  0.00    +0.000 A 
ATOM      3  C   UNL     1       2.475   3.824  20.964  0.00  0.00    +0.000 A 
ATOM      4  N   UNL     1       3.425   3.405  20.114  0.00  0.00    +0.000 NA
ATOM      5  C   UNL     1       3.825   4.249  19.117  0.00  0.00    +0.000 A 
ATOM      6  C   UNL     1       3.263   5.531  18.954  0.00  0.00    +0.000 A 
ATOM      7  C   UNL     1       3.598   6.423  17.792  0.00  0.00    +0.000 C 
ENDROOT
BRANCH   1   8
ATOM      8  O   UNL     1       1.961   7.302  19.922  0.00  0.00    +0.000 OA
BRANCH   8   9
ATOM      9  C   UNL     1       1.240   7.694  21.105  0.00  0.00    +0.000 C 
BRANCH   9  10
ATOM     10  C   UNL     1       1.167   9.210  21.288  0.00  0.00    +0.000 C 
BRANCH  10  11
ATOM     11  C   UNL     1      -0.288   9.645  21.487  0.00  0.00    +0.000 C 
BRANCH  11  13
ATOM     12  C   UNL     1      -0.646  10.329  19.240  0.00  0.00    +0.000 C 
ATOM     13  O   UNL     1      -0.573  10.732  20.601  0.00  0.00    +0.000 OA
ENDBRANCH  11  13
ENDBRANCH  10  11
ENDBRANCH   9  10
ENDBRANCH   8   9
ENDBRANCH   1   8
BRANCH   5  14
ATOM     14  C   UNL     1       4.944   3.694  18.267  0.00  0.00    +0.000 C 
BRANCH  14  15
ATOM     15  S   UNL     1       6.246   4.916  18.003  0.00  0.00    +0.000 S 
ATOM     16  O   UNL     1       7.642   4.386  18.496  0.00  0.00    +0.000 OA
BRANCH  15  17
ATOM     17  C   UNL     1       6.324   4.913  16.265  0.00  0.00    +0.000 A 
ATOM     18  N   UNL     1       7.264   5.469  15.529  0.00  0.00    +0.000 NA
ATOM     19  C   UNL     1       7.063   4.976  14.259  0.00  0.00    +0.000 A 
ATOM     20  C   UNL     1       7.828   5.154  13.095  0.00  0.00    +0.000 A 
ATOM     21  C   UNL     1       7.460   4.459  11.933  0.00  0.00    +0.000 A 
ATOM     22  C   UNL     1       6.337   3.629  11.922  0.00  0.00    +0.000 A 
ATOM     23  C   UNL     1       5.537   3.470  13.061  0.00  0.00    +0.000 A 
ATOM     24  C   UNL     1       5.942   4.153  14.214  0.00  0.00    +0.000 A 
ATOM     25  N   UNL     1       5.448   4.195  15.491  0.00  0.00    +0.000 N 
ATOM     26  H   UNL     1       4.642   3.700  15.849  0.00  0.00    +0.000 HD
ENDBRANCH  15  17
ENDBRANCH  14  15
ENDBRANCH   5  14
TORSDOF 8
ENDMDL
MODEL 4
REMARK VINA RESULT:      -7.2      3.361      4.084
REMARK  Name = 
REMARK  10 active torsions:
REMARK  status: ('A' for Active; 'I' for Inactive)
REMARK    1  A    between atoms: C_1  and  O_2
REMARK    2  A    between atoms: O_2  and  C_3
REMARK    3  A    between atoms: C_3  and  C_4
REMARK    4  A    between atoms: C_4  and  C_5
REMARK    5  A    between atoms: C_5  and  O_6
REMARK    6  A    between atoms: O_6  and  C_7
REMARK    7  A    between atoms: C_11  and  C_12
REMARK    8  A    between atoms: C_12  and  S_13
REMARK    9  A    between atoms: S_13  and  C_15
REMARK   10  A    between atoms: C_24  and  C_25
REMARK                            x       y       z     vdW  Elec       q    Type
REMARK                         _______ _______ _______ _____ _____    ______ ____
ROOT
ATOM      1  C   UNL     1       1.816   7.545  19.907  0.00  0.00    +0.000 A 
ATOM      2  C   UNL     1       1.910   8.616  19.021  0.00  0.00    +0.000 A 
ATOM      3  C   UNL     1       2.676   8.468  17.886  0.00  0.00    +0.000 A 
ATOM      4  N   UNL     1       3.347   7.345  17.589  0.00  0.00    +0.000 NA
ATOM      5  C   UNL     1       3.310   6.310  18.479  0.00  0.00    +0.000 A 
ATOM      6  C   UNL     1       2.602   6.394  19.694  0.00  0.00    +0.000 A 
ATOM      7  C   UNL     1       2.652   5.317  20.740  0.00  0.00    +0.000 C 
ENDROOT
BRANCH   1   8
ATOM      8  O   UNL     1       0.945   7.556  20.988  0.00  0.00    +0.000 OA
BRANCH   8   9
ATOM      9  C   UNL     1       1.032   8.760  21.773  0.00  0.00    +0.000 C 
BRANCH   9  10
ATOM     10  C   UNL     1      -0.276   9.549  21.809  0.00  0.00    +0.000 C 
BRANCH  10  11
ATOM     11  C   UNL     1      -0.588   9.984  23.243  0.00  0.00    +0.000 C 
BRANCH  11  13
ATOM     12  C   UNL     1      -0.512  12.144  22.258  0.00  0.00    +0.000 C 
ATOM     13  O   UNL     1      -1.138  11.305  23.219  0.00  0.00    +0.000 OA
ENDBRANCH  11  13
ENDBRANCH  10  11
ENDBRANCH   9  10
ENDBRANCH   8   9
ENDBRANCH   1   8
BRANCH   5  14
ATOM     14  C   UNL     1       4.045   5.079  18.005  0.00  0.00    +0.000 C 
BRANCH  14  15
ATOM     15  S   UNL     1       5.822   5.376  17.871  0.00  0.00    +0.000 S 
ATOM     16  O   UNL     1       6.651   4.219  18.538  0.00  0.00    +0.000 OA
BRANCH  15  17
ATOM     17  C   UNL     1       6.038   5.188  16.156  0.00  0.00    +0.000 A 
ATOM     18  N   UNL     1       7.045   5.651  15.445  0.00  0.00    +0.000 NA
ATOM     19  C   UNL     1       6.935   5.030  14.221  0.00  0.00    +0.000 A 
ATOM     20  C   UNL     1       7.795   5.074  13.111  0.00  0.00    +0.000 A 
ATOM     21  C   UNL     1       7.505   4.265  12.002  0.00  0.00    +0.000 A 
ATOM     22  C   UNL     1       6.368   3.454  11.986  0.00  0.00    +0.000 A 
ATOM     23  C   UNL     1       5.477   3.426  13.066  0.00  0.00    +0.000 A 
ATOM     24  C   UNL     1       5.804   4.222  14.171  0.00  0.00    +0.000 A 
ATOM     25  N   UNL     1       5.210   4.405  15.392  0.00  0.00    +0.000 N 
ATOM     26  H   UNL     1       4.368   3.962  15.732  0.00  0.00    +0.000 HD
ENDBRANCH  15  17
ENDBRANCH  14  15
ENDBRANCH   5  14
TORSDOF 8
ENDMDL
MODEL 5
REMARK VINA RESULT:      -7.2      2.367      3.431
REMARK  Name = 
REMARK  10 active torsions:
REMARK  status: ('A' for Active; 'I' for Inactive)
REMARK    1  A    between atoms: C_1  and  O_2
REMARK    2  A    between atoms: O_2  and  C_3
REMARK    3  A    between atoms: C_3  and  C_4
REMARK    4  A    between atoms: C_4  and  C_5
REMARK    5  A    between atoms: C_5  and  O_6
REMARK    6  A    between atoms: O_6  and  C_7
REMARK    7  A    between atoms: C_11  and  C_12
REMARK    8  A    between atoms: C_12  and  S_13
REMARK    9  A    between atoms: S_13  and  C_15
REMARK   10  A    between atoms: C_24  and  C_25
REMARK                            x       y       z     vdW  Elec       q    Type
REMARK                         _______ _______ _______ _____ _____    ______ ____
ROOT
ATOM      1  C   UNL     1       1.870   4.745  20.386  0.00  0.00    +0.000 A 
ATOM      2  C   UNL     1       1.977   3.819  21.421  0.00  0.00    +0.000 A 
ATOM      3  C   UNL     1       2.928   2.828  21.325  0.00  0.00    +0.000 A 
ATOM      4  N   UNL     1       3.758   2.701  20.278  0.00  0.00    +0.000 NA
ATOM      5  C   UNL     1       3.623   3.566  19.231  0.00  0.00    +0.000 A 
ATOM      6  C   UNL     1       2.637   4.572  19.216  0.00  0.00    +0.000 A 
ATOM      7  C   UNL     1       2.391   5.451  18.023  0.00  0.00    +0.000 C 
ENDROOT
BRANCH   1   8
ATOM      8  O   UNL     1       1.049   5.860  20.476  0.00  0.00    +0.000 OA
BRANCH   8   9
ATOM      9  C   UNL     1       1.761   7.060  20.834  0.00  0.00    +0.000 C 
BRANCH   9  10
ATOM     10  C   UNL     1       0.836   8.234  21.152  0.00  0.00    +0.000 C 
BRANCH  10  11
ATOM     11  C   UNL     1       1.198   9.439  20.279  0.00  0.00    +0.000 C 
BRANCH  11  13
ATOM     12  C   UNL     1       1.856   9.499  17.997  0.00  0.00    +0.000 C 
ATOM     13  O   UNL     1       0.834   9.157  18.924  0.00  0.00    +0.000 OA
ENDBRANCH  11  13
ENDBRANCH  10  11
ENDBRANCH   9  10
ENDBRANCH   8   9
ENDBRANCH   1   8
BRANCH   5  14
ATOM     14  C   UNL     1       4.654   3.366  18.145  0.00  0.00    +0.000 C 
BRANCH  14  15
ATOM     15  S   UNL     1       5.781   4.773  18.033  0.00  0.00    +0.000 S 
ATOM     16  O   UNL     1       7.186   4.435  18.652  0.00  0.00    +0.000 OA
BRANCH  15  17
ATOM     17  C   UNL     1       6.024   4.837  16.312  0.00  0.00    +0.000 A 
ATOM     18  N   UNL     1       7.020   5.432  15.690  0.00  0.00    +0.000 NA
ATOM     19  C   UNL     1       6.948   4.986  14.389  0.00  0.00    +0.000 A 
ATOM     20  C   UNL     1       7.818   5.218  13.310  0.00  0.00    +0.000 A 
ATOM     21  C   UNL     1       7.572   4.564  12.094  0.00  0.00    +0.000 A 
ATOM     22  C   UNL     1       6.467   3.723  11.945  0.00  0.00    +0.000 A 
ATOM     23  C   UNL     1       5.566   3.510  12.996  0.00  0.00    +0.000 A 
ATOM     24  C   UNL     1       5.849   4.153  14.207  0.00  0.00    +0.000 A 
ATOM     25  N   UNL     1       5.235   4.140  15.432  0.00  0.00    +0.000 N 
ATOM     26  H   UNL     1       4.407   3.623  15.692  0.00  0.00    +0.000 HD
ENDBRANCH  15  17
ENDBRANCH  14  15
ENDBRANCH   5  14
TORSDOF 8
ENDMDL
MODEL 6
REMARK VINA RESULT:      -7.2      2.895      7.393
REMARK  Name = 
REMARK  10 active torsions:
REMARK  status: ('A' for Active; 'I' for Inactive)
REMARK    1  A    between atoms: C_1  and  O_2
REMARK    2  A    between atoms: O_2  and  C_3
REMARK    3  A    between atoms: C_3  and  C_4
REMARK    4  A    between atoms: C_4  and  C_5
REMARK    5  A    between atoms: C_5  and  O_6
REMARK    6  A    between atoms: O_6  and  C_7
REMARK    7  A    between atoms: C_11  and  C_12
REMARK    8  A    between atoms: C_12  and  S_13
REMARK    9  A    between atoms: S_13  and  C_15
REMARK   10  A    between atoms: C_24  and  C_25
REMARK                            x       y       z     vdW  Elec       q    Type
REMARK                         _______ _______ _______ _____ _____    ______ ____
ROOT
ATOM      1  C   UNL     1       6.402   3.921  12.831  0.00  0.00    +0.000 A 
ATOM      2  C   UNL     1       7.395   4.710  12.253  0.00  0.00    +0.000 A 
ATOM      3  C   UNL     1       8.173   5.497  13.073  0.00  0.00    +0.000 A 
ATOM      4  N   UNL     1       8.021   5.552  14.404  0.00  0.00    +0.000 NA
ATOM      5  C   UNL     1       7.013   4.829  14.976  0.00  0.00    +0.000 A 
ATOM      6  C   UNL     1       6.130   4.044  14.209  0.00  0.00    +0.000 A 
ATOM      7  C   UNL     1       4.941   3.344  14.802  0.00  0.00    +0.000 C 
ENDROOT
BRANCH   1   8
ATOM      8  O   UNL     1       5.683   2.987  12.099  0.00  0.00    +0.000 OA
BRANCH   8   9
ATOM      9  C   UNL     1       4.615   3.571  11.329  0.00  0.00    +0.000 C 
BRANCH   9  10
ATOM     10  C   UNL     1       3.568   2.551  10.884  0.00  0.00    +0.000 C 
BRANCH  10  11
ATOM     11  C   UNL     1       2.602   3.192   9.884  0.00  0.00    +0.000 C 
BRANCH  11  13
ATOM     12  C   UNL     1       2.204   5.219   8.710  0.00  0.00    +0.000 C 
ATOM     13  O   UNL     1       2.908   4.586   9.770  0.00  0.00    +0.000 OA
ENDBRANCH  11  13
ENDBRANCH  10  11
ENDBRANCH   9  10
ENDBRANCH   8   9
ENDBRANCH   1   8
BRANCH   5  14
ATOM     14  C   UNL     1       6.984   4.919  16.483  0.00  0.00    +0.000 C 
BRANCH  14  15
ATOM     15  S   UNL     1       5.941   6.281  17.048  0.00  0.00    +0.000 S 
ATOM     16  O   UNL     1       5.154   6.936  15.855  0.00  0.00    +0.000 OA
BRANCH  15  17
ATOM     17  C   UNL     1       4.758   5.401  17.971  0.00  0.00    +0.000 A 
ATOM     18  N   UNL     1       4.562   5.492  19.270  0.00  0.00    +0.000 NA
ATOM     19  C   UNL     1       3.369   4.844  19.499  0.00  0.00    +0.000 A 
ATOM     20  C   UNL     1       2.628   4.718  20.686  0.00  0.00    +0.000 A 
ATOM     21  C   UNL     1       1.379   4.082  20.637  0.00  0.00    +0.000 A 
ATOM     22  C   UNL     1       0.892   3.555  19.438  0.00  0.00    +0.000 A 
ATOM     23  C   UNL     1       1.633   3.634  18.253  0.00  0.00    +0.000 A 
ATOM     24  C   UNL     1       2.864   4.298  18.324  0.00  0.00    +0.000 A 
ATOM     25  N   UNL     1       3.811   4.602  17.382  0.00  0.00    +0.000 N 
ATOM     26  H   UNL     1       3.781   4.383  16.395  0.00  0.00    +0.000 HD
ENDBRANCH  15  17
ENDBRANCH  14  15
ENDBRANCH   5  14
TORSDOF 8
ENDMDL
MODEL 7
REMARK VINA RESULT:      -7.2      3.526      7.733
REMARK  Name = 
REMARK  10 active torsions:
REMARK  status: ('A' for Active; 'I' for Inactive)
REMARK    1  A    between atoms: C_1  and  O_2
REMARK    2  A    between atoms: O_2  and  C_3
REMARK    3  A    between atoms: C_3  and  C_4
REMARK    4  A    between atoms: C_4  and  C_5
REMARK    5  A    between atoms: C_5  and  O_6
REMARK    6  A    between atoms: O_6  and  C_7
REMARK    7  A    between atoms: C_11  and  C_12
REMARK    8  A    between atoms: C_12  and  S_13
REMARK    9  A    between atoms: S_13  and  C_15
REMARK   10  A    between atoms: C_24  and  C_25
REMARK                            x       y       z     vdW  Elec       q    Type
REMARK                         _______ _______ _______ _____ _____    ______ ____
ROOT
ATOM      1  C   UNL     1       7.416   6.907  17.688  0.00  0.00    +0.000 A 
ATOM      2  C   UNL     1       8.017   6.501  18.877  0.00  0.00    +0.000 A 
ATOM      3  C   UNL     1       7.649   5.292  19.424  0.00  0.00    +0.000 A 
ATOM      4  N   UNL     1       6.731   4.483  18.875  0.00  0.00    +0.000 NA
ATOM      5  C   UNL     1       6.091   4.897  17.742  0.00  0.00    +0.000 A 
ATOM      6  C   UNL     1       6.360   6.145  17.147  0.00  0.00    +0.000 A 
ATOM      7  C   UNL     1       5.579   6.672  15.977  0.00  0.00    +0.000 C 
ENDROOT
BRANCH   1   8
ATOM      8  O   UNL     1       7.840   8.030  16.993  0.00  0.00    +0.000 OA
BRANCH   8   9
ATOM      9  C   UNL     1       7.660   9.254  17.729  0.00  0.00    +0.000 C 
BRANCH   9  10
ATOM     10  C   UNL     1       8.937   9.734  18.418  0.00  0.00    +0.000 C 
BRANCH  10  11
ATOM     11  C   UNL     1       9.126  11.236  18.187  0.00  0.00    +0.000 C 
BRANCH  11  13
ATOM     12  C   UNL     1      10.863  12.648  17.393  0.00  0.00    +0.000 C 
ATOM     13  O   UNL     1      10.525  11.538  18.215  0.00  0.00    +0.000 OA
ENDBRANCH  11  13
ENDBRANCH  10  11
ENDBRANCH   9  10
ENDBRANCH   8   9
ENDBRANCH   1   8
BRANCH   5  14
ATOM     14  C   UNL     1       5.131   3.874  17.182  0.00  0.00    +0.000 C 
BRANCH  14  15
ATOM     15  S   UNL     1       4.008   3.251  18.453  0.00  0.00    +0.000 S 
ATOM     16  O   UNL     1       4.774   2.922  19.786  0.00  0.00    +0.000 OA
BRANCH  15  17
ATOM     17  C   UNL     1       3.084   4.688  18.779  0.00  0.00    +0.000 A 
ATOM     18  N   UNL     1       2.653   5.083  19.959  0.00  0.00    +0.000 NA
ATOM     19  C   UNL     1       2.230   6.379  19.770  0.00  0.00    +0.000 A 
ATOM     20  C   UNL     1       1.768   7.319  20.707  0.00  0.00    +0.000 A 
ATOM     21  C   UNL     1       1.484   8.622  20.271  0.00  0.00    +0.000 A 
ATOM     22  C   UNL     1       1.627   8.973  18.927  0.00  0.00    +0.000 A 
ATOM     23  C   UNL     1       2.048   8.041  17.971  0.00  0.00    +0.000 A 
ATOM     24  C   UNL     1       2.350   6.755  18.437  0.00  0.00    +0.000 A 
ATOM     25  N   UNL     1       2.824   5.630  17.816  0.00  0.00    +0.000 N 
ATOM     26  H   UNL     1       3.056   5.526  16.837  0.00  0.00    +0.000 HD
ENDBRANCH  15  17
ENDBRANCH  14  15
ENDBRANCH   5  14
TORSDOF 8
ENDMDL
MODEL 8
REMARK VINA RESULT:      -7.2      3.933      5.465
REMARK  Name = 
REMARK  10 active torsions:
REMARK  status: ('A' for Active; 'I' for Inactive)
REMARK    1  A    between atoms: C_1  and  O_2
REMARK    2  A    between atoms: O_2  and  C_3
REMARK    3  A    between atoms: C_3  and  C_4
REMARK    4  A    between atoms: C_4  and  C_5
REMARK    5  A    between atoms: C_5  and  O_6
REMARK    6  A    between atoms: O_6  and  C_7
REMARK    7  A    between atoms: C_11  and  C_12
REMARK    8  A    between atoms: C_12  and  S_13
REMARK    9  A    between atoms: S_13  and  C_15
REMARK   10  A    between atoms: C_24  and  C_25
REMARK                            x       y       z     vdW  Elec       q    Type
REMARK                         _______ _______ _______ _____ _____    ______ ____
ROOT
ATOM      1  C   UNL     1       2.731   4.740  17.773  0.00  0.00    +0.000 A 
ATOM      2  C   UNL     1       3.366   3.648  17.186  0.00  0.00    +0.000 A 
ATOM      3  C   UNL     1       4.679   3.781  16.793  0.00  0.00    +0.000 A 
ATOM      4  N   UNL     1       5.382   4.914  16.938  0.00  0.00    +0.000 NA
ATOM      5  C   UNL     1       4.753   6.010  17.457  0.00  0.00    +0.000 A 
ATOM      6  C   UNL     1       3.395   5.983  17.830  0.00  0.00    +0.000 A 
ATOM      7  C   UNL     1       2.653   7.208  18.284  0.00  0.00    +0.000 C 
ENDROOT
BRANCH   1   8
ATOM      8  O   UNL     1       1.467   4.643  18.336  0.00  0.00    +0.000 OA
BRANCH   8   9
ATOM      9  C   UNL     1       1.185   3.338  18.875  0.00  0.00    +0.000 C 
BRANCH   9  10
ATOM     10  C   UNL     1       0.930   3.352  20.382  0.00  0.00    +0.000 C 
BRANCH  10  11
ATOM     11  C   UNL     1       2.061   2.623  21.113  0.00  0.00    +0.000 C 
BRANCH  11  13
ATOM     12  C   UNL     1       4.271   2.165  20.372  0.00  0.00    +0.000 C 
ATOM     13  O   UNL     1       3.315   3.168  20.689  0.00  0.00    +0.000 OA
ENDBRANCH  11  13
ENDBRANCH  10  11
ENDBRANCH   9  10
ENDBRANCH   8   9
ENDBRANCH   1   8
BRANCH   5  14
ATOM     14  C   UNL     1       5.663   7.202  17.634  0.00  0.00    +0.000 C 
BRANCH  14  15
ATOM     15  S   UNL     1       7.403   6.731  17.532  0.00  0.00    +0.000 S 
ATOM     16  O   UNL     1       7.825   6.408  16.052  0.00  0.00    +0.000 OA
BRANCH  15  17
ATOM     17  C   UNL     1       8.157   8.250  17.919  0.00  0.00    +0.000 A 
ATOM     18  N   UNL     1       8.077   9.359  17.214  0.00  0.00    +0.000 NA
ATOM     19  C   UNL     1       8.581  10.342  18.034  0.00  0.00    +0.000 A 
ATOM     20  C   UNL     1       8.648  11.732  17.836  0.00  0.00    +0.000 A 
ATOM     21  C   UNL     1       9.127  12.539  18.878  0.00  0.00    +0.000 A 
ATOM     22  C   UNL     1       9.559  11.975  20.080  0.00  0.00    +0.000 A 
ATOM     23  C   UNL     1       9.539  10.589  20.282  0.00  0.00    +0.000 A 
ATOM     24  C   UNL     1       9.032   9.808  19.237  0.00  0.00    +0.000 A 
ATOM     25  N   UNL     1       8.819   8.461  19.102  0.00  0.00    +0.000 N 
ATOM     26  H   UNL     1       9.007   7.743  19.788  0.00  0.00    +0.000 HD
ENDBRANCH  15  17
ENDBRANCH  14  15
ENDBRANCH   5  14
TORSDOF 8
ENDMDL
MODEL 9
REMARK VINA RESULT:      -7.2      3.461      5.238
REMARK  Name = 
REMARK  10 active torsions:
REMARK  status: ('A' for Active; 'I' for Inactive)
REMARK    1  A    between atoms: C_1  and  O_2
REMARK    2  A    between atoms: O_2  and  C_3
REMARK    3  A    between atoms: C_3  and  C_4
REMARK    4  A    between atoms: C_4  and  C_5
REMARK    5  A    between atoms: C_5  and  O_6
REMARK    6  A    between atoms: O_6  and  C_7
REMARK    7  A    between atoms: C_11  and  C_12
REMARK    8  A    between atoms: C_12  and  S_13
REMARK    9  A    between atoms: S_13  and  C_15
REMARK   10  A    between atoms: C_24  and  C_25
REMARK                            x       y       z     vdW  Elec       q    Type
REMARK                         _______ _______ _______ _____ _____    ______ ____
ROOT
ATOM      1  C   UNL     1       1.867   6.827  20.230  0.00  0.00    +0.000 A 
ATOM      2  C   UNL     1       2.269   7.741  19.259  0.00  0.00    +0.000 A 
ATOM      3  C   UNL     1       2.587   7.274  18.003  0.00  0.00    +0.000 A 
ATOM      4  N   UNL     1       2.537   5.978  17.664  0.00  0.00    +0.000 NA
ATOM      5  C   UNL     1       2.201   5.065  18.623  0.00  0.00    +0.000 A 
ATOM      6  C   UNL     1       1.920   5.446  19.949  0.00  0.00    +0.000 A 
ATOM      7  C   UNL     1       1.673   4.449  21.046  0.00  0.00    +0.000 C 
ENDROOT
BRANCH   1   8
ATOM      8  O   UNL     1       1.382   7.229  21.466  0.00  0.00    +0.000 OA
BRANCH   8   9
ATOM      9  C   UNL     1       1.011   8.620  21.504  0.00  0.00    +0.000 C 
BRANCH   9  10
ATOM     10  C   UNL     1      -0.350   8.860  22.156  0.00  0.00    +0.000 C 
BRANCH  10  11
ATOM     11  C   UNL     1      -0.466  10.319  22.606  0.00  0.00    +0.000 C 
BRANCH  11  13
ATOM     12  C   UNL     1       0.054  12.339  21.470  0.00  0.00    +0.000 C 
ATOM     13  O   UNL     1       0.541  11.091  21.945  0.00  0.00    +0.000 OA
ENDBRANCH  11  13
ENDBRANCH  10  11
ENDBRANCH   9  10
ENDBRANCH   8   9
ENDBRANCH   1   8
BRANCH   5  14
ATOM     14  C   UNL     1       2.113   3.649  18.105  0.00  0.00    +0.000 C 
BRANCH  14  15
ATOM     15  S   UNL     1       3.459   2.625  18.740  0.00  0.00    +0.000 S 
ATOM     16  O   UNL     1       3.649   1.324  17.878  0.00  0.00    +0.000 OA
BRANCH  15  17
ATOM     17  C   UNL     1       4.821   3.642  18.372  0.00  0.00    +0.000 A 
ATOM     18  N   UNL     1       5.042   4.261  17.231  0.00  0.00    +0.000 NA
ATOM     19  C   UNL     1       6.060   5.148  17.496  0.00  0.00    +0.000 A 
ATOM     20  C   UNL     1       6.631   6.132  16.672  0.00  0.00    +0.000 A 
ATOM     21  C   UNL     1       7.604   6.984  17.215  0.00  0.00    +0.000 A 
ATOM     22  C   UNL     1       8.022   6.841  18.540  0.00  0.00    +0.000 A 
ATOM     23  C   UNL     1       7.494   5.841  19.366  0.00  0.00    +0.000 A 
ATOM     24  C   UNL     1       6.505   5.021  18.808  0.00  0.00    +0.000 A 
ATOM     25  N   UNL     1       5.749   3.999  19.317  0.00  0.00    +0.000 N 
ATOM     26  H   UNL     1       5.776   3.632  20.259  0.00  0.00    +0.000 HD
ENDBRANCH  15  17
ENDBRANCH  14  15
ENDBRANCH   5  14
TORSDOF 8
ENDMDL
