MODEL 1
REMARK VINA RESULT:      -7.3      0.000      0.000
REMARK  Name = 
REMARK  16 active torsions:
REMARK  status: ('A' for Active; 'I' for Inactive)
REMARK    1  A    between atoms: C_1  and  O_2
REMARK    2  A    between atoms: O_2  and  C_3
REMARK    3  A    between atoms: C_6  and  C_7
REMARK    4  A    between atoms: C_7  and  C_8
REMARK    5  A    between atoms: C_8  and  C_9
REMARK    6  A    between atoms: C_8  and  C_14
REMARK    7  A    between atoms: C_9  and  N_10
REMARK    8  A    between atoms: N_10  and  O_11
REMARK    9  A    between atoms: N_16  and  C_17
REMARK   10  A    between atoms: C_17  and  C_18
REMARK   11  A    between atoms: C_17  and  C_23
REMARK   12  A    between atoms: N_20  and  C_21
REMARK   13  A    between atoms: N_20  and  C_22
REMARK   14  A    between atoms: C_23  and  C_24
REMARK   15  A    between atoms: C_23  and  C_25
REMARK   16  A    between atoms: C_23  and  C_26
REMARK                            x       y       z     vdW  Elec       q    Type
REMARK                         _______ _______ _______ _____ _____    ______ ____
ROOT
ATOM      1  C   UNL     1       2.575   4.742  18.241  0.00  0.00    +0.000 C 
ENDROOT
BRANCH   1   2
ATOM      2  C   UNL     1       3.877   4.099  17.688  0.00  0.00    +0.000 C 
ATOM      3  O   UNL     1       4.265   2.994  18.062  0.00  0.00    +0.000 OA
ATOM      4  N   UNL     1       4.629   4.845  16.784  0.00  0.00    +0.000 N 
ATOM      5  H   UNL     1       4.446   5.842  16.717  0.00  0.00    +0.000 HD
BRANCH   4   6
ATOM      6  C   UNL     1       5.936   4.393  16.224  0.00  0.00    +0.000 C 
BRANCH   6   7
ATOM      7  C   UNL     1       7.082   4.859  17.195  0.00  0.00    +0.000 C 
ATOM      8  O   UNL     1       8.081   4.151  17.370  0.00  0.00    +0.000 OA
ATOM      9  N   UNL     1       7.038   6.123  17.768  0.00  0.00    +0.000 N 
ATOM     10  C   UNL     1       6.099   7.184  17.426  0.00  0.00    +0.000 C 
ATOM     11  C   UNL     1       8.077   6.500  18.722  0.00  0.00    +0.000 C 
ENDBRANCH   6   7
BRANCH   6  12
ATOM     12  C   UNL     1       6.179   4.819  14.708  0.00  0.00    +0.000 C 
ATOM     13  C   UNL     1       5.763   3.651  13.779  0.00  0.00    +0.000 C 
ATOM     14  C   UNL     1       5.272   6.015  14.323  0.00  0.00    +0.000 C 
ATOM     15  C   UNL     1       7.632   5.178  14.328  0.00  0.00    +0.000 C 
ENDBRANCH   6  12
ENDBRANCH   4   6
ENDBRANCH   1   2
BRANCH   1  16
ATOM     16  C   UNL     1       2.884   5.686  19.446  0.00  0.00    +0.000 C 
BRANCH  16  20
ATOM     17  C   UNL     1       1.149   9.649  18.981  0.00  0.00    +0.000 A 
ATOM     18  C   UNL     1       1.131   8.997  20.211  0.00  0.00    +0.000 A 
ATOM     19  C   UNL     1       1.753   7.753  20.375  0.00  0.00    +0.000 A 
ATOM     20  C   UNL     1       2.376   7.113  19.296  0.00  0.00    +0.000 A 
ATOM     21  C   UNL     1       2.448   7.805  18.077  0.00  0.00    +0.000 A 
ATOM     22  C   UNL     1       1.836   9.063  17.920  0.00  0.00    +0.000 A 
BRANCH  17  24
ATOM     23  C   UNL     1       0.602  11.726  20.021  0.00  0.00    +0.000 C 
ATOM     24  O   UNL     1       0.431  10.813  18.949  0.00  0.00    +0.000 OA
ENDBRANCH  17  24
ENDBRANCH  16  20
ENDBRANCH   1  16
BRANCH   1  25
ATOM     25  C   UNL     1       1.476   3.718  18.588  0.00  0.00    +0.000 C 
BRANCH  25  26
ATOM     26  N   UNL     1       1.944   2.619  19.423  0.00  0.00    +0.000 N 
ATOM     27  C   UNL     1       1.666   2.478  20.764  0.00  0.00    +0.000 C 
ATOM     28  O   UNL     1       1.248   3.344  21.521  0.00  0.00    +0.000 OA
BRANCH  26  29
ATOM     29  O   UNL     1       1.884   1.387  18.740  0.00  0.00    +0.000 OA
ATOM     30  H   UNL     1       0.927   1.322  18.561  0.00  0.00    +0.000 HD
ENDBRANCH  26  29
ENDBRANCH  25  26
ENDBRANCH   1  25
TORSDOF 10
ENDMDL
MODEL 2
REMARK VINA RESULT:      -7.3      0.531      1.051
REMARK  Name = 
REMARK  16 active torsions:
REMARK  status: ('A' for Active; 'I' for Inactive)
REMARK    1  A    between atoms: C_1  and  O_2
REMARK    2  A    between atoms: O_2  and  C_3
REMARK    3  A    between atoms: C_6  and  C_7
REMARK    4  A    between atoms: C_7  and  C_8
REMARK    5  A    between atoms: C_8  and  C_9
REMARK    6  A    between atoms: C_8  and  C_14
REMARK    7  A    between atoms: C_9  and  N_10
REMARK    8  A    between atoms: N_10  and  O_11
REMARK    9  A    between atoms: N_16  and  C_17
REMARK   10  A    between atoms: C_17  and  C_18
REMARK   11  A    between atoms: C_17  and  C_23
REMARK   12  A    between atoms: N_20  and  C_21
REMARK   13  A    between atoms: N_20  and  C_22
REMARK   14  A    between atoms: C_23  and  C_24
REMARK   15  A    between atoms: C_23  and  C_25
REMARK   16  A    between atoms: C_23  and  C_26
REMARK                            x       y       z     vdW  Elec       q    Type
REMARK                         _______ _______ _______ _____ _____    ______ ____
ROOT
ATOM      1  C   UNL     1       2.364   4.824  18.397  0.00  0.00    +0.000 C 
ENDROOT
BRANCH   1   2
ATOM      2  C   UNL     1       3.537   4.195  17.595  0.00  0.00    +0.000 C 
ATOM      3  O   UNL     1       3.481   3.050  17.154  0.00  0.00    +0.000 OA
ATOM      4  N   UNL     1       4.690   4.960  17.436  0.00  0.00    +0.000 N 
ATOM      5  H   UNL     1       4.817   5.767  18.042  0.00  0.00    +0.000 HD
BRANCH   4   6
ATOM      6  C   UNL     1       5.923   4.467  16.756  0.00  0.00    +0.000 C 
BRANCH   6   7
ATOM      7  C   UNL     1       7.171   4.927  17.593  0.00  0.00    +0.000 C 
ATOM      8  O   UNL     1       8.134   4.168  17.751  0.00  0.00    +0.000 OA
ATOM      9  N   UNL     1       7.255   6.234  18.056  0.00  0.00    +0.000 N 
ATOM     10  C   UNL     1       6.361   7.327  17.697  0.00  0.00    +0.000 C 
ATOM     11  C   UNL     1       8.391   6.612  18.893  0.00  0.00    +0.000 C 
ENDBRANCH   6   7
BRANCH   6  12
ATOM     12  C   UNL     1       6.017   4.854  15.213  0.00  0.00    +0.000 C 
ATOM     13  C   UNL     1       5.427   3.700  14.364  0.00  0.00    +0.000 C 
ATOM     14  C   UNL     1       5.146   6.098  14.906  0.00  0.00    +0.000 C 
ATOM     15  C   UNL     1       7.436   5.115  14.663  0.00  0.00    +0.000 C 
ENDBRANCH   6  12
ENDBRANCH   4   6
ENDBRANCH   1   2
BRANCH   1  16
ATOM     16  C   UNL     1       2.883   5.914  19.388  0.00  0.00    +0.000 C 
BRANCH  16  20
ATOM     17  C   UNL     1       1.246   9.931  19.056  0.00  0.00    +0.000 A 
ATOM     18  C   UNL     1       1.802   9.288  17.952  0.00  0.00    +0.000 A 
ATOM     19  C   UNL     1       2.262   7.970  18.045  0.00  0.00    +0.000 A 
ATOM     20  C   UNL     1       2.213   7.275  19.261  0.00  0.00    +0.000 A 
ATOM     21  C   UNL     1       1.592   7.905  20.351  0.00  0.00    +0.000 A 
ATOM     22  C   UNL     1       1.116   9.225  20.250  0.00  0.00    +0.000 A 
BRANCH  17  24
ATOM     23  C   UNL     1       0.862  12.104  19.964  0.00  0.00    +0.000 C 
ATOM     24  O   UNL     1       0.918  11.242  18.839  0.00  0.00    +0.000 OA
ENDBRANCH  17  24
ENDBRANCH  16  20
ENDBRANCH   1  16
BRANCH   1  25
ATOM     25  C   UNL     1       1.473   3.787  19.109  0.00  0.00    +0.000 C 
BRANCH  25  26
ATOM     26  N   UNL     1       2.224   2.737  19.784  0.00  0.00    +0.000 N 
ATOM     27  C   UNL     1       2.365   2.626  21.149  0.00  0.00    +0.000 C 
ATOM     28  O   UNL     1       2.148   3.497  21.981  0.00  0.00    +0.000 OA
BRANCH  26  29
ATOM     29  O   UNL     1       2.025   1.482  19.172  0.00  0.00    +0.000 OA
ATOM     30  H   UNL     1       1.510   1.740  18.385  0.00  0.00    +0.000 HD
ENDBRANCH  26  29
ENDBRANCH  25  26
ENDBRANCH   1  25
TORSDOF 10
ENDMDL
MODEL 3
REMARK VINA RESULT:      -7.2      1.210      1.384
REMARK  Name = 
REMARK  16 active torsions:
REMARK  status: ('A' for Active; 'I' for Inactive)
REMARK    1  A    between atoms: C_1  and  O_2
REMARK    2  A    between atoms: O_2  and  C_3
REMARK    3  A    between atoms: C_6  and  C_7
REMARK    4  A    between atoms: C_7  and  C_8
REMARK    5  A    between atoms: C_8  and  C_9
REMARK    6  A    between atoms: C_8  and  C_14
REMARK    7  A    between atoms: C_9  and  N_10
REMARK    8  A    between atoms: N_10  and  O_11
REMARK    9  A    between atoms: N_16  and  C_17
REMARK   10  A    between atoms: C_17  and  C_18
REMARK   11  A    between atoms: C_17  and  C_23
REMARK   12  A    between atoms: N_20  and  C_21
REMARK   13  A    between atoms: N_20  and  C_22
REMARK   14  A    between atoms: C_23  and  C_24
REMARK   15  A    between atoms: C_23  and  C_25
REMARK   16  A    between atoms: C_23  and  C_26
REMARK                            x       y       z     vdW  Elec       q    Type
REMARK                         _______ _______ _______ _____ _____    ______ ____
ROOT
ATOM      1  C   UNL     1       2.392   5.322  18.727  0.00  0.00    +0.000 C 
ENDROOT
BRANCH   1   2
ATOM      2  C   UNL     1       3.902   5.044  18.493  0.00  0.00    +0.000 C 
ATOM      3  O   UNL     1       4.613   4.547  19.364  0.00  0.00    +0.000 OA
ATOM      4  N   UNL     1       4.445   5.430  17.270  0.00  0.00    +0.000 N 
ATOM      5  H   UNL     1       3.919   6.084  16.697  0.00  0.00    +0.000 HD
BRANCH   4   6
ATOM      6  C   UNL     1       5.891   5.296  16.928  0.00  0.00    +0.000 C 
BRANCH   6   7
ATOM      7  C   UNL     1       6.604   6.664  17.232  0.00  0.00    +0.000 C 
ATOM      8  O   UNL     1       6.221   7.705  16.685  0.00  0.00    +0.000 OA
ATOM      9  N   UNL     1       7.587   6.734  18.210  0.00  0.00    +0.000 N 
ATOM     10  C   UNL     1       7.934   5.676  19.150  0.00  0.00    +0.000 C 
ATOM     11  C   UNL     1       8.282   8.001  18.419  0.00  0.00    +0.000 C 
ENDBRANCH   6   7
BRANCH   6  12
ATOM     12  C   UNL     1       6.165   4.752  15.455  0.00  0.00    +0.000 C 
ATOM     13  C   UNL     1       5.864   3.233  15.410  0.00  0.00    +0.000 C 
ATOM     14  C   UNL     1       5.197   5.410  14.439  0.00  0.00    +0.000 C 
ATOM     15  C   UNL     1       7.606   4.924  14.925  0.00  0.00    +0.000 C 
ENDBRANCH   6  12
ENDBRANCH   4   6
ENDBRANCH   1   2
BRANCH   1  16
ATOM     16  C   UNL     1       2.163   6.084  20.071  0.00  0.00    +0.000 C 
BRANCH  16  20
ATOM     17  C   UNL     1       0.903  10.224  19.625  0.00  0.00    +0.000 A 
ATOM     18  C   UNL     1       0.810   9.573  20.852  0.00  0.00    +0.000 A 
ATOM     19  C   UNL     1       1.282   8.265  21.010  0.00  0.00    +0.000 A 
ATOM     20  C   UNL     1       1.825   7.561  19.927  0.00  0.00    +0.000 A 
ATOM     21  C   UNL     1       1.976   8.245  18.711  0.00  0.00    +0.000 A 
ATOM     22  C   UNL     1       1.515   9.566  18.560  0.00  0.00    +0.000 A 
BRANCH  17  24
ATOM     23  C   UNL     1       1.183  12.594  19.623  0.00  0.00    +0.000 C 
ATOM     24  O   UNL     1       0.326  11.464  19.598  0.00  0.00    +0.000 OA
ENDBRANCH  17  24
ENDBRANCH  16  20
ENDBRANCH   1  16
BRANCH   1  25
ATOM     25  C   UNL     1       1.507   4.063  18.630  0.00  0.00    +0.000 C 
BRANCH  25  26
ATOM     26  N   UNL     1       2.094   2.886  19.255  0.00  0.00    +0.000 N 
ATOM     27  C   UNL     1       1.769   2.417  20.508  0.00  0.00    +0.000 C 
ATOM     28  O   UNL     1       1.181   3.030  21.390  0.00  0.00    +0.000 OA
BRANCH  26  29
ATOM     29  O   UNL     1       2.265   1.837  18.328  0.00  0.00    +0.000 OA
ATOM     30  H   UNL     1       3.155   1.520  18.570  0.00  0.00    +0.000 HD
ENDBRANCH  26  29
ENDBRANCH  25  26
ENDBRANCH   1  25
TORSDOF 10
ENDMDL
MODEL 4
REMARK VINA RESULT:      -7.2      1.418      1.981
REMARK  Name = 
REMARK  16 active torsions:
REMARK  status: ('A' for Active; 'I' for Inactive)
REMARK    1  A    between atoms: C_1  and  O_2
REMARK    2  A    between atoms: O_2  and  C_3
REMARK    3  A    between atoms: C_6  and  C_7
REMARK    4  A    between atoms: C_7  and  C_8
REMARK    5  A    between atoms: C_8  and  C_9
REMARK    6  A    between atoms: C_8  and  C_14
REMARK    7  A    between atoms: C_9  and  N_10
REMARK    8  A    between atoms: N_10  and  O_11
REMARK    9  A    between atoms: N_16  and  C_17
REMARK   10  A    between atoms: C_17  and  C_18
REMARK   11  A    between atoms: C_17  and  C_23
REMARK   12  A    between atoms: N_20  and  C_21
REMARK   13  A    between atoms: N_20  and  C_22
REMARK   14  A    between atoms: C_23  and  C_24
REMARK   15  A    between atoms: C_23  and  C_25
REMARK   16  A    between atoms: C_23  and  C_26
REMARK                            x       y       z     vdW  Elec       q    Type
REMARK                         _______ _______ _______ _____ _____    ______ ____
ROOT
ATOM      1  C   UNL     1       2.610   5.121  19.177  0.00  0.00    +0.000 C 
ENDROOT
BRANCH   1   2
ATOM      2  C   UNL     1       4.109   4.956  18.804  0.00  0.00    +0.000 C 
ATOM      3  O   UNL     1       4.948   4.600  19.628  0.00  0.00    +0.000 OA
ATOM      4  N   UNL     1       4.487   5.282  17.503  0.00  0.00    +0.000 N 
ATOM      5  H   UNL     1       3.846   5.837  16.943  0.00  0.00    +0.000 HD
BRANCH   4   6
ATOM      6  C   UNL     1       5.898   5.247  17.018  0.00  0.00    +0.000 C 
BRANCH   6   7
ATOM      7  C   UNL     1       6.550   6.654  17.278  0.00  0.00    +0.000 C 
ATOM      8  O   UNL     1       6.072   7.670  16.761  0.00  0.00    +0.000 OA
ATOM      9  N   UNL     1       7.591   6.781  18.187  0.00  0.00    +0.000 N 
ATOM     10  C   UNL     1       8.061   5.745  19.099  0.00  0.00    +0.000 C 
ATOM     11  C   UNL     1       8.225   8.087  18.353  0.00  0.00    +0.000 C 
ENDBRANCH   6   7
BRANCH   6  12
ATOM     12  C   UNL     1       6.059   4.741  15.515  0.00  0.00    +0.000 C 
ATOM     13  C   UNL     1       7.533   4.918  15.075  0.00  0.00    +0.000 C 
ATOM     14  C   UNL     1       5.762   3.224  15.414  0.00  0.00    +0.000 C 
ATOM     15  C   UNL     1       5.200   5.469  14.458  0.00  0.00    +0.000 C 
ENDBRANCH   6  12
ENDBRANCH   4   6
ENDBRANCH   1   2
BRANCH   1  16
ATOM     16  C   UNL     1       2.425   6.194  20.295  0.00  0.00    +0.000 C 
BRANCH  16  20
ATOM     17  C   UNL     1       0.890  10.003  18.856  0.00  0.00    +0.000 A 
ATOM     18  C   UNL     1       0.721   9.615  20.183  0.00  0.00    +0.000 A 
ATOM     19  C   UNL     1       1.277   8.422  20.660  0.00  0.00    +0.000 A 
ATOM     20  C   UNL     1       1.986   7.568  19.806  0.00  0.00    +0.000 A 
ATOM     21  C   UNL     1       2.209   7.995  18.488  0.00  0.00    +0.000 A 
ATOM     22  C   UNL     1       1.661   9.203  18.016  0.00  0.00    +0.000 A 
BRANCH  17  24
ATOM     23  C   UNL     1      -1.037  11.385  19.124  0.00  0.00    +0.000 C 
ATOM     24  O   UNL     1       0.220  11.145  18.512  0.00  0.00    +0.000 OA
ENDBRANCH  17  24
ENDBRANCH  16  20
ENDBRANCH   1  16
BRANCH   1  25
ATOM     25  C   UNL     1       1.913   3.794  19.541  0.00  0.00    +0.000 C 
BRANCH  25  26
ATOM     26  N   UNL     1       1.563   2.981  18.384  0.00  0.00    +0.000 N 
ATOM     27  C   UNL     1       2.409   2.087  17.768  0.00  0.00    +0.000 C 
ATOM     28  O   UNL     1       3.626   2.028  17.886  0.00  0.00    +0.000 OA
BRANCH  26  29
ATOM     29  O   UNL     1       0.248   2.481  18.481  0.00  0.00    +0.000 OA
ATOM     30  H   UNL     1       0.343   1.622  18.027  0.00  0.00    +0.000 HD
ENDBRANCH  26  29
ENDBRANCH  25  26
ENDBRANCH   1  25
TORSDOF 10
ENDMDL
MODEL 5
REMARK VINA RESULT:      -7.1      1.406      1.993
REMARK  Name = 
REMARK  16 active torsions:
REMARK  status: ('A' for Active; 'I' for Inactive)
REMARK    1  A    between atoms: C_1  and  O_2
REMARK    2  A    between atoms: O_2  and  C_3
REMARK    3  A    between atoms: C_6  and  C_7
REMARK    4  A    between atoms: C_7  and  C_8
REMARK    5  A    between atoms: C_8  and  C_9
REMARK    6  A    between atoms: C_8  and  C_14
REMARK    7  A    between atoms: C_9  and  N_10
REMARK    8  A    between atoms: N_10  and  O_11
REMARK    9  A    between atoms: N_16  and  C_17
REMARK   10  A    between atoms: C_17  and  C_18
REMARK   11  A    between atoms: C_17  and  C_23
REMARK   12  A    between atoms: N_20  and  C_21
REMARK   13  A    between atoms: N_20  and  C_22
REMARK   14  A    between atoms: C_23  and  C_24
REMARK   15  A    between atoms: C_23  and  C_25
REMARK   16  A    between atoms: C_23  and  C_26
REMARK                            x       y       z     vdW  Elec       q    Type
REMARK                         _______ _______ _______ _____ _____    ______ ____
ROOT
ATOM      1  C   UNL     1       2.742   4.966  19.180  0.00  0.00    +0.000 C 
ENDROOT
BRANCH   1   2
ATOM      2  C   UNL     1       4.217   4.748  18.745  0.00  0.00    +0.000 C 
ATOM      3  O   UNL     1       5.008   4.104  19.430  0.00  0.00    +0.000 OA
ATOM      4  N   UNL     1       4.635   5.359  17.565  0.00  0.00    +0.000 N 
ATOM      5  H   UNL     1       4.060   6.104  17.180  0.00  0.00    +0.000 HD
BRANCH   4   6
ATOM      6  C   UNL     1       6.037   5.303  17.056  0.00  0.00    +0.000 C 
BRANCH   6   7
ATOM      7  C   UNL     1       6.719   6.695  17.320  0.00  0.00    +0.000 C 
ATOM      8  O   UNL     1       6.323   7.708  16.733  0.00  0.00    +0.000 OA
ATOM      9  N   UNL     1       7.688   6.819  18.307  0.00  0.00    +0.000 N 
ATOM     10  C   UNL     1       8.044   5.801  19.288  0.00  0.00    +0.000 C 
ATOM     11  C   UNL     1       8.356   8.106  18.479  0.00  0.00    +0.000 C 
ENDBRANCH   6   7
BRANCH   6  12
ATOM     12  C   UNL     1       6.164   4.812  15.545  0.00  0.00    +0.000 C 
ATOM     13  C   UNL     1       5.785   3.312  15.465  0.00  0.00    +0.000 C 
ATOM     14  C   UNL     1       5.151   5.557  14.640  0.00  0.00    +0.000 C 
ATOM     15  C   UNL     1       7.564   4.939  14.905  0.00  0.00    +0.000 C 
ENDBRANCH   6  12
ENDBRANCH   4   6
ENDBRANCH   1   2
BRANCH   1  16
ATOM     16  C   UNL     1       2.642   6.049  20.300  0.00  0.00    +0.000 C 
BRANCH  16  20
ATOM     17  C   UNL     1       1.164   9.962  19.101  0.00  0.00    +0.000 A 
ATOM     18  C   UNL     1       1.827   9.136  18.196  0.00  0.00    +0.000 A 
ATOM     19  C   UNL     1       2.237   7.849  18.565  0.00  0.00    +0.000 A 
ATOM     20  C   UNL     1       2.028   7.373  19.866  0.00  0.00    +0.000 A 
ATOM     21  C   UNL     1       1.303   8.185  20.752  0.00  0.00    +0.000 A 
ATOM     22  C   UNL     1       0.877   9.471  20.373  0.00  0.00    +0.000 A 
BRANCH  17  24
ATOM     23  C   UNL     1       1.996  12.101  18.446  0.00  0.00    +0.000 C 
ATOM     24  O   UNL     1       0.900  11.218  18.629  0.00  0.00    +0.000 OA
ENDBRANCH  17  24
ENDBRANCH  16  20
ENDBRANCH   1  16
BRANCH   1  25
ATOM     25  C   UNL     1       2.015   3.666  19.581  0.00  0.00    +0.000 C 
BRANCH  25  26
ATOM     26  N   UNL     1       1.631   2.838  18.445  0.00  0.00    +0.000 N 
ATOM     27  C   UNL     1       2.374   1.789  17.951  0.00  0.00    +0.000 C 
ATOM     28  O   UNL     1       3.555   1.559  18.173  0.00  0.00    +0.000 OA
BRANCH  26  29
ATOM     29  O   UNL     1       0.252   2.545  18.461  0.00  0.00    +0.000 OA
ATOM     30  H   UNL     1      -0.114   3.358  18.063  0.00  0.00    +0.000 HD
ENDBRANCH  26  29
ENDBRANCH  25  26
ENDBRANCH   1  25
TORSDOF 10
ENDMDL
MODEL 6
REMARK VINA RESULT:      -7.1      1.199      1.822
REMARK  Name = 
REMARK  16 active torsions:
REMARK  status: ('A' for Active; 'I' for Inactive)
REMARK    1  A    between atoms: C_1  and  O_2
REMARK    2  A    between atoms: O_2  and  C_3
REMARK    3  A    between atoms: C_6  and  C_7
REMARK    4  A    between atoms: C_7  and  C_8
REMARK    5  A    between atoms: C_8  and  C_9
REMARK    6  A    between atoms: C_8  and  C_14
REMARK    7  A    between atoms: C_9  and  N_10
REMARK    8  A    between atoms: N_10  and  O_11
REMARK    9  A    between atoms: N_16  and  C_17
REMARK   10  A    between atoms: C_17  and  C_18
REMARK   11  A    between atoms: C_17  and  C_23
REMARK   12  A    between atoms: N_20  and  C_21
REMARK   13  A    between atoms: N_20  and  C_22
REMARK   14  A    between atoms: C_23  and  C_24
REMARK   15  A    between atoms: C_23  and  C_25
REMARK   16  A    between atoms: C_23  and  C_26
REMARK                            x       y       z     vdW  Elec       q    Type
REMARK                         _______ _______ _______ _____ _____    ______ ____
ROOT
ATOM      1  C   UNL     1       2.436   5.164  18.942  0.00  0.00    +0.000 C 
ENDROOT
BRANCH   1   2
ATOM      2  C   UNL     1       3.897   4.808  18.553  0.00  0.00    +0.000 C 
ATOM      3  O   UNL     1       4.550   3.975  19.176  0.00  0.00    +0.000 OA
ATOM      4  N   UNL     1       4.470   5.511  17.496  0.00  0.00    +0.000 N 
ATOM      5  H   UNL     1       4.023   6.373  17.196  0.00  0.00    +0.000 HD
BRANCH   4   6
ATOM      6  C   UNL     1       5.884   5.334  17.055  0.00  0.00    +0.000 C 
BRANCH   6   7
ATOM      7  C   UNL     1       6.660   6.677  17.316  0.00  0.00    +0.000 C 
ATOM      8  O   UNL     1       6.345   7.710  16.713  0.00  0.00    +0.000 OA
ATOM      9  N   UNL     1       7.621   6.742  18.316  0.00  0.00    +0.000 N 
ATOM     10  C   UNL     1       7.890   5.712  19.311  0.00  0.00    +0.000 C 
ATOM     11  C   UNL     1       8.376   7.981  18.486  0.00  0.00    +0.000 C 
ENDBRANCH   6   7
BRANCH   6  12
ATOM     12  C   UNL     1       6.040   4.792  15.564  0.00  0.00    +0.000 C 
ATOM     13  C   UNL     1       7.526   4.895  15.139  0.00  0.00    +0.000 C 
ATOM     14  C   UNL     1       5.677   3.288  15.488  0.00  0.00    +0.000 C 
ATOM     15  C   UNL     1       5.227   5.537  14.483  0.00  0.00    +0.000 C 
ENDBRANCH   6  12
ENDBRANCH   4   6
ENDBRANCH   1   2
BRANCH   1  16
ATOM     16  C   UNL     1       2.403   6.205  20.106  0.00  0.00    +0.000 C 
BRANCH  16  20
ATOM     17  C   UNL     1       1.173  10.246  19.063  0.00  0.00    +0.000 A 
ATOM     18  C   UNL     1       1.760   9.407  18.119  0.00  0.00    +0.000 A 
ATOM     19  C   UNL     1       2.089   8.085  18.438  0.00  0.00    +0.000 A 
ATOM     20  C   UNL     1       1.873   7.581  19.727  0.00  0.00    +0.000 A 
ATOM     21  C   UNL     1       1.222   8.410  20.654  0.00  0.00    +0.000 A 
ATOM     22  C   UNL     1       0.878   9.734  20.325  0.00  0.00    +0.000 A 
BRANCH  17  24
ATOM     23  C   UNL     1      -0.242  12.164  18.959  0.00  0.00    +0.000 C 
ATOM     24  O   UNL     1       0.986  11.532  18.637  0.00  0.00    +0.000 OA
ENDBRANCH  17  24
ENDBRANCH  16  20
ENDBRANCH   1  16
BRANCH   1  25
ATOM     25  C   UNL     1       1.561   3.934  19.256  0.00  0.00    +0.000 C 
BRANCH  25  26
ATOM     26  N   UNL     1       2.297   2.830  19.858  0.00  0.00    +0.000 N 
ATOM     27  C   UNL     1       2.298   2.525  21.200  0.00  0.00    +0.000 C 
ATOM     28  O   UNL     1       1.939   3.252  22.117  0.00  0.00    +0.000 OA
BRANCH  26  29
ATOM     29  O   UNL     1       2.244   1.673  19.054  0.00  0.00    +0.000 OA
ATOM     30  H   UNL     1       1.934   2.049  18.208  0.00  0.00    +0.000 HD
ENDBRANCH  26  29
ENDBRANCH  25  26
ENDBRANCH   1  25
TORSDOF 10
ENDMDL
MODEL 7
REMARK VINA RESULT:      -7.1      0.462      1.286
REMARK  Name = 
REMARK  16 active torsions:
REMARK  status: ('A' for Active; 'I' for Inactive)
REMARK    1  A    between atoms: C_1  and  O_2
REMARK    2  A    between atoms: O_2  and  C_3
REMARK    3  A    between atoms: C_6  and  C_7
REMARK    4  A    between atoms: C_7  and  C_8
REMARK    5  A    between atoms: C_8  and  C_9
REMARK    6  A    between atoms: C_8  and  C_14
REMARK    7  A    between atoms: C_9  and  N_10
REMARK    8  A    between atoms: N_10  and  O_11
REMARK    9  A    between atoms: N_16  and  C_17
REMARK   10  A    between atoms: C_17  and  C_18
REMARK   11  A    between atoms: C_17  and  C_23
REMARK   12  A    between atoms: N_20  and  C_21
REMARK   13  A    between atoms: N_20  and  C_22
REMARK   14  A    between atoms: C_23  and  C_24
REMARK   15  A    between atoms: C_23  and  C_25
REMARK   16  A    between atoms: C_23  and  C_26
REMARK                            x       y       z     vdW  Elec       q    Type
REMARK                         _______ _______ _______ _____ _____    ______ ____
ROOT
ATOM      1  C   UNL     1       2.722   4.789  18.381  0.00  0.00    +0.000 C 
ENDROOT
BRANCH   1   2
ATOM      2  C   UNL     1       4.058   4.164  17.893  0.00  0.00    +0.000 C 
ATOM      3  O   UNL     1       4.588   3.225  18.481  0.00  0.00    +0.000 OA
ATOM      4  N   UNL     1       4.671   4.743  16.785  0.00  0.00    +0.000 N 
ATOM      5  H   UNL     1       4.372   5.673  16.502  0.00  0.00    +0.000 HD
BRANCH   4   6
ATOM      6  C   UNL     1       5.991   4.303  16.245  0.00  0.00    +0.000 C 
BRANCH   6   7
ATOM      7  C   UNL     1       7.123   4.843  17.192  0.00  0.00    +0.000 C 
ATOM      8  O   UNL     1       8.138   4.169  17.404  0.00  0.00    +0.000 OA
ATOM      9  N   UNL     1       7.048   6.133  17.701  0.00  0.00    +0.000 N 
ATOM     10  C   UNL     1       6.085   7.153  17.305  0.00  0.00    +0.000 C 
ATOM     11  C   UNL     1       8.076   6.581  18.636  0.00  0.00    +0.000 C 
ENDBRANCH   6   7
BRANCH   6  12
ATOM     12  C   UNL     1       6.222   4.666  14.710  0.00  0.00    +0.000 C 
ATOM     13  C   UNL     1       5.267   5.818  14.311  0.00  0.00    +0.000 C 
ATOM     14  C   UNL     1       7.658   5.203  14.485  0.00  0.00    +0.000 C 
ATOM     15  C   UNL     1       5.972   3.526  13.698  0.00  0.00    +0.000 C 
ENDBRANCH   6  12
ENDBRANCH   4   6
ENDBRANCH   1   2
BRANCH   1  16
ATOM     16  C   UNL     1       2.952   5.701  19.627  0.00  0.00    +0.000 C 
BRANCH  16  20
ATOM     17  C   UNL     1       1.089   9.633  19.597  0.00  0.00    +0.000 A 
ATOM     18  C   UNL     1       1.658   9.099  18.444  0.00  0.00    +0.000 A 
ATOM     19  C   UNL     1       2.193   7.805  18.439  0.00  0.00    +0.000 A 
ATOM     20  C   UNL     1       2.205   7.028  19.604  0.00  0.00    +0.000 A 
ATOM     21  C   UNL     1       1.571   7.546  20.744  0.00  0.00    +0.000 A 
ATOM     22  C   UNL     1       1.020   8.841  20.741  0.00  0.00    +0.000 A 
BRANCH  17  24
ATOM     23  C   UNL     1      -0.413  11.210  18.621  0.00  0.00    +0.000 C 
ATOM     24  O   UNL     1       0.685  10.934  19.476  0.00  0.00    +0.000 OA
ENDBRANCH  17  24
ENDBRANCH  16  20
ENDBRANCH   1  16
BRANCH   1  25
ATOM     25  C   UNL     1       1.608   3.754  18.632  0.00  0.00    +0.000 C 
BRANCH  25  26
ATOM     26  N   UNL     1       2.037   2.616  19.436  0.00  0.00    +0.000 N 
ATOM     27  C   UNL     1       1.659   2.388  20.739  0.00  0.00    +0.000 C 
ATOM     28  O   UNL     1       1.160   3.198  21.510  0.00  0.00    +0.000 OA
BRANCH  26  29
ATOM     29  O   UNL     1       2.063   1.427  18.679  0.00  0.00    +0.000 OA
ATOM     30  H   UNL     1       2.553   1.722  17.888  0.00  0.00    +0.000 HD
ENDBRANCH  26  29
ENDBRANCH  25  26
ENDBRANCH   1  25
TORSDOF 10
ENDMDL
MODEL 8
REMARK VINA RESULT:      -7.0      0.946      1.045
REMARK  Name = 
REMARK  16 active torsions:
REMARK  status: ('A' for Active; 'I' for Inactive)
REMARK    1  A    between atoms: C_1  and  O_2
REMARK    2  A    between atoms: O_2  and  C_3
REMARK    3  A    between atoms: C_6  and  C_7
REMARK    4  A    between atoms: C_7  and  C_8
REMARK    5  A    between atoms: C_8  and  C_9
REMARK    6  A    between atoms: C_8  and  C_14
REMARK    7  A    between atoms: C_9  and  N_10
REMARK    8  A    between atoms: N_10  and  O_11
REMARK    9  A    between atoms: N_16  and  C_17
REMARK   10  A    between atoms: C_17  and  C_18
REMARK   11  A    between atoms: C_17  and  C_23
REMARK   12  A    between atoms: N_20  and  C_21
REMARK   13  A    between atoms: N_20  and  C_22
REMARK   14  A    between atoms: C_23  and  C_24
REMARK   15  A    between atoms: C_23  and  C_25
REMARK   16  A    between atoms: C_23  and  C_26
REMARK                            x       y       z     vdW  Elec       q    Type
REMARK                         _______ _______ _______ _____ _____    ______ ____
ROOT
ATOM      1  C   UNL     1       2.666   3.885  18.607  0.00  0.00    +0.000 C 
ENDROOT
BRANCH   1   2
ATOM      2  C   UNL     1       3.909   3.492  17.762  0.00  0.00    +0.000 C 
ATOM      3  O   UNL     1       4.130   2.329  17.434  0.00  0.00    +0.000 OA
ATOM      4  N   UNL     1       4.805   4.505  17.429  0.00  0.00    +0.000 N 
ATOM      5  H   UNL     1       4.753   5.380  17.944  0.00  0.00    +0.000 HD
BRANCH   4   6
ATOM      6  C   UNL     1       6.079   4.272  16.687  0.00  0.00    +0.000 C 
BRANCH   6   7
ATOM      7  C   UNL     1       7.268   4.829  17.551  0.00  0.00    +0.000 C 
ATOM      8  O   UNL     1       8.280   4.145  17.739  0.00  0.00    +0.000 OA
ATOM      9  N   UNL     1       7.243   6.141  18.005  0.00  0.00    +0.000 N 
ATOM     10  C   UNL     1       6.279   7.163  17.614  0.00  0.00    +0.000 C 
ATOM     11  C   UNL     1       8.326   6.609  18.866  0.00  0.00    +0.000 C 
ENDBRANCH   6   7
BRANCH   6  12
ATOM     12  C   UNL     1       6.072   4.819  15.190  0.00  0.00    +0.000 C 
ATOM     13  C   UNL     1       5.497   3.727  14.253  0.00  0.00    +0.000 C 
ATOM     14  C   UNL     1       5.124   6.038  15.057  0.00  0.00    +0.000 C 
ATOM     15  C   UNL     1       7.445   5.213  14.605  0.00  0.00    +0.000 C 
ENDBRANCH   6  12
ENDBRANCH   4   6
ENDBRANCH   1   2
BRANCH   1  16
ATOM     16  C   UNL     1       3.044   4.915  19.717  0.00  0.00    +0.000 C 
BRANCH  16  20
ATOM     17  C   UNL     1       1.508   8.906  18.913  0.00  0.00    +0.000 A 
ATOM     18  C   UNL     1       1.465   8.364  20.196  0.00  0.00    +0.000 A 
ATOM     19  C   UNL     1       2.024   7.110  20.465  0.00  0.00    +0.000 A 
ATOM     20  C   UNL     1       2.608   6.348  19.444  0.00  0.00    +0.000 A 
ATOM     21  C   UNL     1       2.707   6.928  18.170  0.00  0.00    +0.000 A 
ATOM     22  C   UNL     1       2.157   8.196  17.906  0.00  0.00    +0.000 A 
BRANCH  17  24
ATOM     23  C   UNL     1       0.766  10.938  19.922  0.00  0.00    +0.000 C 
ATOM     24  O   UNL     1       0.849  10.097  18.782  0.00  0.00    +0.000 OA
ENDBRANCH  17  24
ENDBRANCH  16  20
ENDBRANCH   1  16
BRANCH   1  25
ATOM     25  C   UNL     1       1.905   2.676  19.189  0.00  0.00    +0.000 C 
BRANCH  25  26
ATOM     26  N   UNL     1       1.177   2.979  20.414  0.00  0.00    +0.000 N 
ATOM     27  C   UNL     1       1.724   2.969  21.677  0.00  0.00    +0.000 C 
ATOM     28  O   UNL     1       2.782   2.452  22.013  0.00  0.00    +0.000 OA
BRANCH  26  29
ATOM     29  O   UNL     1       0.287   4.058  20.234  0.00  0.00    +0.000 OA
ATOM     30  H   UNL     1       0.866   4.702  19.784  0.00  0.00    +0.000 HD
ENDBRANCH  26  29
ENDBRANCH  25  26
ENDBRANCH   1  25
TORSDOF 10
ENDMDL
MODEL 9
REMARK VINA RESULT:      -7.0      1.302      1.736
REMARK  Name = 
REMARK  16 active torsions:
REMARK  status: ('A' for Active; 'I' for Inactive)
REMARK    1  A    between atoms: C_1  and  O_2
REMARK    2  A    between atoms: O_2  and  C_3
REMARK    3  A    between atoms: C_6  and  C_7
REMARK    4  A    between atoms: C_7  and  C_8
REMARK    5  A    between atoms: C_8  and  C_9
REMARK    6  A    between atoms: C_8  and  C_14
REMARK    7  A    between atoms: C_9  and  N_10
REMARK    8  A    between atoms: N_10  and  O_11
REMARK    9  A    between atoms: N_16  and  C_17
REMARK   10  A    between atoms: C_17  and  C_18
REMARK   11  A    between atoms: C_17  and  C_23
REMARK   12  A    between atoms: N_20  and  C_21
REMARK   13  A    between atoms: N_20  and  C_22
REMARK   14  A    between atoms: C_23  and  C_24
REMARK   15  A    between atoms: C_23  and  C_25
REMARK   16  A    between atoms: C_23  and  C_26
REMARK                            x       y       z     vdW  Elec       q    Type
REMARK                         _______ _______ _______ _____ _____    ______ ____
ROOT
ATOM      1  C   UNL     1       3.194   4.573  19.402  0.00  0.00    +0.000 C 
ENDROOT
BRANCH   1   2
ATOM      2  C   UNL     1       4.625   4.469  18.806  0.00  0.00    +0.000 C 
ATOM      3  O   UNL     1       5.503   3.795  19.339  0.00  0.00    +0.000 OA
ATOM      4  N   UNL     1       4.902   5.217  17.664  0.00  0.00    +0.000 N 
ATOM      5  H   UNL     1       4.265   5.971  17.419  0.00  0.00    +0.000 HD
BRANCH   4   6
ATOM      6  C   UNL     1       6.247   5.278  17.020  0.00  0.00    +0.000 C 
BRANCH   6   7
ATOM      7  C   UNL     1       6.870   6.694  17.302  0.00  0.00    +0.000 C 
ATOM      8  O   UNL     1       6.464   7.690  16.693  0.00  0.00    +0.000 OA
ATOM      9  N   UNL     1       7.795   6.856  18.325  0.00  0.00    +0.000 N 
ATOM     10  C   UNL     1       8.146   5.856  19.327  0.00  0.00    +0.000 C 
ATOM     11  C   UNL     1       8.411   8.166  18.516  0.00  0.00    +0.000 C 
ENDBRANCH   6   7
BRANCH   6  12
ATOM     12  C   UNL     1       6.250   4.880  15.477  0.00  0.00    +0.000 C 
ATOM     13  C   UNL     1       5.869   3.385  15.338  0.00  0.00    +0.000 C 
ATOM     14  C   UNL     1       5.165   5.671  14.705  0.00  0.00    +0.000 C 
ATOM     15  C   UNL     1       7.593   5.056  14.734  0.00  0.00    +0.000 C 
ENDBRANCH   6  12
ENDBRANCH   4   6
ENDBRANCH   1   2
BRANCH   1  16
ATOM     16  C   UNL     1       3.077   5.793  20.369  0.00  0.00    +0.000 C 
BRANCH  16  20
ATOM     17  C   UNL     1       1.107   9.242  18.592  0.00  0.00    +0.000 A 
ATOM     18  C   UNL     1       1.021   8.990  19.959  0.00  0.00    +0.000 A 
ATOM     19  C   UNL     1       1.714   7.921  20.539  0.00  0.00    +0.000 A 
ATOM     20  C   UNL     1       2.482   7.052  19.753  0.00  0.00    +0.000 A 
ATOM     21  C   UNL     1       2.618   7.349  18.389  0.00  0.00    +0.000 A 
ATOM     22  C   UNL     1       1.932   8.434  17.811  0.00  0.00    +0.000 A 
BRANCH  17  24
ATOM     23  C   UNL     1       0.329  11.477  18.891  0.00  0.00    +0.000 C 
ATOM     24  O   UNL     1       0.312  10.265  18.155  0.00  0.00    +0.000 OA
ENDBRANCH  17  24
ENDBRANCH  16  20
ENDBRANCH   1  16
BRANCH   1  25
ATOM     25  C   UNL     1       2.703   3.272  20.066  0.00  0.00    +0.000 C 
BRANCH  25  26
ATOM     26  N   UNL     1       1.252   3.163  20.138  0.00  0.00    +0.000 N 
ATOM     27  C   UNL     1       0.456   2.611  19.160  0.00  0.00    +0.000 C 
ATOM     28  O   UNL     1       0.770   2.390  17.998  0.00  0.00    +0.000 OA
BRANCH  26  29
ATOM     29  O   UNL     1       0.823   2.803  21.432  0.00  0.00    +0.000 OA
ATOM     30  H   UNL     1       0.389   1.948  21.252  0.00  0.00    +0.000 HD
ENDBRANCH  26  29
ENDBRANCH  25  26
ENDBRANCH   1  25
TORSDOF 10
ENDMDL
