MODEL 1
REMARK VINA RESULT:      -7.4      0.000      0.000
REMARK  Name = 
REMARK  8 active torsions:
REMARK  status: ('A' for Active; 'I' for Inactive)
REMARK    1  A    between atoms: C_1  and  C_2
REMARK    2  A    between atoms: C_2  and  C_3
REMARK    3  A    between atoms: C_2  and  C_4
REMARK    4  A    between atoms: C_2  and  C_5
REMARK    5  A    between atoms: C_8  and  S_9
REMARK    6  A    between atoms: S_9  and  N_12
REMARK    7  A    between atoms: C_16  and  O_17
REMARK    8  A    between atoms: C_16  and  C_18
REMARK                            x       y       z     vdW  Elec       q    Type
REMARK                         _______ _______ _______ _____ _____    ______ ____
ROOT
ATOM      1  S   UNL     1       6.957   5.339  16.325  0.00  0.00    +0.000 S 
ATOM      2  O   UNL     1       7.052   6.778  16.417  0.00  0.00    +0.000 OA
ATOM      3  O   UNL     1       8.045   4.492  16.775  0.00  0.00    +0.000 OA
ENDROOT
BRANCH   1   4
ATOM      4  N   UNL     1       6.596   4.912  14.689  0.00  0.00    +0.000 NA
ATOM      5  C   UNL     1       7.689   5.225  13.732  0.00  0.00    +0.000 C 
ATOM      6  C   UNL     1       7.287   5.115  12.264  0.00  0.00    +0.000 C 
ATOM      7  C   UNL     1       7.101   3.666  11.824  0.00  0.00    +0.000 C 
ATOM      8  C   UNL     1       5.673   3.122  12.016  0.00  0.00    +0.000 C 
ATOM      9  C   UNL     1       4.993   3.619  13.305  0.00  0.00    +0.000 C 
ATOM     10  C   UNL     1       5.919   3.595  14.522  0.00  0.00    +0.000 C 
BRANCH   8  11
ATOM     11  C   UNL     1       4.807   3.462  10.809  0.00  0.00    +0.000 C 
ATOM     12  C   UNL     1       3.461   2.806  10.577  0.00  0.00    +0.000 C 
ATOM     13  C   UNL     1       3.529   4.267  10.917  0.00  0.00    +0.000 C 
ENDBRANCH   8  11
BRANCH   8  14
ATOM     14  O   UNL     1       5.785   1.697  12.141  0.00  0.00    +0.000 OA
ATOM     15  H   UNL     1       6.615   1.432  11.711  0.00  0.00    +0.000 HD
ENDBRANCH   8  14
ENDBRANCH   1   4
BRANCH   1  19
ATOM     16  C   UNL     1       3.235   4.118  18.764  0.00  0.00    +0.000 A 
ATOM     17  C   UNL     1       4.474   3.473  18.930  0.00  0.00    +0.000 A 
ATOM     18  C   UNL     1       5.594   3.833  18.179  0.00  0.00    +0.000 A 
ATOM     19  C   UNL     1       5.494   4.835  17.215  0.00  0.00    +0.000 A 
ATOM     20  C   UNL     1       4.280   5.494  17.020  0.00  0.00    +0.000 A 
ATOM     21  C   UNL     1       3.160   5.127  17.781  0.00  0.00    +0.000 A 
BRANCH  16  23
ATOM     22  C   UNL     1       2.362   2.847  20.825  0.00  0.00    +0.000 C 
ATOM     23  C   UNL     1       2.012   3.781  19.643  0.00  0.00    +0.000 C 
ATOM     24  C   UNL     1       0.916   3.082  18.812  0.00  0.00    +0.000 C 
ATOM     25  C   UNL     1       1.419   5.075  20.245  0.00  0.00    +0.000 C 
ENDBRANCH  16  23
ENDBRANCH   1  19
TORSDOF 5
ENDMDL
MODEL 2
REMARK VINA RESULT:      -7.2      2.054      7.095
REMARK  Name = 
REMARK  8 active torsions:
REMARK  status: ('A' for Active; 'I' for Inactive)
REMARK    1  A    between atoms: C_1  and  C_2
REMARK    2  A    between atoms: C_2  and  C_3
REMARK    3  A    between atoms: C_2  and  C_4
REMARK    4  A    between atoms: C_2  and  C_5
REMARK    5  A    between atoms: C_8  and  S_9
REMARK    6  A    between atoms: S_9  and  N_12
REMARK    7  A    between atoms: C_16  and  O_17
REMARK    8  A    between atoms: C_16  and  C_18
REMARK                            x       y       z     vdW  Elec       q    Type
REMARK                         _______ _______ _______ _____ _____    ______ ____
ROOT
ATOM      1  S   UNL     1       6.545   5.276  17.801  0.00  0.00    +0.000 S 
ATOM      2  O   UNL     1       7.495   4.472  18.534  0.00  0.00    +0.000 OA
ATOM      3  O   UNL     1       6.663   6.722  17.767  0.00  0.00    +0.000 OA
ENDROOT
BRANCH   1   4
ATOM      4  N   UNL     1       4.953   4.888  18.348  0.00  0.00    +0.000 NA
ATOM      5  C   UNL     1       3.882   5.683  17.690  0.00  0.00    +0.000 C 
ATOM      6  C   UNL     1       2.512   5.555  18.350  0.00  0.00    +0.000 C 
ATOM      7  C   UNL     1       1.875   4.192  18.098  0.00  0.00    +0.000 C 
ATOM      8  C   UNL     1       2.224   3.122  19.150  0.00  0.00    +0.000 C 
ATOM      9  C   UNL     1       3.679   3.201  19.649  0.00  0.00    +0.000 C 
ATOM     10  C   UNL     1       4.690   3.431  18.524  0.00  0.00    +0.000 C 
BRANCH   8  11
ATOM     11  C   UNL     1       1.266   3.205  20.332  0.00  0.00    +0.000 C 
ATOM     12  C   UNL     1       1.499   2.424  21.610  0.00  0.00    +0.000 C 
ATOM     13  C   UNL     1       1.611   3.922  21.619  0.00  0.00    +0.000 C 
ENDBRANCH   8  11
BRANCH   8  14
ATOM     14  O   UNL     1       2.086   1.847  18.507  0.00  0.00    +0.000 OA
ATOM     15  H   UNL     1       1.151   1.743  18.265  0.00  0.00    +0.000 HD
ENDBRANCH   8  14
ENDBRANCH   1   4
BRANCH   1  19
ATOM     16  C   UNL     1       6.409   3.891  13.401  0.00  0.00    +0.000 A 
ATOM     17  C   UNL     1       5.613   3.290  14.392  0.00  0.00    +0.000 A 
ATOM     18  C   UNL     1       5.669   3.699  15.726  0.00  0.00    +0.000 A 
ATOM     19  C   UNL     1       6.550   4.709  16.108  0.00  0.00    +0.000 A 
ATOM     20  C   UNL     1       7.357   5.326  15.153  0.00  0.00    +0.000 A 
ATOM     21  C   UNL     1       7.293   4.910  13.815  0.00  0.00    +0.000 A 
BRANCH  16  23
ATOM     22  C   UNL     1       6.956   2.135  11.600  0.00  0.00    +0.000 C 
ATOM     23  C   UNL     1       6.299   3.500  11.912  0.00  0.00    +0.000 C 
ATOM     24  C   UNL     1       6.980   4.556  11.016  0.00  0.00    +0.000 C 
ATOM     25  C   UNL     1       4.813   3.394  11.500  0.00  0.00    +0.000 C 
ENDBRANCH  16  23
ENDBRANCH   1  19
TORSDOF 5
ENDMDL
MODEL 3
REMARK VINA RESULT:      -7.1      4.209      7.344
REMARK  Name = 
REMARK  8 active torsions:
REMARK  status: ('A' for Active; 'I' for Inactive)
REMARK    1  A    between atoms: C_1  and  C_2
REMARK    2  A    between atoms: C_2  and  C_3
REMARK    3  A    between atoms: C_2  and  C_4
REMARK    4  A    between atoms: C_2  and  C_5
REMARK    5  A    between atoms: C_8  and  S_9
REMARK    6  A    between atoms: S_9  and  N_12
REMARK    7  A    between atoms: C_16  and  O_17
REMARK    8  A    between atoms: C_16  and  C_18
REMARK                            x       y       z     vdW  Elec       q    Type
REMARK                         _______ _______ _______ _____ _____    ______ ____
ROOT
ATOM      1  S   UNL     1       6.961   5.211  17.380  0.00  0.00    +0.000 S 
ATOM      2  O   UNL     1       6.894   5.128  15.940  0.00  0.00    +0.000 OA
ATOM      3  O   UNL     1       7.765   4.273  18.142  0.00  0.00    +0.000 OA
ENDROOT
BRANCH   1   4
ATOM      4  N   UNL     1       5.353   5.165  18.013  0.00  0.00    +0.000 NA
ATOM      5  C   UNL     1       4.562   6.391  17.728  0.00  0.00    +0.000 C 
ATOM      6  C   UNL     1       3.253   6.487  18.507  0.00  0.00    +0.000 C 
ATOM      7  C   UNL     1       2.206   5.501  17.997  0.00  0.00    +0.000 C 
ATOM      8  C   UNL     1       2.245   4.122  18.683  0.00  0.00    +0.000 C 
ATOM      9  C   UNL     1       3.669   3.627  18.990  0.00  0.00    +0.000 C 
ATOM     10  C   UNL     1       4.650   3.862  17.840  0.00  0.00    +0.000 C 
BRANCH   8  11
ATOM     11  C   UNL     1       1.415   4.140  19.961  0.00  0.00    +0.000 C 
ATOM     12  C   UNL     1       1.217   2.897  20.806  0.00  0.00    +0.000 C 
ATOM     13  C   UNL     1       2.031   4.040  21.340  0.00  0.00    +0.000 C 
ENDBRANCH   8  11
BRANCH   8  14
ATOM     14  O   UNL     1       1.680   3.182  17.757  0.00  0.00    +0.000 OA
ATOM     15  H   UNL     1       1.269   3.692  17.040  0.00  0.00    +0.000 HD
ENDBRANCH   8  14
ENDBRANCH   1   4
BRANCH   1  19
ATOM     16  C   UNL     1       8.571   9.411  18.412  0.00  0.00    +0.000 A 
ATOM     17  C   UNL     1       8.869   8.288  19.204  0.00  0.00    +0.000 A 
ATOM     18  C   UNL     1       8.367   7.021  18.900  0.00  0.00    +0.000 A 
ATOM     19  C   UNL     1       7.525   6.851  17.803  0.00  0.00    +0.000 A 
ATOM     20  C   UNL     1       7.204   7.943  16.996  0.00  0.00    +0.000 A 
ATOM     21  C   UNL     1       7.714   9.212  17.308  0.00  0.00    +0.000 A 
BRANCH  16  23
ATOM     22  C   UNL     1      10.622  10.943  18.147  0.00  0.00    +0.000 C 
ATOM     23  C   UNL     1       9.183  10.799  18.695  0.00  0.00    +0.000 C 
ATOM     24  C   UNL     1       9.237  11.075  20.212  0.00  0.00    +0.000 C 
ATOM     25  C   UNL     1       8.330  11.901  18.027  0.00  0.00    +0.000 C 
ENDBRANCH  16  23
ENDBRANCH   1  19
TORSDOF 5
ENDMDL
MODEL 4
REMARK VINA RESULT:      -7.0      2.022      7.143
REMARK  Name = 
REMARK  8 active torsions:
REMARK  status: ('A' for Active; 'I' for Inactive)
REMARK    1  A    between atoms: C_1  and  C_2
REMARK    2  A    between atoms: C_2  and  C_3
REMARK    3  A    between atoms: C_2  and  C_4
REMARK    4  A    between atoms: C_2  and  C_5
REMARK    5  A    between atoms: C_8  and  S_9
REMARK    6  A    between atoms: S_9  and  N_12
REMARK    7  A    between atoms: C_16  and  O_17
REMARK    8  A    between atoms: C_16  and  C_18
REMARK                            x       y       z     vdW  Elec       q    Type
REMARK                         _______ _______ _______ _____ _____    ______ ____
ROOT
ATOM      1  S   UNL     1       6.772   5.321  17.760  0.00  0.00    +0.000 S 
ATOM      2  O   UNL     1       7.671   4.364  18.362  0.00  0.00    +0.000 OA
ATOM      3  O   UNL     1       7.081   6.738  17.767  0.00  0.00    +0.000 OA
ENDROOT
BRANCH   1   4
ATOM      4  N   UNL     1       5.203   5.118  18.455  0.00  0.00    +0.000 NA
ATOM      5  C   UNL     1       4.250   6.208  18.114  0.00  0.00    +0.000 C 
ATOM      6  C   UNL     1       2.963   6.193  18.934  0.00  0.00    +0.000 C 
ATOM      7  C   UNL     1       2.039   5.046  18.535  0.00  0.00    +0.000 C 
ATOM      8  C   UNL     1       2.277   3.738  19.315  0.00  0.00    +0.000 C 
ATOM      9  C   UNL     1       3.762   3.454  19.603  0.00  0.00    +0.000 C 
ATOM     10  C   UNL     1       4.671   3.726  18.402  0.00  0.00    +0.000 C 
BRANCH   8  11
ATOM     11  C   UNL     1       1.488   3.747  20.620  0.00  0.00    +0.000 C 
ATOM     12  C   UNL     1       1.342   2.504  21.475  0.00  0.00    +0.000 C 
ATOM     13  C   UNL     1       2.151   3.665  21.979  0.00  0.00    +0.000 C 
ENDBRANCH   8  11
BRANCH   8  14
ATOM     14  O   UNL     1       1.813   2.667  18.481  0.00  0.00    +0.000 OA
ATOM     15  H   UNL     1       1.130   3.030  17.894  0.00  0.00    +0.000 HD
ENDBRANCH   8  14
ENDBRANCH   1   4
BRANCH   1  19
ATOM     16  C   UNL     1       6.284   3.970  13.374  0.00  0.00    +0.000 A 
ATOM     17  C   UNL     1       7.327   4.825  13.774  0.00  0.00    +0.000 A 
ATOM     18  C   UNL     1       7.462   5.247  15.099  0.00  0.00    +0.000 A 
ATOM     19  C   UNL     1       6.534   4.841  16.057  0.00  0.00    +0.000 A 
ATOM     20  C   UNL     1       5.485   3.996  15.696  0.00  0.00    +0.000 A 
ATOM     21  C   UNL     1       5.358   3.576  14.363  0.00  0.00    +0.000 A 
BRANCH  16  23
ATOM     22  C   UNL     1       6.726   2.002  11.776  0.00  0.00    +0.000 C 
ATOM     23  C   UNL     1       6.171   3.437  11.930  0.00  0.00    +0.000 C 
ATOM     24  C   UNL     1       6.949   4.340  10.950  0.00  0.00    +0.000 C 
ATOM     25  C   UNL     1       4.689   3.402  11.493  0.00  0.00    +0.000 C 
ENDBRANCH  16  23
ENDBRANCH   1  19
TORSDOF 5
ENDMDL
MODEL 5
REMARK VINA RESULT:      -6.9      0.321      1.033
REMARK  Name = 
REMARK  8 active torsions:
REMARK  status: ('A' for Active; 'I' for Inactive)
REMARK    1  A    between atoms: C_1  and  C_2
REMARK    2  A    between atoms: C_2  and  C_3
REMARK    3  A    between atoms: C_2  and  C_4
REMARK    4  A    between atoms: C_2  and  C_5
REMARK    5  A    between atoms: C_8  and  S_9
REMARK    6  A    between atoms: S_9  and  N_12
REMARK    7  A    between atoms: C_16  and  O_17
REMARK    8  A    between atoms: C_16  and  C_18
REMARK                            x       y       z     vdW  Elec       q    Type
REMARK                         _______ _______ _______ _____ _____    ______ ____
ROOT
ATOM      1  S   UNL     1       7.219   5.295  16.429  0.00  0.00    +0.000 S 
ATOM      2  O   UNL     1       7.492   6.709  16.528  0.00  0.00    +0.000 OA
ATOM      3  O   UNL     1       8.209   4.315  16.836  0.00  0.00    +0.000 OA
ENDROOT
BRANCH   1   4
ATOM      4  N   UNL     1       6.757   4.934  14.803  0.00  0.00    +0.000 NA
ATOM      5  C   UNL     1       7.791   5.282  13.793  0.00  0.00    +0.000 C 
ATOM      6  C   UNL     1       7.300   5.232  12.349  0.00  0.00    +0.000 C 
ATOM      7  C   UNL     1       7.080   3.802  11.865  0.00  0.00    +0.000 C 
ATOM      8  C   UNL     1       5.663   3.254  12.122  0.00  0.00    +0.000 C 
ATOM      9  C   UNL     1       5.066   3.700  13.469  0.00  0.00    +0.000 C 
ATOM     10  C   UNL     1       6.065   3.626  14.625  0.00  0.00    +0.000 C 
BRANCH   8  11
ATOM     11  C   UNL     1       4.727   3.644  10.984  0.00  0.00    +0.000 C 
ATOM     12  C   UNL     1       3.818   2.634  10.313  0.00  0.00    +0.000 C 
ATOM     13  C   UNL     1       3.225   3.729  11.152  0.00  0.00    +0.000 C 
ENDBRANCH   8  11
BRANCH   8  14
ATOM     14  O   UNL     1       5.776   1.825  12.183  0.00  0.00    +0.000 OA
ATOM     15  H   UNL     1       4.953   1.484  12.569  0.00  0.00    +0.000 HD
ENDBRANCH   8  14
ENDBRANCH   1   4
BRANCH   1  19
ATOM     16  C   UNL     1       3.320   4.352  18.709  0.00  0.00    +0.000 A 
ATOM     17  C   UNL     1       3.376   5.348  17.718  0.00  0.00    +0.000 A 
ATOM     18  C   UNL     1       4.561   5.644  17.042  0.00  0.00    +0.000 A 
ATOM     19  C   UNL     1       5.734   4.963  17.363  0.00  0.00    +0.000 A 
ATOM     20  C   UNL     1       5.718   3.970  18.343  0.00  0.00    +0.000 A 
ATOM     21  C   UNL     1       4.522   3.679  19.016  0.00  0.00    +0.000 A 
BRANCH  16  23
ATOM     22  C   UNL     1       2.172   2.806  20.418  0.00  0.00    +0.000 C 
ATOM     23  C   UNL     1       1.999   3.964  19.408  0.00  0.00    +0.000 C 
ATOM     24  C   UNL     1       0.943   3.521  18.374  0.00  0.00    +0.000 C 
ATOM     25  C   UNL     1       1.439   5.173  20.192  0.00  0.00    +0.000 C 
ENDBRANCH  16  23
ENDBRANCH   1  19
TORSDOF 5
ENDMDL
MODEL 6
REMARK VINA RESULT:      -6.9      2.090      7.216
REMARK  Name = 
REMARK  8 active torsions:
REMARK  status: ('A' for Active; 'I' for Inactive)
REMARK    1  A    between atoms: C_1  and  C_2
REMARK    2  A    between atoms: C_2  and  C_3
REMARK    3  A    between atoms: C_2  and  C_4
REMARK    4  A    between atoms: C_2  and  C_5
REMARK    5  A    between atoms: C_8  and  S_9
REMARK    6  A    between atoms: S_9  and  N_12
REMARK    7  A    between atoms: C_16  and  O_17
REMARK    8  A    between atoms: C_16  and  C_18
REMARK                            x       y       z     vdW  Elec       q    Type
REMARK                         _______ _______ _______ _____ _____    ______ ____
ROOT
ATOM      1  S   UNL     1       6.509   5.432  17.802  0.00  0.00    +0.000 S 
ATOM      2  O   UNL     1       7.649   4.840  18.461  0.00  0.00    +0.000 OA
ATOM      3  O   UNL     1       6.369   6.872  17.705  0.00  0.00    +0.000 OA
ENDROOT
BRANCH   1   4
ATOM      4  N   UNL     1       5.068   4.808  18.524  0.00  0.00    +0.000 NA
ATOM      5  C   UNL     1       5.302   3.655  19.433  0.00  0.00    +0.000 C 
ATOM      6  C   UNL     1       4.032   2.922  19.857  0.00  0.00    +0.000 C 
ATOM      7  C   UNL     1       3.201   3.735  20.844  0.00  0.00    +0.000 C 
ATOM      8  C   UNL     1       2.166   4.668  20.186  0.00  0.00    +0.000 C 
ATOM      9  C   UNL     1       2.669   5.330  18.891  0.00  0.00    +0.000 C 
ATOM     10  C   UNL     1       4.106   5.844  18.997  0.00  0.00    +0.000 C 
BRANCH   8  11
ATOM     11  C   UNL     1       0.868   3.916  19.914  0.00  0.00    +0.000 C 
ATOM     12  C   UNL     1       0.694   3.033  18.695  0.00  0.00    +0.000 C 
ATOM     13  C   UNL     1       0.745   2.414  20.062  0.00  0.00    +0.000 C 
ENDBRANCH   8  11
BRANCH   8  14
ATOM     14  O   UNL     1       1.918   5.733  21.116  0.00  0.00    +0.000 OA
ATOM     15  H   UNL     1       2.771   6.155  21.309  0.00  0.00    +0.000 HD
ENDBRANCH   8  14
ENDBRANCH   1   4
BRANCH   1  19
ATOM     16  C   UNL     1       6.233   3.873  13.467  0.00  0.00    +0.000 A 
ATOM     17  C   UNL     1       5.272   3.538  14.437  0.00  0.00    +0.000 A 
ATOM     18  C   UNL     1       5.366   3.997  15.753  0.00  0.00    +0.000 A 
ATOM     19  C   UNL     1       6.449   4.784  16.139  0.00  0.00    +0.000 A 
ATOM     20  C   UNL     1       7.424   5.134  15.205  0.00  0.00    +0.000 A 
ATOM     21  C   UNL     1       7.320   4.670  13.885  0.00  0.00    +0.000 A 
BRANCH  16  23
ATOM     22  C   UNL     1       6.593   1.992  11.747  0.00  0.00    +0.000 C 
ATOM     23  C   UNL     1       6.096   3.435  11.993  0.00  0.00    +0.000 C 
ATOM     24  C   UNL     1       6.909   4.366  11.068  0.00  0.00    +0.000 C 
ATOM     25  C   UNL     1       4.614   3.487  11.560  0.00  0.00    +0.000 C 
ENDBRANCH  16  23
ENDBRANCH   1  19
TORSDOF 5
ENDMDL
MODEL 7
REMARK VINA RESULT:      -6.8      4.395      6.806
REMARK  Name = 
REMARK  8 active torsions:
REMARK  status: ('A' for Active; 'I' for Inactive)
REMARK    1  A    between atoms: C_1  and  C_2
REMARK    2  A    between atoms: C_2  and  C_3
REMARK    3  A    between atoms: C_2  and  C_4
REMARK    4  A    between atoms: C_2  and  C_5
REMARK    5  A    between atoms: C_8  and  S_9
REMARK    6  A    between atoms: S_9  and  N_12
REMARK    7  A    between atoms: C_16  and  O_17
REMARK    8  A    between atoms: C_16  and  C_18
REMARK                            x       y       z     vdW  Elec       q    Type
REMARK                         _______ _______ _______ _____ _____    ______ ____
ROOT
ATOM      1  S   UNL     1       2.622   5.527  19.082  0.00  0.00    +0.000 S 
ATOM      2  O   UNL     1       2.563   4.620  20.205  0.00  0.00    +0.000 OA
ATOM      3  O   UNL     1       1.985   5.194  17.822  0.00  0.00    +0.000 OA
ENDROOT
BRANCH   1   4
ATOM      4  N   UNL     1       4.279   5.895  18.756  0.00  0.00    +0.000 NA
ATOM      5  C   UNL     1       5.241   4.996  19.447  0.00  0.00    +0.000 C 
ATOM      6  C   UNL     1       6.691   5.471  19.396  0.00  0.00    +0.000 C 
ATOM      7  C   UNL     1       7.299   5.316  18.005  0.00  0.00    +0.000 C 
ATOM      8  C   UNL     1       7.109   6.539  17.087  0.00  0.00    +0.000 C 
ATOM      9  C   UNL     1       5.737   7.219  17.245  0.00  0.00    +0.000 C 
ATOM     10  C   UNL     1       4.578   6.225  17.333  0.00  0.00    +0.000 C 
BRANCH   8  11
ATOM     11  C   UNL     1       8.221   7.555  17.318  0.00  0.00    +0.000 C 
ATOM     12  C   UNL     1       7.928   9.010  17.621  0.00  0.00    +0.000 C 
ATOM     13  C   UNL     1       8.532   8.135  18.681  0.00  0.00    +0.000 C 
ENDBRANCH   8  11
BRANCH   8  14
ATOM     14  O   UNL     1       7.170   6.058  15.737  0.00  0.00    +0.000 OA
ATOM     15  H   UNL     1       7.573   5.175  15.761  0.00  0.00    +0.000 HD
ENDBRANCH   8  14
ENDBRANCH   1   4
BRANCH   1  19
ATOM     16  C   UNL     1       0.743   9.540  20.368  0.00  0.00    +0.000 A 
ATOM     17  C   UNL     1       1.294   9.357  19.087  0.00  0.00    +0.000 A 
ATOM     18  C   UNL     1       1.878   8.148  18.706  0.00  0.00    +0.000 A 
ATOM     19  C   UNL     1       1.950   7.093  19.615  0.00  0.00    +0.000 A 
ATOM     20  C   UNL     1       1.416   7.239  20.895  0.00  0.00    +0.000 A 
ATOM     21  C   UNL     1       0.830   8.457  21.268  0.00  0.00    +0.000 A 
BRANCH  16  23
ATOM     22  C   UNL     1      -1.133  11.215  19.818  0.00  0.00    +0.000 C 
ATOM     23  C   UNL     1       0.026  10.846  20.772  0.00  0.00    +0.000 C 
ATOM     24  C   UNL     1       1.013  12.033  20.779  0.00  0.00    +0.000 C 
ATOM     25  C   UNL     1      -0.577  10.704  22.188  0.00  0.00    +0.000 C 
ENDBRANCH  16  23
ENDBRANCH   1  19
TORSDOF 5
ENDMDL
MODEL 8
REMARK VINA RESULT:      -6.8      4.007      5.546
REMARK  Name = 
REMARK  8 active torsions:
REMARK  status: ('A' for Active; 'I' for Inactive)
REMARK    1  A    between atoms: C_1  and  C_2
REMARK    2  A    between atoms: C_2  and  C_3
REMARK    3  A    between atoms: C_2  and  C_4
REMARK    4  A    between atoms: C_2  and  C_5
REMARK    5  A    between atoms: C_8  and  S_9
REMARK    6  A    between atoms: S_9  and  N_12
REMARK    7  A    between atoms: C_16  and  O_17
REMARK    8  A    between atoms: C_16  and  C_18
REMARK                            x       y       z     vdW  Elec       q    Type
REMARK                         _______ _______ _______ _____ _____    ______ ____
ROOT
ATOM      1  S   UNL     1       2.746   5.244  19.295  0.00  0.00    +0.000 S 
ATOM      2  O   UNL     1       3.442   4.936  20.523  0.00  0.00    +0.000 OA
ATOM      3  O   UNL     1       1.617   4.445  18.859  0.00  0.00    +0.000 OA
ENDROOT
BRANCH   1   4
ATOM      4  N   UNL     1       3.895   5.285  18.004  0.00  0.00    +0.000 NA
ATOM      5  C   UNL     1       5.160   5.986  18.349  0.00  0.00    +0.000 C 
ATOM      6  C   UNL     1       6.063   6.274  17.153  0.00  0.00    +0.000 C 
ATOM      7  C   UNL     1       6.724   5.009  16.612  0.00  0.00    +0.000 C 
ATOM      8  C   UNL     1       5.909   4.279  15.527  0.00  0.00    +0.000 C 
ATOM      9  C   UNL     1       4.392   4.293  15.784  0.00  0.00    +0.000 C 
ATOM     10  C   UNL     1       4.025   4.011  17.242  0.00  0.00    +0.000 C 
BRANCH   8  11
ATOM     11  C   UNL     1       6.209   4.866  14.153  0.00  0.00    +0.000 C 
ATOM     12  C   UNL     1       7.612   4.896  13.583  0.00  0.00    +0.000 C 
ATOM     13  C   UNL     1       6.574   4.010  12.958  0.00  0.00    +0.000 C 
ENDBRANCH   8  11
BRANCH   8  14
ATOM     14  O   UNL     1       6.313   2.903  15.561  0.00  0.00    +0.000 OA
ATOM     15  H   UNL     1       5.825   2.474  16.282  0.00  0.00    +0.000 HD
ENDBRANCH   8  14
ENDBRANCH   1   4
BRANCH   1  19
ATOM     16  C   UNL     1       1.152   9.571  19.485  0.00  0.00    +0.000 A 
ATOM     17  C   UNL     1       1.702   9.035  18.307  0.00  0.00    +0.000 A 
ATOM     18  C   UNL     1       2.200   7.731  18.256  0.00  0.00    +0.000 A 
ATOM     19  C   UNL     1       2.185   6.936  19.401  0.00  0.00    +0.000 A 
ATOM     20  C   UNL     1       1.650   7.434  20.589  0.00  0.00    +0.000 A 
ATOM     21  C   UNL     1       1.151   8.745  20.630  0.00  0.00    +0.000 A 
BRANCH  16  23
ATOM     22  C   UNL     1       1.382  12.038  18.789  0.00  0.00    +0.000 C 
ATOM     23  C   UNL     1       0.530  10.982  19.531  0.00  0.00    +0.000 C 
ATOM     24  C   UNL     1       0.366  11.462  20.988  0.00  0.00    +0.000 C 
ATOM     25  C   UNL     1      -0.863  10.969  18.861  0.00  0.00    +0.000 C 
ENDBRANCH  16  23
ENDBRANCH   1  19
TORSDOF 5
ENDMDL
MODEL 9
REMARK VINA RESULT:      -6.6      4.046      5.474
REMARK  Name = 
REMARK  8 active torsions:
REMARK  status: ('A' for Active; 'I' for Inactive)
REMARK    1  A    between atoms: C_1  and  C_2
REMARK    2  A    between atoms: C_2  and  C_3
REMARK    3  A    between atoms: C_2  and  C_4
REMARK    4  A    between atoms: C_2  and  C_5
REMARK    5  A    between atoms: C_8  and  S_9
REMARK    6  A    between atoms: S_9  and  N_12
REMARK    7  A    between atoms: C_16  and  O_17
REMARK    8  A    between atoms: C_16  and  C_18
REMARK                            x       y       z     vdW  Elec       q    Type
REMARK                         _______ _______ _______ _____ _____    ______ ____
ROOT
ATOM      1  S   UNL     1       2.779   5.329  19.247  0.00  0.00    +0.000 S 
ATOM      2  O   UNL     1       3.505   5.138  20.481  0.00  0.00    +0.000 OA
ATOM      3  O   UNL     1       1.688   4.445  18.882  0.00  0.00    +0.000 OA
ENDROOT
BRANCH   1   4
ATOM      4  N   UNL     1       3.907   5.344  17.938  0.00  0.00    +0.000 NA
ATOM      5  C   UNL     1       5.153   6.101  18.228  0.00  0.00    +0.000 C 
ATOM      6  C   UNL     1       6.029   6.360  17.005  0.00  0.00    +0.000 C 
ATOM      7  C   UNL     1       6.724   5.092  16.516  0.00  0.00    +0.000 C 
ATOM      8  C   UNL     1       5.918   4.286  15.480  0.00  0.00    +0.000 C 
ATOM      9  C   UNL     1       4.404   4.263  15.760  0.00  0.00    +0.000 C 
ATOM     10  C   UNL     1       4.067   4.039  17.235  0.00  0.00    +0.000 C 
BRANCH   8  11
ATOM     11  C   UNL     1       6.178   4.814  14.074  0.00  0.00    +0.000 C 
ATOM     12  C   UNL     1       7.564   4.817  13.463  0.00  0.00    +0.000 C 
ATOM     13  C   UNL     1       6.506   3.909  12.906  0.00  0.00    +0.000 C 
ENDBRANCH   8  11
BRANCH   8  14
ATOM     14  O   UNL     1       6.367   2.926  15.573  0.00  0.00    +0.000 OA
ATOM     15  H   UNL     1       5.582   2.356  15.523  0.00  0.00    +0.000 HD
ENDBRANCH   8  14
ENDBRANCH   1   4
BRANCH   1  19
ATOM     16  C   UNL     1       1.243   9.680  19.343  0.00  0.00    +0.000 A 
ATOM     17  C   UNL     1       1.186   8.849  20.476  0.00  0.00    +0.000 A 
ATOM     18  C   UNL     1       1.635   7.527  20.440  0.00  0.00    +0.000 A 
ATOM     19  C   UNL     1       2.130   6.993  19.252  0.00  0.00    +0.000 A 
ATOM     20  C   UNL     1       2.199   7.786  18.107  0.00  0.00    +0.000 A 
ATOM     21  C   UNL     1       1.747   9.113  18.153  0.00  0.00    +0.000 A 
BRANCH  16  23
ATOM     22  C   UNL     1       0.769  11.724  20.833  0.00  0.00    +0.000 C 
ATOM     23  C   UNL     1       0.821  11.163  19.393  0.00  0.00    +0.000 C 
ATOM     24  C   UNL     1      -0.578  11.356  18.771  0.00  0.00    +0.000 C 
ATOM     25  C   UNL     1       1.830  12.028  18.604  0.00  0.00    +0.000 C 
ENDBRANCH  16  23
ENDBRANCH   1  19
TORSDOF 5
ENDMDL
