MODEL 1
REMARK VINA RESULT:      -7.8      0.000      0.000
REMARK  Name = 
REMARK  12 active torsions:
REMARK  status: ('A' for Active; 'I' for Inactive)
REMARK    1  A    between atoms: CD1_1  and  CG_2
REMARK    2  A    between atoms: CG_2  and  CD2_3
REMARK    3  A    between atoms: CG_2  and  CB_4
REMARK    4  A    between atoms: CB_4  and  CA_5
REMARK    5  A    between atoms: CA_5  and  C_6
REMARK    6  A    between atoms: CA_5  and  N_8
REMARK    7  A    between atoms: C_6  and  O_7
REMARK    8  A    between atoms: N_8  and  C_9
REMARK    9  A    between atoms: C_11  and  S_12
REMARK   10  A    between atoms: S_12  and  C_13
REMARK   11  A    between atoms: C_13  and  C_14
REMARK   12  A    between atoms: C_13  and  C_15
REMARK                            x       y       z     vdW  Elec       q    Type
REMARK                         _______ _______ _______ _____ _____    ______ ____
ROOT
ATOM      1  C   UNK A   0       0.725   9.592  18.508  0.00  0.00    +0.000 A 
ATOM      2  N   UNK A   0       1.589   8.759  17.878  0.00  0.00    +0.000 NA
ATOM      3  C   UNK A   0       2.305   7.873  18.599  0.00  0.00    +0.000 A 
ATOM      4  N   UNK A   0       2.268   7.711  19.908  0.00  0.00    +0.000 NA
ATOM      5  C   UNK A   0       1.392   8.504  20.543  0.00  0.00    +0.000 A 
ATOM      6  N   UNK A   0       1.232   8.422  21.907  0.00  0.00    +0.000 NA
ATOM      7  C   UNK A   0       0.337   9.287  22.295  0.00  0.00    +0.000 A 
ATOM      8  N   UNK A   0      -0.020   9.427  23.583  0.00  0.00    +0.000 N 
ATOM      9  S   UNK A   0      -0.355  10.257  21.062  0.00  0.00    +0.000 S 
ATOM     10  C   UNK A   0       0.612   9.448  19.892  0.00  0.00    +0.000 A 
ATOM     11  H   UNK A   0       0.615   9.012  24.260  0.00  0.00    +0.000 HD
ATOM     12  H   UNK A   0      -0.435  10.299  23.883  0.00  0.00    +0.000 HD
ENDROOT
BRANCH   1  13
ATOM     13  N   LEU A   1       0.025  10.585  17.814  0.00  0.00    +0.000 N 
ATOM     14  H   LEU A   1       0.472  11.495  17.937  0.00  0.00    +0.000 HD
BRANCH  13  15
ATOM     15  CA  LEU A   1      -1.428  10.662  18.010  0.00  0.00    +0.000 C 
BRANCH  15  16
ATOM     16  CB  LEU A   1      -2.140   9.888  16.873  0.00  0.00    +0.000 C 
BRANCH  16  18
ATOM     17  CD1 LEU A   1      -2.946  10.133  14.455  0.00  0.00    +0.000 C 
ATOM     18  CG  LEU A   1      -2.925  10.742  15.856  0.00  0.00    +0.000 C 
ATOM     19  CD2 LEU A   1      -4.362  10.942  16.351  0.00  0.00    +0.000 C 
ENDBRANCH  16  18
ENDBRANCH  15  16
BRANCH  15  20
ATOM     20  C   LEU A   1      -1.850  12.153  17.967  0.00  0.00    +0.000 C 
BRANCH  20  21
ATOM     21  O   LEU A   1      -0.765  12.990  17.546  0.00  0.00    +0.000 OA
ATOM     22  H   LEU A   1      -0.650  13.691  18.210  0.00  0.00    +0.000 HD
ENDBRANCH  20  21
ENDBRANCH  15  20
ENDBRANCH  13  15
ENDBRANCH   1  13
BRANCH   3  23
ATOM     23  S   UNK A   0       3.515   6.907  17.704  0.00  0.00    +0.000 S 
BRANCH  23  24
ATOM     24  C   UNK A   0       3.981   5.602  18.939  0.00  0.00    +0.000 C 
ATOM     25  C   UNK A   0       5.512   5.575  19.024  0.00  0.00    +0.000 C 
BRANCH  24  26
ATOM     26  C   UNK A   0       3.284   4.259  18.727  0.00  0.00    +0.000 A 
ATOM     27  C   UNK A   0       3.508   3.500  17.560  0.00  0.00    +0.000 A 
ATOM     28  C   UNK A   0       2.745   2.365  17.267  0.00  0.00    +0.000 A 
ATOM     29  C   UNK A   0       1.718   1.978  18.117  0.00  0.00    +0.000 A 
ATOM     30  C   UNK A   0       1.534   2.653  19.319  0.00  0.00    +0.000 A 
ATOM     31  C   UNK A   0       2.352   3.743  19.649  0.00  0.00    +0.000 A 
ATOM     32 BR   UNK A   0       2.216   4.386  21.436  0.00  0.00    +0.000 Br
ENDBRANCH  24  26
ENDBRANCH  23  24
ENDBRANCH   3  23
TORSDOF 9
ENDMDL
MODEL 2
REMARK VINA RESULT:      -7.6      3.761      8.075
REMARK  Name = 
REMARK  12 active torsions:
REMARK  status: ('A' for Active; 'I' for Inactive)
REMARK    1  A    between atoms: CD1_1  and  CG_2
REMARK    2  A    between atoms: CG_2  and  CD2_3
REMARK    3  A    between atoms: CG_2  and  CB_4
REMARK    4  A    between atoms: CB_4  and  CA_5
REMARK    5  A    between atoms: CA_5  and  C_6
REMARK    6  A    between atoms: CA_5  and  N_8
REMARK    7  A    between atoms: C_6  and  O_7
REMARK    8  A    between atoms: N_8  and  C_9
REMARK    9  A    between atoms: C_11  and  S_12
REMARK   10  A    between atoms: S_12  and  C_13
REMARK   11  A    between atoms: C_13  and  C_14
REMARK   12  A    between atoms: C_13  and  C_15
REMARK                            x       y       z     vdW  Elec       q    Type
REMARK                         _______ _______ _______ _____ _____    ______ ____
ROOT
ATOM      1  C   UNK A   0       3.445   6.330  17.906  0.00  0.00    +0.000 A 
ATOM      2  N   UNK A   0       3.042   7.619  17.794  0.00  0.00    +0.000 NA
ATOM      3  C   UNK A   0       2.247   8.153  18.742  0.00  0.00    +0.000 A 
ATOM      4  N   UNK A   0       1.789   7.545  19.819  0.00  0.00    +0.000 NA
ATOM      5  C   UNK A   0       2.207   6.278  19.964  0.00  0.00    +0.000 A 
ATOM      6  N   UNK A   0       1.826   5.534  21.056  0.00  0.00    +0.000 NA
ATOM      7  C   UNK A   0       2.347   4.342  20.977  0.00  0.00    +0.000 A 
ATOM      8  N   UNK A   0       2.139   3.399  21.912  0.00  0.00    +0.000 N 
ATOM      9  S   UNK A   0       3.310   4.033  19.591  0.00  0.00    +0.000 S 
ATOM     10  C   UNK A   0       3.023   5.638  19.043  0.00  0.00    +0.000 A 
ATOM     11  H   UNK A   0       1.362   3.575  22.543  0.00  0.00    +0.000 HD
ATOM     12  H   UNK A   0       2.260   2.427  21.661  0.00  0.00    +0.000 HD
ENDROOT
BRANCH   1  13
ATOM     13  N   LEU A   1       4.198   5.707  16.905  0.00  0.00    +0.000 N 
ATOM     14  H   LEU A   1       3.751   4.840  16.603  0.00  0.00    +0.000 HD
BRANCH  13  15
ATOM     15  CA  LEU A   1       5.635   5.521  17.145  0.00  0.00    +0.000 C 
BRANCH  15  16
ATOM     16  CB  LEU A   1       6.396   6.802  16.720  0.00  0.00    +0.000 C 
BRANCH  16  18
ATOM     17  CD1 LEU A   1       7.852   8.582  17.846  0.00  0.00    +0.000 C 
ATOM     18  CG  LEU A   1       7.700   7.104  17.486  0.00  0.00    +0.000 C 
ATOM     19  CD2 LEU A   1       7.756   6.256  18.763  0.00  0.00    +0.000 C 
ENDBRANCH  16  18
ENDBRANCH  15  16
BRANCH  15  20
ATOM     20  C   LEU A   1       6.123   4.321  16.294  0.00  0.00    +0.000 C 
BRANCH  20  21
ATOM     21  O   LEU A   1       5.406   3.123  16.622  0.00  0.00    +0.000 OA
ATOM     22  H   LEU A   1       6.049   2.464  16.936  0.00  0.00    +0.000 HD
ENDBRANCH  20  21
ENDBRANCH  15  20
ENDBRANCH  13  15
ENDBRANCH   1  13
BRANCH   3  23
ATOM     23  S   UNK A   0       1.657   9.815  18.447  0.00  0.00    +0.000 S 
BRANCH  23  24
ATOM     24  C   UNK A   0      -0.081   9.746  19.093  0.00  0.00    +0.000 C 
ATOM     25  C   UNK A   0      -1.017  10.119  17.936  0.00  0.00    +0.000 C 
BRANCH  24  26
ATOM     26  C   UNK A   0      -0.293  10.489  20.410  0.00  0.00    +0.000 A 
ATOM     27  C   UNK A   0      -0.299   9.801  21.641  0.00  0.00    +0.000 A 
ATOM     28  C   UNK A   0      -0.672  10.432  22.832  0.00  0.00    +0.000 A 
ATOM     29  C   UNK A   0      -1.079  11.759  22.819  0.00  0.00    +0.000 A 
ATOM     30  C   UNK A   0      -0.995  12.488  21.637  0.00  0.00    +0.000 A 
ATOM     31  C   UNK A   0      -0.546  11.875  20.459  0.00  0.00    +0.000 A 
ATOM     32 BR   UNK A   0      -0.181  13.034  18.994  0.00  0.00    +0.000 Br
ENDBRANCH  24  26
ENDBRANCH  23  24
ENDBRANCH   3  23
TORSDOF 9
ENDMDL
MODEL 3
REMARK VINA RESULT:      -7.6      3.563      8.065
REMARK  Name = 
REMARK  12 active torsions:
REMARK  status: ('A' for Active; 'I' for Inactive)
REMARK    1  A    between atoms: CD1_1  and  CG_2
REMARK    2  A    between atoms: CG_2  and  CD2_3
REMARK    3  A    between atoms: CG_2  and  CB_4
REMARK    4  A    between atoms: CB_4  and  CA_5
REMARK    5  A    between atoms: CA_5  and  C_6
REMARK    6  A    between atoms: CA_5  and  N_8
REMARK    7  A    between atoms: C_6  and  O_7
REMARK    8  A    between atoms: N_8  and  C_9
REMARK    9  A    between atoms: C_11  and  S_12
REMARK   10  A    between atoms: S_12  and  C_13
REMARK   11  A    between atoms: C_13  and  C_14
REMARK   12  A    between atoms: C_13  and  C_15
REMARK                            x       y       z     vdW  Elec       q    Type
REMARK                         _______ _______ _______ _____ _____    ______ ____
ROOT
ATOM      1  C   UNK A   0       3.598   6.334  17.791  0.00  0.00    +0.000 A 
ATOM      2  N   UNK A   0       3.202   7.619  17.627  0.00  0.00    +0.000 NA
ATOM      3  C   UNK A   0       2.375   8.182  18.531  0.00  0.00    +0.000 A 
ATOM      4  N   UNK A   0       1.878   7.606  19.608  0.00  0.00    +0.000 NA
ATOM      5  C   UNK A   0       2.288   6.343  19.804  0.00  0.00    +0.000 A 
ATOM      6  N   UNK A   0       1.866   5.632  20.904  0.00  0.00    +0.000 NA
ATOM      7  C   UNK A   0       2.387   4.437  20.877  0.00  0.00    +0.000 A 
ATOM      8  N   UNK A   0       2.144   3.522  21.832  0.00  0.00    +0.000 N 
ATOM      9  S   UNK A   0       3.398   4.087  19.536  0.00  0.00    +0.000 S 
ATOM     10  C   UNK A   0       3.135   5.675  18.932  0.00  0.00    +0.000 A 
ATOM     11  H   UNK A   0       1.346   3.717  22.429  0.00  0.00    +0.000 HD
ATOM     12  H   UNK A   0       2.272   2.543  21.614  0.00  0.00    +0.000 HD
ENDROOT
BRANCH   1  13
ATOM     13  N   LEU A   1       4.385   5.680  16.836  0.00  0.00    +0.000 N 
ATOM     14  H   LEU A   1       4.029   4.740  16.657  0.00  0.00    +0.000 HD
BRANCH  13  15
ATOM     15  CA  LEU A   1       5.840   5.682  17.032  0.00  0.00    +0.000 C 
BRANCH  15  16
ATOM     16  CB  LEU A   1       6.341   7.143  17.149  0.00  0.00    +0.000 C 
BRANCH  16  18
ATOM     17  CD1 LEU A   1       8.121   8.787  17.975  0.00  0.00    +0.000 C 
ATOM     18  CG  LEU A   1       7.781   7.329  17.667  0.00  0.00    +0.000 C 
ATOM     19  CD2 LEU A   1       7.991   6.476  18.924  0.00  0.00    +0.000 C 
ENDBRANCH  16  18
ENDBRANCH  15  16
BRANCH  15  20
ATOM     20  C   LEU A   1       6.500   5.004  15.804  0.00  0.00    +0.000 C 
BRANCH  20  21
ATOM     21  O   LEU A   1       7.734   4.367  16.159  0.00  0.00    +0.000 OA
ATOM     22  H   LEU A   1       7.666   4.073  17.084  0.00  0.00    +0.000 HD
ENDBRANCH  20  21
ENDBRANCH  15  20
ENDBRANCH  13  15
ENDBRANCH   1  13
BRANCH   3  23
ATOM     23  S   UNK A   0       1.800   9.836  18.167  0.00  0.00    +0.000 S 
BRANCH  23  24
ATOM     24  C   UNK A   0       0.058   9.806  18.807  0.00  0.00    +0.000 C 
ATOM     25  C   UNK A   0      -0.877   9.733  17.594  0.00  0.00    +0.000 C 
BRANCH  24  26
ATOM     26  C   UNK A   0      -0.249  10.885  19.843  0.00  0.00    +0.000 A 
ATOM     27  C   UNK A   0      -0.462  12.225  19.457  0.00  0.00    +0.000 A 
ATOM     28  C   UNK A   0      -0.561  13.253  20.400  0.00  0.00    +0.000 A 
ATOM     29  C   UNK A   0      -0.420  12.973  21.752  0.00  0.00    +0.000 A 
ATOM     30  C   UNK A   0      -0.302  11.651  22.168  0.00  0.00    +0.000 A 
ATOM     31  C   UNK A   0      -0.281  10.613  21.226  0.00  0.00    +0.000 A 
ATOM     32 BR   UNK A   0      -0.427   8.846  21.918  0.00  0.00    +0.000 Br
ENDBRANCH  24  26
ENDBRANCH  23  24
ENDBRANCH   3  23
TORSDOF 9
ENDMDL
MODEL 4
REMARK VINA RESULT:      -7.5      3.708      8.108
REMARK  Name = 
REMARK  12 active torsions:
REMARK  status: ('A' for Active; 'I' for Inactive)
REMARK    1  A    between atoms: CD1_1  and  CG_2
REMARK    2  A    between atoms: CG_2  and  CD2_3
REMARK    3  A    between atoms: CG_2  and  CB_4
REMARK    4  A    between atoms: CB_4  and  CA_5
REMARK    5  A    between atoms: CA_5  and  C_6
REMARK    6  A    between atoms: CA_5  and  N_8
REMARK    7  A    between atoms: C_6  and  O_7
REMARK    8  A    between atoms: N_8  and  C_9
REMARK    9  A    between atoms: C_11  and  S_12
REMARK   10  A    between atoms: S_12  and  C_13
REMARK   11  A    between atoms: C_13  and  C_14
REMARK   12  A    between atoms: C_13  and  C_15
REMARK                            x       y       z     vdW  Elec       q    Type
REMARK                         _______ _______ _______ _____ _____    ______ ____
ROOT
ATOM      1  C   UNK A   0       4.361   5.613  18.992  0.00  0.00    +0.000 A 
ATOM      2  N   UNK A   0       3.931   6.853  18.652  0.00  0.00    +0.000 NA
ATOM      3  C   UNK A   0       2.668   7.022  18.214  0.00  0.00    +0.000 A 
ATOM      4  N   UNK A   0       1.754   6.083  18.066  0.00  0.00    +0.000 NA
ATOM      5  C   UNK A   0       2.152   4.855  18.431  0.00  0.00    +0.000 A 
ATOM      6  N   UNK A   0       1.291   3.785  18.353  0.00  0.00    +0.000 NA
ATOM      7  C   UNK A   0       1.899   2.704  18.753  0.00  0.00    +0.000 A 
ATOM      8  N   UNK A   0       1.293   1.504  18.780  0.00  0.00    +0.000 N 
ATOM      9  S   UNK A   0       3.534   2.894  19.233  0.00  0.00    +0.000 S 
ATOM     10  C   UNK A   0       3.431   4.577  18.892  0.00  0.00    +0.000 A 
ATOM     11  H   UNK A   0       0.435   1.436  18.242  0.00  0.00    +0.000 HD
ATOM     12  H   UNK A   0       1.864   0.668  18.762  0.00  0.00    +0.000 HD
ENDROOT
BRANCH   1  13
ATOM     13  N   LEU A   1       5.687   5.374  19.369  0.00  0.00    +0.000 N 
ATOM     14  H   LEU A   1       5.872   5.753  20.299  0.00  0.00    +0.000 HD
BRANCH  13  15
ATOM     15  CA  LEU A   1       6.745   5.733  18.416  0.00  0.00    +0.000 C 
BRANCH  15  16
ATOM     16  CB  LEU A   1       6.762   4.705  17.258  0.00  0.00    +0.000 C 
BRANCH  16  18
ATOM     17  CD1 LEU A   1       6.736   4.213  14.746  0.00  0.00    +0.000 C 
ATOM     18  CG  LEU A   1       6.667   5.285  15.832  0.00  0.00    +0.000 C 
ATOM     19  CD2 LEU A   1       5.366   6.083  15.685  0.00  0.00    +0.000 C 
ENDBRANCH  16  18
ENDBRANCH  15  16
BRANCH  15  20
ATOM     20  C   LEU A   1       8.105   5.701  19.159  0.00  0.00    +0.000 C 
BRANCH  20  21
ATOM     21  O   LEU A   1       7.932   5.416  20.554  0.00  0.00    +0.000 OA
ATOM     22  H   LEU A   1       8.045   6.247  21.047  0.00  0.00    +0.000 HD
ENDBRANCH  20  21
ENDBRANCH  15  20
ENDBRANCH  13  15
ENDBRANCH   1  13
BRANCH   3  23
ATOM     23  S   UNK A   0       2.227   8.665  17.663  0.00  0.00    +0.000 S 
BRANCH  23  24
ATOM     24  C   UNK A   0       1.407   9.386  19.164  0.00  0.00    +0.000 C 
ATOM     25  C   UNK A   0       1.304   8.272  20.212  0.00  0.00    +0.000 C 
BRANCH  24  26
ATOM     26  C   UNK A   0       0.128  10.166  18.868  0.00  0.00    +0.000 A 
ATOM     27  C   UNK A   0      -0.852   9.652  17.994  0.00  0.00    +0.000 A 
ATOM     28  C   UNK A   0      -1.936  10.427  17.569  0.00  0.00    +0.000 A 
ATOM     29  C   UNK A   0      -2.053  11.747  17.983  0.00  0.00    +0.000 A 
ATOM     30  C   UNK A   0      -1.153  12.252  18.916  0.00  0.00    +0.000 A 
ATOM     31  C   UNK A   0      -0.111  11.449  19.401  0.00  0.00    +0.000 A 
ATOM     32 BR   UNK A   0       0.859  12.136  20.888  0.00  0.00    +0.000 Br
ENDBRANCH  24  26
ENDBRANCH  23  24
ENDBRANCH   3  23
TORSDOF 9
ENDMDL
MODEL 5
REMARK VINA RESULT:      -7.5      3.715      7.917
REMARK  Name = 
REMARK  12 active torsions:
REMARK  status: ('A' for Active; 'I' for Inactive)
REMARK    1  A    between atoms: CD1_1  and  CG_2
REMARK    2  A    between atoms: CG_2  and  CD2_3
REMARK    3  A    between atoms: CG_2  and  CB_4
REMARK    4  A    between atoms: CB_4  and  CA_5
REMARK    5  A    between atoms: CA_5  and  C_6
REMARK    6  A    between atoms: CA_5  and  N_8
REMARK    7  A    between atoms: C_6  and  O_7
REMARK    8  A    between atoms: N_8  and  C_9
REMARK    9  A    between atoms: C_11  and  S_12
REMARK   10  A    between atoms: S_12  and  C_13
REMARK   11  A    between atoms: C_13  and  C_14
REMARK   12  A    between atoms: C_13  and  C_15
REMARK                            x       y       z     vdW  Elec       q    Type
REMARK                         _______ _______ _______ _____ _____    ______ ____
ROOT
ATOM      1  C   UNK A   0       3.604   5.768  17.738  0.00  0.00    +0.000 A 
ATOM      2  N   UNK A   0       3.249   7.069  17.610  0.00  0.00    +0.000 NA
ATOM      3  C   UNK A   0       2.500   7.652  18.567  0.00  0.00    +0.000 A 
ATOM      4  N   UNK A   0       2.046   7.083  19.667  0.00  0.00    +0.000 NA
ATOM      5  C   UNK A   0       2.417   5.803  19.826  0.00  0.00    +0.000 A 
ATOM      6  N   UNK A   0       2.035   5.095  20.942  0.00  0.00    +0.000 NA
ATOM      7  C   UNK A   0       2.507   3.882  20.873  0.00  0.00    +0.000 A 
ATOM      8  N   UNK A   0       2.285   2.966  21.831  0.00  0.00    +0.000 N 
ATOM      9  S   UNK A   0       3.420   3.510  19.470  0.00  0.00    +0.000 S 
ATOM     10  C   UNK A   0       3.184   5.114  18.898  0.00  0.00    +0.000 A 
ATOM     11  H   UNK A   0       1.533   3.184  22.478  0.00  0.00    +0.000 HD
ATOM     12  H   UNK A   0       2.362   1.985  21.596  0.00  0.00    +0.000 HD
ENDROOT
BRANCH   1  13
ATOM     13  N   LEU A   1       4.306   5.096  16.731  0.00  0.00    +0.000 N 
ATOM     14  H   LEU A   1       3.955   4.143  16.620  0.00  0.00    +0.000 HD
BRANCH  13  15
ATOM     15  CA  LEU A   1       5.773   5.133  16.778  0.00  0.00    +0.000 C 
BRANCH  15  16
ATOM     16  CB  LEU A   1       6.248   6.607  16.793  0.00  0.00    +0.000 C 
BRANCH  16  18
ATOM     17  CD1 LEU A   1       7.786   5.934  18.725  0.00  0.00    +0.000 C 
ATOM     18  CG  LEU A   1       7.007   7.065  18.055  0.00  0.00    +0.000 C 
ATOM     19  CD2 LEU A   1       7.965   8.206  17.696  0.00  0.00    +0.000 C 
ENDBRANCH  16  18
ENDBRANCH  15  16
BRANCH  15  20
ATOM     20  C   LEU A   1       6.321   4.423  15.514  0.00  0.00    +0.000 C 
BRANCH  20  21
ATOM     21  O   LEU A   1       7.412   5.153  14.936  0.00  0.00    +0.000 OA
ATOM     22  H   LEU A   1       7.245   5.236  13.981  0.00  0.00    +0.000 HD
ENDBRANCH  20  21
ENDBRANCH  15  20
ENDBRANCH  13  15
ENDBRANCH   1  13
BRANCH   3  23
ATOM     23  S   UNK A   0       1.969   9.331  18.254  0.00  0.00    +0.000 S 
BRANCH  23  24
ATOM     24  C   UNK A   0       0.222   9.324  18.882  0.00  0.00    +0.000 C 
ATOM     25  C   UNK A   0      -0.653   9.993  17.814  0.00  0.00    +0.000 C 
BRANCH  24  26
ATOM     26  C   UNK A   0       0.066   9.835  20.312  0.00  0.00    +0.000 A 
ATOM     27  C   UNK A   0      -0.227   8.952  21.372  0.00  0.00    +0.000 A 
ATOM     28  C   UNK A   0      -0.554   9.422  22.648  0.00  0.00    +0.000 A 
ATOM     29  C   UNK A   0      -0.626  10.787  22.891  0.00  0.00    +0.000 A 
ATOM     30  C   UNK A   0      -0.253  11.679  21.891  0.00  0.00    +0.000 A 
ATOM     31  C   UNK A   0       0.150  11.204  20.635  0.00  0.00    +0.000 A 
ATOM     32 BR   UNK A   0       0.926  12.486  19.461  0.00  0.00    +0.000 Br
ENDBRANCH  24  26
ENDBRANCH  23  24
ENDBRANCH   3  23
TORSDOF 9
ENDMDL
MODEL 6
REMARK VINA RESULT:      -7.4      3.779      8.179
REMARK  Name = 
REMARK  12 active torsions:
REMARK  status: ('A' for Active; 'I' for Inactive)
REMARK    1  A    between atoms: CD1_1  and  CG_2
REMARK    2  A    between atoms: CG_2  and  CD2_3
REMARK    3  A    between atoms: CG_2  and  CB_4
REMARK    4  A    between atoms: CB_4  and  CA_5
REMARK    5  A    between atoms: CA_5  and  C_6
REMARK    6  A    between atoms: CA_5  and  N_8
REMARK    7  A    between atoms: C_6  and  O_7
REMARK    8  A    between atoms: N_8  and  C_9
REMARK    9  A    between atoms: C_11  and  S_12
REMARK   10  A    between atoms: S_12  and  C_13
REMARK   11  A    between atoms: C_13  and  C_14
REMARK   12  A    between atoms: C_13  and  C_15
REMARK                            x       y       z     vdW  Elec       q    Type
REMARK                         _______ _______ _______ _____ _____    ______ ____
ROOT
ATOM      1  C   UNK A   0       3.079   4.680  17.458  0.00  0.00    +0.000 A 
ATOM      2  N   UNK A   0       2.387   5.637  18.123  0.00  0.00    +0.000 NA
ATOM      3  C   UNK A   0       2.898   6.880  18.221  0.00  0.00    +0.000 A 
ATOM      4  N   UNK A   0       4.046   7.301  17.728  0.00  0.00    +0.000 NA
ATOM      5  C   UNK A   0       4.728   6.374  17.037  0.00  0.00    +0.000 A 
ATOM      6  N   UNK A   0       5.931   6.684  16.446  0.00  0.00    +0.000 NA
ATOM      7  C   UNK A   0       6.405   5.631  15.840  0.00  0.00    +0.000 A 
ATOM      8  N   UNK A   0       7.574   5.645  15.177  0.00  0.00    +0.000 N 
ATOM      9  S   UNK A   0       5.453   4.209  15.951  0.00  0.00    +0.000 S 
ATOM     10  C   UNK A   0       4.290   5.067  16.881  0.00  0.00    +0.000 A 
ATOM     11  H   UNK A   0       8.183   6.432  15.383  0.00  0.00    +0.000 HD
ATOM     12  H   UNK A   0       8.060   4.771  15.025  0.00  0.00    +0.000 HD
ENDROOT
BRANCH   1  13
ATOM     13  N   LEU A   1       2.631   3.355  17.404  0.00  0.00    +0.000 N 
ATOM     14  H   LEU A   1       1.617   3.321  17.292  0.00  0.00    +0.000 HD
BRANCH  13  15
ATOM     15  CA  LEU A   1       3.094   2.433  18.448  0.00  0.00    +0.000 C 
BRANCH  15  16
ATOM     16  CB  LEU A   1       1.958   2.213  19.479  0.00  0.00    +0.000 C 
BRANCH  16  18
ATOM     17  CD1 LEU A   1       0.792   4.267  20.465  0.00  0.00    +0.000 C 
ATOM     18  CG  LEU A   1       1.893   3.222  20.643  0.00  0.00    +0.000 C 
ATOM     19  CD2 LEU A   1       1.681   2.473  21.964  0.00  0.00    +0.000 C 
ENDBRANCH  16  18
ENDBRANCH  15  16
BRANCH  15  20
ATOM     20  C   LEU A   1       4.320   3.068  19.153  0.00  0.00    +0.000 C 
BRANCH  20  21
ATOM     21  O   LEU A   1       5.024   2.103  19.946  0.00  0.00    +0.000 OA
ATOM     22  H   LEU A   1       5.857   2.509  20.244  0.00  0.00    +0.000 HD
ENDBRANCH  20  21
ENDBRANCH  15  20
ENDBRANCH  13  15
ENDBRANCH   1  13
BRANCH   3  23
ATOM     23  S   UNK A   0       1.982   8.043  19.226  0.00  0.00    +0.000 S 
BRANCH  23  24
ATOM     24  C   UNK A   0       1.421   9.298  17.979  0.00  0.00    +0.000 C 
ATOM     25  C   UNK A   0       2.528  10.352  17.856  0.00  0.00    +0.000 C 
BRANCH  24  26
ATOM     26  C   UNK A   0       0.003   9.819  18.205  0.00  0.00    +0.000 A 
ATOM     27  C   UNK A   0      -1.033   9.526  17.295  0.00  0.00    +0.000 A 
ATOM     28  C   UNK A   0      -2.285  10.142  17.387  0.00  0.00    +0.000 A 
ATOM     29  C   UNK A   0      -2.524  11.091  18.373  0.00  0.00    +0.000 A 
ATOM     30  C   UNK A   0      -1.553  11.331  19.339  0.00  0.00    +0.000 A 
ATOM     31  C   UNK A   0      -0.326  10.655  19.291  0.00  0.00    +0.000 A 
ATOM     32 BR   UNK A   0       0.792  10.831  20.822  0.00  0.00    +0.000 Br
ENDBRANCH  24  26
ENDBRANCH  23  24
ENDBRANCH   3  23
TORSDOF 9
ENDMDL
MODEL 7
REMARK VINA RESULT:      -7.4      1.191      1.594
REMARK  Name = 
REMARK  12 active torsions:
REMARK  status: ('A' for Active; 'I' for Inactive)
REMARK    1  A    between atoms: CD1_1  and  CG_2
REMARK    2  A    between atoms: CG_2  and  CD2_3
REMARK    3  A    between atoms: CG_2  and  CB_4
REMARK    4  A    between atoms: CB_4  and  CA_5
REMARK    5  A    between atoms: CA_5  and  C_6
REMARK    6  A    between atoms: CA_5  and  N_8
REMARK    7  A    between atoms: C_6  and  O_7
REMARK    8  A    between atoms: N_8  and  C_9
REMARK    9  A    between atoms: C_11  and  S_12
REMARK   10  A    between atoms: S_12  and  C_13
REMARK   11  A    between atoms: C_13  and  C_14
REMARK   12  A    between atoms: C_13  and  C_15
REMARK                            x       y       z     vdW  Elec       q    Type
REMARK                         _______ _______ _______ _____ _____    ______ ____
ROOT
ATOM      1  C   UNK A   0       0.772   9.778  18.748  0.00  0.00    +0.000 A 
ATOM      2  N   UNK A   0       1.624   8.924  18.130  0.00  0.00    +0.000 NA
ATOM      3  C   UNK A   0       2.257   7.977  18.851  0.00  0.00    +0.000 A 
ATOM      4  N   UNK A   0       2.146   7.770  20.149  0.00  0.00    +0.000 NA
ATOM      5  C   UNK A   0       1.280   8.586  20.771  0.00  0.00    +0.000 A 
ATOM      6  N   UNK A   0       1.047   8.463  22.121  0.00  0.00    +0.000 NA
ATOM      7  C   UNK A   0       0.178   9.360  22.498  0.00  0.00    +0.000 A 
ATOM      8  N   UNK A   0      -0.236   9.472  23.771  0.00  0.00    +0.000 N 
ATOM      9  S   UNK A   0      -0.401  10.408  21.270  0.00  0.00    +0.000 S 
ATOM     10  C   UNK A   0       0.581   9.592  20.119  0.00  0.00    +0.000 A 
ATOM     11  H   UNK A   0       0.342   9.001  24.461  0.00  0.00    +0.000 HD
ATOM     12  H   UNK A   0      -0.621  10.354  24.084  0.00  0.00    +0.000 HD
ENDROOT
BRANCH   1  13
ATOM     13  N   LEU A   1       0.159  10.830  18.059  0.00  0.00    +0.000 N 
ATOM     14  H   LEU A   1       0.544  11.728  18.355  0.00  0.00    +0.000 HD
BRANCH  13  15
ATOM     15  CA  LEU A   1      -1.309  10.855  18.014  0.00  0.00    +0.000 C 
BRANCH  15  16
ATOM     16  CB  LEU A   1      -1.789  10.313  16.645  0.00  0.00    +0.000 C 
BRANCH  16  18
ATOM     17  CD1 LEU A   1      -3.917   9.741  17.948  0.00  0.00    +0.000 C 
ATOM     18  CG  LEU A   1      -3.261   9.858  16.572  0.00  0.00    +0.000 C 
ATOM     19  CD2 LEU A   1      -4.061  10.836  15.703  0.00  0.00    +0.000 C 
ENDBRANCH  16  18
ENDBRANCH  15  16
BRANCH  15  20
ATOM     20  C   LEU A   1      -1.778  12.323  18.186  0.00  0.00    +0.000 C 
BRANCH  20  21
ATOM     21  O   LEU A   1      -0.855  13.240  17.583  0.00  0.00    +0.000 OA
ATOM     22  H   LEU A   1      -1.147  14.143  17.796  0.00  0.00    +0.000 HD
ENDBRANCH  20  21
ENDBRANCH  15  20
ENDBRANCH  13  15
ENDBRANCH   1  13
BRANCH   3  23
ATOM     23  S   UNK A   0       3.460   6.981  17.980  0.00  0.00    +0.000 S 
BRANCH  23  24
ATOM     24  C   UNK A   0       3.751   5.578  19.159  0.00  0.00    +0.000 C 
ATOM     25  C   UNK A   0       5.256   5.285  19.164  0.00  0.00    +0.000 C 
BRANCH  24  26
ATOM     26  C   UNK A   0       2.823   4.382  18.955  0.00  0.00    +0.000 A 
ATOM     27  C   UNK A   0       1.668   4.214  19.747  0.00  0.00    +0.000 A 
ATOM     28  C   UNK A   0       0.912   3.039  19.701  0.00  0.00    +0.000 A 
ATOM     29  C   UNK A   0       1.307   1.988  18.883  0.00  0.00    +0.000 A 
ATOM     30  C   UNK A   0       2.387   2.160  18.024  0.00  0.00    +0.000 A 
ATOM     31  C   UNK A   0       3.098   3.369  18.015  0.00  0.00    +0.000 A 
ATOM     32 BR   UNK A   0       4.346   3.600  16.597  0.00  0.00    +0.000 Br
ENDBRANCH  24  26
ENDBRANCH  23  24
ENDBRANCH   3  23
TORSDOF 9
ENDMDL
MODEL 8
REMARK VINA RESULT:      -7.4      3.927      7.951
REMARK  Name = 
REMARK  12 active torsions:
REMARK  status: ('A' for Active; 'I' for Inactive)
REMARK    1  A    between atoms: CD1_1  and  CG_2
REMARK    2  A    between atoms: CG_2  and  CD2_3
REMARK    3  A    between atoms: CG_2  and  CB_4
REMARK    4  A    between atoms: CB_4  and  CA_5
REMARK    5  A    between atoms: CA_5  and  C_6
REMARK    6  A    between atoms: CA_5  and  N_8
REMARK    7  A    between atoms: C_6  and  O_7
REMARK    8  A    between atoms: N_8  and  C_9
REMARK    9  A    between atoms: C_11  and  S_12
REMARK   10  A    between atoms: S_12  and  C_13
REMARK   11  A    between atoms: C_13  and  C_14
REMARK   12  A    between atoms: C_13  and  C_15
REMARK                            x       y       z     vdW  Elec       q    Type
REMARK                         _______ _______ _______ _____ _____    ______ ____
ROOT
ATOM      1  C   UNK A   0       3.450   5.738  17.889  0.00  0.00    +0.000 A 
ATOM      2  N   UNK A   0       3.143   7.053  17.777  0.00  0.00    +0.000 NA
ATOM      3  C   UNK A   0       2.446   7.659  18.760  0.00  0.00    +0.000 A 
ATOM      4  N   UNK A   0       2.003   7.102  19.870  0.00  0.00    +0.000 NA
ATOM      5  C   UNK A   0       2.329   5.808  20.011  0.00  0.00    +0.000 A 
ATOM      6  N   UNK A   0       1.952   5.109  21.135  0.00  0.00    +0.000 NA
ATOM      7  C   UNK A   0       2.374   3.878  21.046  0.00  0.00    +0.000 A 
ATOM      8  N   UNK A   0       2.146   2.967  22.007  0.00  0.00    +0.000 N 
ATOM      9  S   UNK A   0       3.231   3.479  19.615  0.00  0.00    +0.000 S 
ATOM     10  C   UNK A   0       3.040   5.094  19.058  0.00  0.00    +0.000 A 
ATOM     11  H   UNK A   0       1.422   3.210  22.676  0.00  0.00    +0.000 HD
ATOM     12  H   UNK A   0       2.177   1.984  21.765  0.00  0.00    +0.000 HD
ENDROOT
BRANCH   1  13
ATOM     13  N   LEU A   1       4.095   5.046  16.858  0.00  0.00    +0.000 N 
ATOM     14  H   LEU A   1       3.909   4.044  16.924  0.00  0.00    +0.000 HD
BRANCH  13  15
ATOM     15  CA  LEU A   1       5.521   5.320  16.637  0.00  0.00    +0.000 C 
BRANCH  15  16
ATOM     16  CB  LEU A   1       5.760   5.612  15.134  0.00  0.00    +0.000 C 
BRANCH  16  18
ATOM     17  CD1 LEU A   1       5.603   3.733  13.403  0.00  0.00    +0.000 C 
ATOM     18  CG  LEU A   1       6.513   4.525  14.342  0.00  0.00    +0.000 C 
ATOM     19  CD2 LEU A   1       7.648   5.168  13.536  0.00  0.00    +0.000 C 
ENDBRANCH  16  18
ENDBRANCH  15  16
BRANCH  15  20
ATOM     20  C   LEU A   1       6.331   4.067  17.058  0.00  0.00    +0.000 C 
BRANCH  20  21
ATOM     21  O   LEU A   1       7.252   4.371  18.114  0.00  0.00    +0.000 OA
ATOM     22  H   LEU A   1       7.918   3.662  18.146  0.00  0.00    +0.000 HD
ENDBRANCH  20  21
ENDBRANCH  15  20
ENDBRANCH  13  15
ENDBRANCH   1  13
BRANCH   3  23
ATOM     23  S   UNK A   0       1.971   9.359  18.470  0.00  0.00    +0.000 S 
BRANCH  23  24
ATOM     24  C   UNK A   0       0.203   9.384  19.032  0.00  0.00    +0.000 C 
ATOM     25  C   UNK A   0      -0.624  10.044  17.921  0.00  0.00    +0.000 C 
BRANCH  24  26
ATOM     26  C   UNK A   0      -0.000   9.924  20.446  0.00  0.00    +0.000 A 
ATOM     27  C   UNK A   0      -0.208   9.051  21.534  0.00  0.00    +0.000 A 
ATOM     28  C   UNK A   0      -0.577   9.527  22.796  0.00  0.00    +0.000 A 
ATOM     29  C   UNK A   0      -0.777  10.887  22.996  0.00  0.00    +0.000 A 
ATOM     30  C   UNK A   0      -0.490  11.778  21.967  0.00  0.00    +0.000 A 
ATOM     31  C   UNK A   0      -0.045  11.304  20.725  0.00  0.00    +0.000 A 
ATOM     32 BR   UNK A   0       0.606  12.616  19.509  0.00  0.00    +0.000 Br
ENDBRANCH  24  26
ENDBRANCH  23  24
ENDBRANCH   3  23
TORSDOF 9
ENDMDL
MODEL 9
REMARK VINA RESULT:      -7.1      4.069      8.323
REMARK  Name = 
REMARK  12 active torsions:
REMARK  status: ('A' for Active; 'I' for Inactive)
REMARK    1  A    between atoms: CD1_1  and  CG_2
REMARK    2  A    between atoms: CG_2  and  CD2_3
REMARK    3  A    between atoms: CG_2  and  CB_4
REMARK    4  A    between atoms: CB_4  and  CA_5
REMARK    5  A    between atoms: CA_5  and  C_6
REMARK    6  A    between atoms: CA_5  and  N_8
REMARK    7  A    between atoms: C_6  and  O_7
REMARK    8  A    between atoms: N_8  and  C_9
REMARK    9  A    between atoms: C_11  and  S_12
REMARK   10  A    between atoms: S_12  and  C_13
REMARK   11  A    between atoms: C_13  and  C_14
REMARK   12  A    between atoms: C_13  and  C_15
REMARK                            x       y       z     vdW  Elec       q    Type
REMARK                         _______ _______ _______ _____ _____    ______ ____
ROOT
ATOM      1  C   UNK A   0       3.083   4.566  17.560  0.00  0.00    +0.000 A 
ATOM      2  N   UNK A   0       2.454   5.469  18.351  0.00  0.00    +0.000 NA
ATOM      3  C   UNK A   0       3.000   6.688  18.533  0.00  0.00    +0.000 A 
ATOM      4  N   UNK A   0       4.128   7.131  18.014  0.00  0.00    +0.000 NA
ATOM      5  C   UNK A   0       4.746   6.261  17.200  0.00  0.00    +0.000 A 
ATOM      6  N   UNK A   0       5.920   6.603  16.569  0.00  0.00    +0.000 NA
ATOM      7  C   UNK A   0       6.332   5.603  15.841  0.00  0.00    +0.000 A 
ATOM      8  N   UNK A   0       7.461   5.658  15.113  0.00  0.00    +0.000 N 
ATOM      9  S   UNK A   0       5.354   4.195  15.875  0.00  0.00    +0.000 S 
ATOM     10  C   UNK A   0       4.268   4.984  16.949  0.00  0.00    +0.000 A 
ATOM     11  H   UNK A   0       8.100   6.410  15.355  0.00  0.00    +0.000 HD
ATOM     12  H   UNK A   0       7.916   4.793  14.852  0.00  0.00    +0.000 HD
ENDROOT
BRANCH   1  13
ATOM     13  N   LEU A   1       2.601   3.261  17.409  0.00  0.00    +0.000 N 
ATOM     14  H   LEU A   1       1.593   3.264  17.249  0.00  0.00    +0.000 HD
BRANCH  13  15
ATOM     15  CA  LEU A   1       2.988   2.268  18.419  0.00  0.00    +0.000 C 
BRANCH  15  16
ATOM     16  CB  LEU A   1       1.824   2.080  19.425  0.00  0.00    +0.000 C 
BRANCH  16  18
ATOM     17  CD1 LEU A   1       0.714   4.140  20.463  0.00  0.00    +0.000 C 
ATOM     18  CG  LEU A   1       1.788   3.063  20.613  0.00  0.00    +0.000 C 
ATOM     19  CD2 LEU A   1       1.560   2.288  21.916  0.00  0.00    +0.000 C 
ENDBRANCH  16  18
ENDBRANCH  15  16
BRANCH  15  20
ATOM     20  C   LEU A   1       4.241   2.792  19.166  0.00  0.00    +0.000 C 
BRANCH  20  21
ATOM     21  O   LEU A   1       4.935   1.728  19.831  0.00  0.00    +0.000 OA
ATOM     22  H   LEU A   1       4.364   0.941  19.817  0.00  0.00    +0.000 HD
ENDBRANCH  20  21
ENDBRANCH  15  20
ENDBRANCH  13  15
ENDBRANCH   1  13
BRANCH   3  23
ATOM     23  S   UNK A   0       2.173   7.767  19.695  0.00  0.00    +0.000 S 
BRANCH  23  24
ATOM     24  C   UNK A   0       1.214   8.899  18.580  0.00  0.00    +0.000 C 
ATOM     25  C   UNK A   0       2.153   9.334  17.448  0.00  0.00    +0.000 C 
BRANCH  24  26
ATOM     26  C   UNK A   0       0.462  10.011  19.309  0.00  0.00    +0.000 A 
ATOM     27  C   UNK A   0       1.025  10.657  20.429  0.00  0.00    +0.000 A 
ATOM     28  C   UNK A   0       0.282  11.543  21.215  0.00  0.00    +0.000 A 
ATOM     29  C   UNK A   0      -1.054  11.782  20.921  0.00  0.00    +0.000 A 
ATOM     30  C   UNK A   0      -1.610  11.231  19.771  0.00  0.00    +0.000 A 
ATOM     31  C   UNK A   0      -0.840  10.405  18.939  0.00  0.00    +0.000 A 
ATOM     32 BR   UNK A   0      -1.602   9.966  17.251  0.00  0.00    +0.000 Br
ENDBRANCH  24  26
ENDBRANCH  23  24
ENDBRANCH   3  23
TORSDOF 9
ENDMDL
