MODEL 1
REMARK VINA RESULT:      -8.0      0.000      0.000
REMARK  Name = 
REMARK  6 active torsions:
REMARK  status: ('A' for Active; 'I' for Inactive)
REMARK    1  A    between atoms: C_2  and  C_3
REMARK    2  A    between atoms: C_3  and  C_4
REMARK    3  A    between atoms: C_4  and  N_5
REMARK    4  A    between atoms: N_11  and  C_12
REMARK    5  A    between atoms: C_12  and  C_13
REMARK    6  A    between atoms: C_18  and  N_19
REMARK                            x       y       z     vdW  Elec       q    Type
REMARK                         _______ _______ _______ _____ _____    ______ ____
ROOT
ATOM      1  C   UNL     1       3.931   5.464  17.617  0.00  0.00    +0.000 A 
ATOM      2  C   UNL     1       4.628   6.278  16.681  0.00  0.00    +0.000 A 
ATOM      3  C   UNL     1       5.475   5.743  15.729  0.00  0.00    +0.000 A 
ATOM      4  C   UNL     1       5.624   4.386  15.740  0.00  0.00    +0.000 A 
ATOM      5  N   UNL     1       5.028   3.582  16.645  0.00  0.00    +0.000 NA
ATOM      6  C   UNL     1       4.199   4.084  17.611  0.00  0.00    +0.000 A 
ENDROOT
BRANCH   6   7
ATOM      7  N   UNL     1       3.758   3.124  18.509  0.00  0.00    +0.000 N 
ATOM      8  C   UNL     1       2.854   2.118  17.927  0.00  0.00    +0.000 C 
ATOM      9  C   UNL     1       1.430   2.118  18.498  0.00  0.00    +0.000 C 
ATOM     10  C   UNL     1       0.836   3.470  18.897  0.00  0.00    +0.000 C 
ATOM     11  C   UNL     1       0.942   3.806  20.387  0.00  0.00    +0.000 C 
ATOM     12  C   UNL     1       2.343   4.051  20.938  0.00  0.00    +0.000 C 
ATOM     13  C   UNL     1       3.239   2.811  20.938  0.00  0.00    +0.000 C 
ATOM     14  C   UNL     1       4.293   2.858  19.834  0.00  0.00    +0.000 C 
ENDBRANCH   6   7
BRANCH   1  15
ATOM     15  C   UNL     1       3.082   6.203  18.623  0.00  0.00    +0.000 C 
BRANCH  15  18
ATOM     16  O   UNL     1       1.813   8.330  20.032  0.00  0.00    +0.000 OA
ATOM     17  C   UNL     1       1.839   8.338  18.804  0.00  0.00    +0.000 C 
ATOM     18  N   UNL     1       2.433   7.368  18.045  0.00  0.00    +0.000 N 
ATOM     19  H   UNL     1       2.401   7.420  17.033  0.00  0.00    +0.000 HD
BRANCH  17  20
ATOM     20  C   UNL     1       1.227   9.451  17.997  0.00  0.00    +0.000 C 
BRANCH  20  21
ATOM     21  C   UNL     1       1.505  10.800  18.648  0.00  0.00    +0.000 C 
BRANCH  21  22
ATOM     22  N   UNL     1       0.327  11.342  19.291  0.00  0.00    +0.000 N 
ATOM     23  C   UNL     1      -0.982  11.243  18.698  0.00  0.00    +0.000 C 
ATOM     24  C   UNL     1      -1.855  11.983  19.690  0.00  0.00    +0.000 C 
ATOM     25  C   UNL     1      -1.197  11.696  21.034  0.00  0.00    +0.000 C 
ATOM     26  C   UNL     1       0.256  11.524  20.670  0.00  0.00    +0.000 C 
ATOM     27  O   UNL     1       1.189  11.459  21.452  0.00  0.00    +0.000 OA
ENDBRANCH  21  22
ENDBRANCH  20  21
ENDBRANCH  17  20
ENDBRANCH  15  18
ENDBRANCH   1  15
TORSDOF 6
ENDMDL
MODEL 2
REMARK VINA RESULT:      -7.9      1.387      1.794
REMARK  Name = 
REMARK  6 active torsions:
REMARK  status: ('A' for Active; 'I' for Inactive)
REMARK    1  A    between atoms: C_2  and  C_3
REMARK    2  A    between atoms: C_3  and  C_4
REMARK    3  A    between atoms: C_4  and  N_5
REMARK    4  A    between atoms: N_11  and  C_12
REMARK    5  A    between atoms: C_12  and  C_13
REMARK    6  A    between atoms: C_18  and  N_19
REMARK                            x       y       z     vdW  Elec       q    Type
REMARK                         _______ _______ _______ _____ _____    ______ ____
ROOT
ATOM      1  C   UNL     1       3.574   5.880  18.134  0.00  0.00    +0.000 A 
ATOM      2  C   UNL     1       4.118   6.932  17.345  0.00  0.00    +0.000 A 
ATOM      3  C   UNL     1       4.966   6.690  16.280  0.00  0.00    +0.000 A 
ATOM      4  C   UNL     1       5.272   5.383  16.031  0.00  0.00    +0.000 A 
ATOM      5  N   UNL     1       4.825   4.360  16.787  0.00  0.00    +0.000 NA
ATOM      6  C   UNL     1       4.000   4.569  17.857  0.00  0.00    +0.000 A 
ENDROOT
BRANCH   6   7
ATOM      7  N   UNL     1       3.725   3.413  18.573  0.00  0.00    +0.000 N 
ATOM      8  C   UNL     1       2.914   2.425  17.842  0.00  0.00    +0.000 C 
ATOM      9  C   UNL     1       1.534   2.142  18.447  0.00  0.00    +0.000 C 
ATOM     10  C   UNL     1       0.808   3.313  19.113  0.00  0.00    +0.000 C 
ATOM     11  C   UNL     1       0.956   3.381  20.635  0.00  0.00    +0.000 C 
ATOM     12  C   UNL     1       2.347   3.695  21.177  0.00  0.00    +0.000 C 
ATOM     13  C   UNL     1       3.380   2.599  20.915  0.00  0.00    +0.000 C 
ATOM     14  C   UNL     1       4.359   2.979  19.806  0.00  0.00    +0.000 C 
ENDBRANCH   6   7
BRANCH   1  15
ATOM     15  C   UNL     1       2.703   6.311  19.288  0.00  0.00    +0.000 C 
BRANCH  15  18
ATOM     16  O   UNL     1       1.126   7.780  21.151  0.00  0.00    +0.000 OA
ATOM     17  C   UNL     1       1.507   8.316  20.114  0.00  0.00    +0.000 C 
ATOM     18  N   UNL     1       2.274   7.694  19.169  0.00  0.00    +0.000 N 
ATOM     19  H   UNL     1       2.539   8.184  18.322  0.00  0.00    +0.000 HD
BRANCH  17  20
ATOM     20  C   UNL     1       1.179   9.747  19.784  0.00  0.00    +0.000 C 
BRANCH  20  21
ATOM     21  C   UNL     1       0.430   9.833  18.460  0.00  0.00    +0.000 C 
BRANCH  21  22
ATOM     22  N   UNL     1      -0.834  10.523  18.599  0.00  0.00    +0.000 N 
ATOM     23  C   UNL     1      -0.963  11.739  19.362  0.00  0.00    +0.000 C 
ATOM     24  C   UNL     1      -2.443  12.042  19.260  0.00  0.00    +0.000 C 
ATOM     25  C   UNL     1      -2.822  11.530  17.876  0.00  0.00    +0.000 C 
ATOM     26  C   UNL     1      -1.853  10.396  17.657  0.00  0.00    +0.000 C 
ATOM     27  O   UNL     1      -1.900   9.574  16.758  0.00  0.00    +0.000 OA
ENDBRANCH  21  22
ENDBRANCH  20  21
ENDBRANCH  17  20
ENDBRANCH  15  18
ENDBRANCH   1  15
TORSDOF 6
ENDMDL
MODEL 3
REMARK VINA RESULT:      -7.8      1.780      4.032
REMARK  Name = 
REMARK  6 active torsions:
REMARK  status: ('A' for Active; 'I' for Inactive)
REMARK    1  A    between atoms: C_2  and  C_3
REMARK    2  A    between atoms: C_3  and  C_4
REMARK    3  A    between atoms: C_4  and  N_5
REMARK    4  A    between atoms: N_11  and  C_12
REMARK    5  A    between atoms: C_12  and  C_13
REMARK    6  A    between atoms: C_18  and  N_19
REMARK                            x       y       z     vdW  Elec       q    Type
REMARK                         _______ _______ _______ _____ _____    ______ ____
ROOT
ATOM      1  C   UNL     1       2.953   5.688  19.387  0.00  0.00    +0.000 A 
ATOM      2  C   UNL     1       1.933   5.573  20.372  0.00  0.00    +0.000 A 
ATOM      3  C   UNL     1       1.704   4.397  21.060  0.00  0.00    +0.000 A 
ATOM      4  C   UNL     1       2.500   3.337  20.735  0.00  0.00    +0.000 A 
ATOM      5  N   UNL     1       3.440   3.385  19.769  0.00  0.00    +0.000 NA
ATOM      6  C   UNL     1       3.677   4.528  19.058  0.00  0.00    +0.000 A 
ENDROOT
BRANCH   6   7
ATOM      7  N   UNL     1       4.607   4.362  18.042  0.00  0.00    +0.000 N 
ATOM      8  C   UNL     1       5.936   3.927  18.502  0.00  0.00    +0.000 C 
ATOM      9  C   UNL     1       7.070   4.928  18.252  0.00  0.00    +0.000 C 
ATOM     10  C   UNL     1       6.726   6.415  18.359  0.00  0.00    +0.000 C 
ATOM     11  C   UNL     1       6.435   7.108  17.025  0.00  0.00    +0.000 C 
ATOM     12  C   UNL     1       5.169   6.679  16.290  0.00  0.00    +0.000 C 
ATOM     13  C   UNL     1       5.205   5.239  15.775  0.00  0.00    +0.000 C 
ATOM     14  C   UNL     1       4.338   4.303  16.615  0.00  0.00    +0.000 C 
ENDBRANCH   6   7
BRANCH   1  15
ATOM     15  C   UNL     1       3.045   7.024  18.691  0.00  0.00    +0.000 C 
BRANCH  15  18
ATOM     16  O   UNL     1       2.068   9.286  17.261  0.00  0.00    +0.000 OA
ATOM     17  C   UNL     1       1.598   9.008  18.361  0.00  0.00    +0.000 C 
ATOM     18  N   UNL     1       1.997   7.938  19.114  0.00  0.00    +0.000 N 
ATOM     19  H   UNL     1       1.585   7.773  20.026  0.00  0.00    +0.000 HD
BRANCH  17  20
ATOM     20  C   UNL     1       0.500   9.819  18.992  0.00  0.00    +0.000 C 
BRANCH  20  21
ATOM     21  C   UNL     1       1.074  10.793  20.015  0.00  0.00    +0.000 C 
BRANCH  21  22
ATOM     22  N   UNL     1       0.435  10.659  21.306  0.00  0.00    +0.000 N 
ATOM     23  C   UNL     1      -0.839  11.267  21.596  0.00  0.00    +0.000 C 
ATOM     24  C   UNL     1      -1.061  10.900  23.049  0.00  0.00    +0.000 C 
ATOM     25  C   UNL     1      -0.405   9.531  23.180  0.00  0.00    +0.000 C 
ATOM     26  C   UNL     1       0.697   9.584  22.152  0.00  0.00    +0.000 C 
ATOM     27  O   UNL     1       1.601   8.775  22.026  0.00  0.00    +0.000 OA
ENDBRANCH  21  22
ENDBRANCH  20  21
ENDBRANCH  17  20
ENDBRANCH  15  18
ENDBRANCH   1  15
TORSDOF 6
ENDMDL
MODEL 4
REMARK VINA RESULT:      -7.8      4.642      6.069
REMARK  Name = 
REMARK  6 active torsions:
REMARK  status: ('A' for Active; 'I' for Inactive)
REMARK    1  A    between atoms: C_2  and  C_3
REMARK    2  A    between atoms: C_3  and  C_4
REMARK    3  A    between atoms: C_4  and  N_5
REMARK    4  A    between atoms: N_11  and  C_12
REMARK    5  A    between atoms: C_12  and  C_13
REMARK    6  A    between atoms: C_18  and  N_19
REMARK                            x       y       z     vdW  Elec       q    Type
REMARK                         _______ _______ _______ _____ _____    ______ ____
ROOT
ATOM      1  C   UNL     1       4.454   6.585  17.560  0.00  0.00    +0.000 A 
ATOM      2  C   UNL     1       3.875   7.869  17.358  0.00  0.00    +0.000 A 
ATOM      3  C   UNL     1       2.601   8.179  17.798  0.00  0.00    +0.000 A 
ATOM      4  C   UNL     1       1.915   7.180  18.426  0.00  0.00    +0.000 A 
ATOM      5  N   UNL     1       2.403   5.934  18.589  0.00  0.00    +0.000 NA
ATOM      6  C   UNL     1       3.651   5.591  18.148  0.00  0.00    +0.000 A 
ENDROOT
BRANCH   6   7
ATOM      7  N   UNL     1       3.943   4.246  18.312  0.00  0.00    +0.000 N 
ATOM      8  C   UNL     1       3.503   3.389  17.198  0.00  0.00    +0.000 C 
ATOM      9  C   UNL     1       2.431   2.353  17.560  0.00  0.00    +0.000 C 
ATOM     10  C   UNL     1       1.391   2.759  18.606  0.00  0.00    +0.000 C 
ATOM     11  C   UNL     1       1.685   2.276  20.029  0.00  0.00    +0.000 C 
ATOM     12  C   UNL     1       2.895   2.890  20.726  0.00  0.00    +0.000 C 
ATOM     13  C   UNL     1       4.236   2.512  20.094  0.00  0.00    +0.000 C 
ATOM     14  C   UNL     1       4.843   3.662  19.293  0.00  0.00    +0.000 C 
ENDBRANCH   6   7
BRANCH   1  15
ATOM     15  C   UNL     1       5.833   6.390  16.980  0.00  0.00    +0.000 C 
BRANCH  15  18
ATOM     16  O   UNL     1       8.090   6.856  18.656  0.00  0.00    +0.000 OA
ATOM     17  C   UNL     1       7.701   7.737  17.894  0.00  0.00    +0.000 C 
ATOM     18  N   UNL     1       6.635   7.600  17.047  0.00  0.00    +0.000 N 
ATOM     19  H   UNL     1       6.349   8.374  16.457  0.00  0.00    +0.000 HD
BRANCH  17  20
ATOM     20  C   UNL     1       8.384   9.074  17.798  0.00  0.00    +0.000 C 
BRANCH  20  21
ATOM     21  C   UNL     1       8.975   9.471  19.146  0.00  0.00    +0.000 C 
BRANCH  21  22
ATOM     22  N   UNL     1       9.681  10.732  19.075  0.00  0.00    +0.000 N 
ATOM     23  C   UNL     1      10.113  11.298  17.823  0.00  0.00    +0.000 C 
ATOM     24  C   UNL     1      10.832  12.559  18.256  0.00  0.00    +0.000 C 
ATOM     25  C   UNL     1      10.064  13.005  19.494  0.00  0.00    +0.000 C 
ATOM     26  C   UNL     1       9.555  11.705  20.064  0.00  0.00    +0.000 C 
ATOM     27  O   UNL     1       9.039  11.554  21.158  0.00  0.00    +0.000 OA
ENDBRANCH  21  22
ENDBRANCH  20  21
ENDBRANCH  17  20
ENDBRANCH  15  18
ENDBRANCH   1  15
TORSDOF 6
ENDMDL
MODEL 5
REMARK VINA RESULT:      -7.8      1.125      1.376
REMARK  Name = 
REMARK  6 active torsions:
REMARK  status: ('A' for Active; 'I' for Inactive)
REMARK    1  A    between atoms: C_2  and  C_3
REMARK    2  A    between atoms: C_3  and  C_4
REMARK    3  A    between atoms: C_4  and  N_5
REMARK    4  A    between atoms: N_11  and  C_12
REMARK    5  A    between atoms: C_12  and  C_13
REMARK    6  A    between atoms: C_18  and  N_19
REMARK                            x       y       z     vdW  Elec       q    Type
REMARK                         _______ _______ _______ _____ _____    ______ ____
ROOT
ATOM      1  C   UNL     1       4.134   5.475  17.467  0.00  0.00    +0.000 A 
ATOM      2  C   UNL     1       4.837   6.231  16.488  0.00  0.00    +0.000 A 
ATOM      3  C   UNL     1       5.610   5.631  15.512  0.00  0.00    +0.000 A 
ATOM      4  C   UNL     1       5.680   4.268  15.542  0.00  0.00    +0.000 A 
ATOM      5  N   UNL     1       5.076   3.516  16.485  0.00  0.00    +0.000 NA
ATOM      6  C   UNL     1       4.321   4.081  17.475  0.00  0.00    +0.000 A 
ENDROOT
BRANCH   6   7
ATOM      7  N   UNL     1       3.862   3.164  18.408  0.00  0.00    +0.000 N 
ATOM      8  C   UNL     1       2.991   2.115  17.851  0.00  0.00    +0.000 C 
ATOM      9  C   UNL     1       1.549   2.124  18.374  0.00  0.00    +0.000 C 
ATOM     10  C   UNL     1       0.924   3.486  18.681  0.00  0.00    +0.000 C 
ATOM     11  C   UNL     1       0.976   3.902  20.154  0.00  0.00    +0.000 C 
ATOM     12  C   UNL     1       2.355   4.197  20.737  0.00  0.00    +0.000 C 
ATOM     13  C   UNL     1       3.266   2.971  20.832  0.00  0.00    +0.000 C 
ATOM     14  C   UNL     1       4.356   2.976  19.762  0.00  0.00    +0.000 C 
ENDBRANCH   6   7
BRANCH   1  15
ATOM     15  C   UNL     1       3.373   6.279  18.493  0.00  0.00    +0.000 C 
BRANCH  15  18
ATOM     16  O   UNL     1       1.757   8.199  19.842  0.00  0.00    +0.000 OA
ATOM     17  C   UNL     1       2.056   8.370  18.664  0.00  0.00    +0.000 C 
ATOM     18  N   UNL     1       2.834   7.509  17.939  0.00  0.00    +0.000 N 
ATOM     19  H   UNL     1       3.027   7.695  16.961  0.00  0.00    +0.000 HD
BRANCH  17  20
ATOM     20  C   UNL     1       1.606   9.579  17.889  0.00  0.00    +0.000 C 
BRANCH  20  21
ATOM     21  C   UNL     1       0.248  10.059  18.389  0.00  0.00    +0.000 C 
BRANCH  21  22
ATOM     22  N   UNL     1       0.309  11.413  18.896  0.00  0.00    +0.000 N 
ATOM     23  C   UNL     1       1.478  12.240  18.735  0.00  0.00    +0.000 C 
ATOM     24  C   UNL     1       1.090  13.513  19.457  0.00  0.00    +0.000 C 
ATOM     25  C   UNL     1      -0.412  13.619  19.221  0.00  0.00    +0.000 C 
ATOM     26  C   UNL     1      -0.838  12.177  19.099  0.00  0.00    +0.000 C 
ATOM     27  O   UNL     1      -1.986  11.767  19.084  0.00  0.00    +0.000 OA
ENDBRANCH  21  22
ENDBRANCH  20  21
ENDBRANCH  17  20
ENDBRANCH  15  18
ENDBRANCH   1  15
TORSDOF 6
ENDMDL
MODEL 6
REMARK VINA RESULT:      -7.7      1.645      2.027
REMARK  Name = 
REMARK  6 active torsions:
REMARK  status: ('A' for Active; 'I' for Inactive)
REMARK    1  A    between atoms: C_2  and  C_3
REMARK    2  A    between atoms: C_3  and  C_4
REMARK    3  A    between atoms: C_4  and  N_5
REMARK    4  A    between atoms: N_11  and  C_12
REMARK    5  A    between atoms: C_12  and  C_13
REMARK    6  A    between atoms: C_18  and  N_19
REMARK                            x       y       z     vdW  Elec       q    Type
REMARK                         _______ _______ _______ _____ _____    ______ ____
ROOT
ATOM      1  C   UNL     1       3.968   5.919  18.240  0.00  0.00    +0.000 A 
ATOM      2  C   UNL     1       4.864   6.825  17.605  0.00  0.00    +0.000 A 
ATOM      3  C   UNL     1       6.231   6.623  17.597  0.00  0.00    +0.000 A 
ATOM      4  C   UNL     1       6.686   5.513  18.248  0.00  0.00    +0.000 A 
ATOM      5  N   UNL     1       5.879   4.659  18.910  0.00  0.00    +0.000 NA
ATOM      6  C   UNL     1       4.524   4.842  18.952  0.00  0.00    +0.000 A 
ENDROOT
BRANCH   6   7
ATOM      7  N   UNL     1       3.870   3.924  19.760  0.00  0.00    +0.000 N 
ATOM      8  C   UNL     1       4.308   2.530  19.573  0.00  0.00    +0.000 C 
ATOM      9  C   UNL     1       3.232   1.579  19.034  0.00  0.00    +0.000 C 
ATOM     10  C   UNL     1       2.226   2.155  18.035  0.00  0.00    +0.000 C 
ATOM     11  C   UNL     1       0.889   2.587  18.643  0.00  0.00    +0.000 C 
ATOM     12  C   UNL     1       0.919   3.786  19.586  0.00  0.00    +0.000 C 
ATOM     13  C   UNL     1       1.672   3.534  20.893  0.00  0.00    +0.000 C 
ATOM     14  C   UNL     1       3.038   4.217  20.915  0.00  0.00    +0.000 C 
ENDBRANCH   6   7
BRANCH   1  15
ATOM     15  C   UNL     1       2.510   6.305  18.201  0.00  0.00    +0.000 C 
BRANCH  15  18
ATOM     16  O   UNL     1       1.812   8.883  17.208  0.00  0.00    +0.000 OA
ATOM     17  C   UNL     1       1.915   8.700  18.417  0.00  0.00    +0.000 C 
ATOM     18  N   UNL     1       2.234   7.497  18.985  0.00  0.00    +0.000 N 
ATOM     19  H   UNL     1       2.325   7.415  19.991  0.00  0.00    +0.000 HD
BRANCH  17  20
ATOM     20  C   UNL     1       1.672   9.797  19.417  0.00  0.00    +0.000 C 
BRANCH  20  21
ATOM     21  C   UNL     1       0.979   9.247  20.658  0.00  0.00    +0.000 C 
BRANCH  21  22
ATOM     22  N   UNL     1       0.167  10.250  21.312  0.00  0.00    +0.000 N 
ATOM     23  C   UNL     1      -0.848  10.993  20.609  0.00  0.00    +0.000 C 
ATOM     24  C   UNL     1      -1.373  11.934  21.672  0.00  0.00    +0.000 C 
ATOM     25  C   UNL     1      -1.248  11.128  22.960  0.00  0.00    +0.000 C 
ATOM     26  C   UNL     1      -0.069  10.230  22.685  0.00  0.00    +0.000 C 
ATOM     27  O   UNL     1       0.511   9.535  23.503  0.00  0.00    +0.000 OA
ENDBRANCH  21  22
ENDBRANCH  20  21
ENDBRANCH  17  20
ENDBRANCH  15  18
ENDBRANCH   1  15
TORSDOF 6
ENDMDL
MODEL 7
REMARK VINA RESULT:      -7.7      1.259      1.591
REMARK  Name = 
REMARK  6 active torsions:
REMARK  status: ('A' for Active; 'I' for Inactive)
REMARK    1  A    between atoms: C_2  and  C_3
REMARK    2  A    between atoms: C_3  and  C_4
REMARK    3  A    between atoms: C_4  and  N_5
REMARK    4  A    between atoms: N_11  and  C_12
REMARK    5  A    between atoms: C_12  and  C_13
REMARK    6  A    between atoms: C_18  and  N_19
REMARK                            x       y       z     vdW  Elec       q    Type
REMARK                         _______ _______ _______ _____ _____    ______ ____
ROOT
ATOM      1  C   UNL     1       3.597   5.855  18.222  0.00  0.00    +0.000 A 
ATOM      2  C   UNL     1       4.143   6.926  17.461  0.00  0.00    +0.000 A 
ATOM      3  C   UNL     1       4.987   6.711  16.388  0.00  0.00    +0.000 A 
ATOM      4  C   UNL     1       5.286   5.411  16.101  0.00  0.00    +0.000 A 
ATOM      5  N   UNL     1       4.837   4.368  16.830  0.00  0.00    +0.000 NA
ATOM      6  C   UNL     1       4.016   4.550  17.908  0.00  0.00    +0.000 A 
ENDROOT
BRANCH   6   7
ATOM      7  N   UNL     1       3.738   3.376  18.592  0.00  0.00    +0.000 N 
ATOM      8  C   UNL     1       2.914   2.416  17.839  0.00  0.00    +0.000 C 
ATOM      9  C   UNL     1       1.537   2.125  18.449  0.00  0.00    +0.000 C 
ATOM     10  C   UNL     1       0.826   3.282  19.154  0.00  0.00    +0.000 C 
ATOM     11  C   UNL     1       0.987   3.304  20.677  0.00  0.00    +0.000 C 
ATOM     12  C   UNL     1       2.385   3.592  21.216  0.00  0.00    +0.000 C 
ATOM     13  C   UNL     1       3.408   2.496  20.912  0.00  0.00    +0.000 C 
ATOM     14  C   UNL     1       4.380   2.901  19.807  0.00  0.00    +0.000 C 
ENDBRANCH   6   7
BRANCH   1  15
ATOM     15  C   UNL     1       2.731   6.257  19.391  0.00  0.00    +0.000 C 
BRANCH  15  18
ATOM     16  O   UNL     1       1.181   7.690  21.305  0.00  0.00    +0.000 OA
ATOM     17  C   UNL     1       1.513   8.233  20.255  0.00  0.00    +0.000 C 
ATOM     18  N   UNL     1       2.263   7.628  19.284  0.00  0.00    +0.000 N 
ATOM     19  H   UNL     1       2.486   8.123  18.428  0.00  0.00    +0.000 HD
BRANCH  17  20
ATOM     20  C   UNL     1       1.137   9.654  19.934  0.00  0.00    +0.000 C 
BRANCH  20  21
ATOM     21  C   UNL     1      -0.373   9.841  20.016  0.00  0.00    +0.000 C 
BRANCH  21  22
ATOM     22  N   UNL     1      -0.739  10.872  20.963  0.00  0.00    +0.000 N 
ATOM     23  C   UNL     1      -0.651  10.671  22.387  0.00  0.00    +0.000 C 
ATOM     24  C   UNL     1      -1.177  11.978  22.943  0.00  0.00    +0.000 C 
ATOM     25  C   UNL     1      -0.730  13.012  21.917  0.00  0.00    +0.000 C 
ATOM     26  C   UNL     1      -0.705  12.225  20.631  0.00  0.00    +0.000 C 
ATOM     27  O   UNL     1      -0.578  12.686  19.509  0.00  0.00    +0.000 OA
ENDBRANCH  21  22
ENDBRANCH  20  21
ENDBRANCH  17  20
ENDBRANCH  15  18
ENDBRANCH   1  15
TORSDOF 6
ENDMDL
MODEL 8
REMARK VINA RESULT:      -7.7      0.881      1.160
REMARK  Name = 
REMARK  6 active torsions:
REMARK  status: ('A' for Active; 'I' for Inactive)
REMARK    1  A    between atoms: C_2  and  C_3
REMARK    2  A    between atoms: C_3  and  C_4
REMARK    3  A    between atoms: C_4  and  N_5
REMARK    4  A    between atoms: N_11  and  C_12
REMARK    5  A    between atoms: C_12  and  C_13
REMARK    6  A    between atoms: C_18  and  N_19
REMARK                            x       y       z     vdW  Elec       q    Type
REMARK                         _______ _______ _______ _____ _____    ______ ____
ROOT
ATOM      1  C   UNL     1       4.142   5.514  17.530  0.00  0.00    +0.000 A 
ATOM      2  C   UNL     1       4.844   6.273  16.552  0.00  0.00    +0.000 A 
ATOM      3  C   UNL     1       5.560   5.675  15.532  0.00  0.00    +0.000 A 
ATOM      4  C   UNL     1       5.574   4.310  15.518  0.00  0.00    +0.000 A 
ATOM      5  N   UNL     1       4.971   3.552  16.456  0.00  0.00    +0.000 NA
ATOM      6  C   UNL     1       4.271   4.115  17.488  0.00  0.00    +0.000 A 
ENDROOT
BRANCH   6   7
ATOM      7  N   UNL     1       3.805   3.186  18.407  0.00  0.00    +0.000 N 
ATOM      8  C   UNL     1       2.879   2.188  17.845  0.00  0.00    +0.000 C 
ATOM      9  C   UNL     1       1.455   2.234  18.411  0.00  0.00    +0.000 C 
ATOM     10  C   UNL     1       0.891   3.608  18.778  0.00  0.00    +0.000 C 
ATOM     11  C   UNL     1       1.001   3.976  20.260  0.00  0.00    +0.000 C 
ATOM     12  C   UNL     1       2.407   4.201  20.809  0.00  0.00    +0.000 C 
ATOM     13  C   UNL     1       3.273   2.941  20.840  0.00  0.00    +0.000 C 
ATOM     14  C   UNL     1       4.331   2.938  19.739  0.00  0.00    +0.000 C 
ENDBRANCH   6   7
BRANCH   1  15
ATOM     15  C   UNL     1       3.448   6.314  18.606  0.00  0.00    +0.000 C 
BRANCH  15  18
ATOM     16  O   UNL     1       1.780   8.116  20.049  0.00  0.00    +0.000 OA
ATOM     17  C   UNL     1       1.901   8.234  18.834  0.00  0.00    +0.000 C 
ATOM     18  N   UNL     1       2.686   7.424  18.060  0.00  0.00    +0.000 N 
ATOM     19  H   UNL     1       2.727   7.560  17.056  0.00  0.00    +0.000 HD
BRANCH  17  20
ATOM     20  C   UNL     1       1.200   9.318  18.060  0.00  0.00    +0.000 C 
BRANCH  20  21
ATOM     21  C   UNL     1       1.432  10.677  18.712  0.00  0.00    +0.000 C 
BRANCH  21  22
ATOM     22  N   UNL     1       0.368  11.023  19.629  0.00  0.00    +0.000 N 
ATOM     23  C   UNL     1       0.598  11.184  21.043  0.00  0.00    +0.000 C 
ATOM     24  C   UNL     1      -0.788  11.483  21.575  0.00  0.00    +0.000 C 
ATOM     25  C   UNL     1      -1.451  12.256  20.441  0.00  0.00    +0.000 C 
ATOM     26  C   UNL     1      -0.775  11.702  19.213  0.00  0.00    +0.000 C 
ATOM     27  O   UNL     1      -1.113  11.896  18.057  0.00  0.00    +0.000 OA
ENDBRANCH  21  22
ENDBRANCH  20  21
ENDBRANCH  17  20
ENDBRANCH  15  18
ENDBRANCH   1  15
TORSDOF 6
ENDMDL
MODEL 9
REMARK VINA RESULT:      -7.6      1.210      1.349
REMARK  Name = 
REMARK  6 active torsions:
REMARK  status: ('A' for Active; 'I' for Inactive)
REMARK    1  A    between atoms: C_2  and  C_3
REMARK    2  A    between atoms: C_3  and  C_4
REMARK    3  A    between atoms: C_4  and  N_5
REMARK    4  A    between atoms: N_11  and  C_12
REMARK    5  A    between atoms: C_12  and  C_13
REMARK    6  A    between atoms: C_18  and  N_19
REMARK                            x       y       z     vdW  Elec       q    Type
REMARK                         _______ _______ _______ _____ _____    ______ ____
ROOT
ATOM      1  C   UNL     1       3.628   5.779  18.241  0.00  0.00    +0.000 A 
ATOM      2  C   UNL     1       4.164   6.843  17.464  0.00  0.00    +0.000 A 
ATOM      3  C   UNL     1       4.907   6.617  16.320  0.00  0.00    +0.000 A 
ATOM      4  C   UNL     1       5.117   5.312  15.979  0.00  0.00    +0.000 A 
ATOM      5  N   UNL     1       4.676   4.273  16.717  0.00  0.00    +0.000 NA
ATOM      6  C   UNL     1       3.955   4.465  17.863  0.00  0.00    +0.000 A 
ENDROOT
BRANCH   6   7
ATOM      7  N   UNL     1       3.673   3.287  18.539  0.00  0.00    +0.000 N 
ATOM      8  C   UNL     1       2.761   2.379  17.823  0.00  0.00    +0.000 C 
ATOM      9  C   UNL     1       1.417   2.129  18.516  0.00  0.00    +0.000 C 
ATOM     10  C   UNL     1       0.803   3.296  19.293  0.00  0.00    +0.000 C 
ATOM     11  C   UNL     1       1.065   3.276  20.801  0.00  0.00    +0.000 C 
ATOM     12  C   UNL     1       2.507   3.495  21.251  0.00  0.00    +0.000 C 
ATOM     13  C   UNL     1       3.460   2.366  20.857  0.00  0.00    +0.000 C 
ATOM     14  C   UNL     1       4.374   2.758  19.697  0.00  0.00    +0.000 C 
ENDBRANCH   6   7
BRANCH   1  15
ATOM     15  C   UNL     1       2.880   6.189  19.486  0.00  0.00    +0.000 C 
BRANCH  15  18
ATOM     16  O   UNL     1       1.027   7.448  21.245  0.00  0.00    +0.000 OA
ATOM     17  C   UNL     1       1.499   8.077  20.303  0.00  0.00    +0.000 C 
ATOM     18  N   UNL     1       2.401   7.559  19.414  0.00  0.00    +0.000 N 
ATOM     19  H   UNL     1       2.738   8.123  18.642  0.00  0.00    +0.000 HD
BRANCH  17  20
ATOM     20  C   UNL     1       1.143   9.514  20.038  0.00  0.00    +0.000 C 
BRANCH  20  21
ATOM     21  C   UNL     1       0.920   9.745  18.548  0.00  0.00    +0.000 C 
BRANCH  21  22
ATOM     22  N   UNL     1      -0.228  10.589  18.298  0.00  0.00    +0.000 N 
ATOM     23  C   UNL     1      -1.566  10.059  18.220  0.00  0.00    +0.000 C 
ATOM     24  C   UNL     1      -2.393  11.286  17.898  0.00  0.00    +0.000 C 
ATOM     25  C   UNL     1      -1.663  12.413  18.619  0.00  0.00    +0.000 C 
ATOM     26  C   UNL     1      -0.229  11.946  18.613  0.00  0.00    +0.000 C 
ATOM     27  O   UNL     1       0.744  12.612  18.922  0.00  0.00    +0.000 OA
ENDBRANCH  21  22
ENDBRANCH  20  21
ENDBRANCH  17  20
ENDBRANCH  15  18
ENDBRANCH   1  15
TORSDOF 6
ENDMDL
