MODEL 1
REMARK VINA RESULT:      -8.7      0.000      0.000
REMARK  Name = 
REMARK  9 active torsions:
REMARK  status: ('A' for Active; 'I' for Inactive)
REMARK    1  A    between atoms: C_1  and  N_2
REMARK    2  A    between atoms: N_2  and  C_32
REMARK    3  A    between atoms: C_3  and  C_5
REMARK    4  A    between atoms: C_9  and  N_10
REMARK    5  A    between atoms: C_15  and  C_16
REMARK    6  A    between atoms: C_18  and  C_19
REMARK    7  A    between atoms: C_19  and  C_20
REMARK    8  A    between atoms: C_19  and  C_21
REMARK    9  A    between atoms: C_19  and  C_22
REMARK                            x       y       z     vdW  Elec       q    Type
REMARK                         _______ _______ _______ _____ _____    ______ ____
ROOT
ATOM      1  C   UNL     1       0.992   8.996  20.582  0.00  0.00    +0.000 A 
ATOM      2  C   UNL     1       0.354   9.252  21.791  0.00  0.00    +0.000 A 
ATOM      3  C   UNL     1      -0.023  10.621  21.827  0.00  0.00    +0.000 A 
ATOM      4  C   UNL     1      -0.611  11.463  22.792  0.00  0.00    +0.000 A 
ATOM      5  C   UNL     1      -0.765  12.837  22.528  0.00  0.00    +0.000 A 
ATOM      6  C   UNL     1      -0.377  13.318  21.270  0.00  0.00    +0.000 A 
ATOM      7  C   UNL     1       0.191  12.505  20.288  0.00  0.00    +0.000 A 
ATOM      8  C   UNL     1       0.341  11.161  20.600  0.00  0.00    +0.000 A 
ATOM      9  N   UNL     1       0.802  10.128  19.826  0.00  0.00    +0.000 N 
ATOM     10  H   UNL     1       1.045  10.230  18.852  0.00  0.00    +0.000 HD
ENDROOT
BRANCH   5  11
ATOM     11  N   UNL     1      -1.315  13.665  23.526  0.00  0.00    +0.000 N 
ATOM     12  C   UNL     1      -2.649  14.027  23.718  0.00  0.00    +0.000 A 
ATOM     13  N   UNL     1      -2.885  15.197  24.328  0.00  0.00    +0.000 NA
ATOM     14  C   UNL     1      -4.170  15.615  24.346  0.00  0.00    +0.000 A 
ATOM     15  C   UNL     1      -5.211  14.925  23.775  0.00  0.00    +0.000 A 
ATOM     16  C   UNL     1      -4.887  13.719  23.212  0.00  0.00    +0.000 A 
ATOM     17  N   UNL     1      -3.619  13.260  23.221  0.00  0.00    +0.000 NA
ATOM     18  H   UNL     1      -0.739  14.443  23.820  0.00  0.00    +0.000 HD
BRANCH  16  19
ATOM     19  C   UNL     1      -5.852  12.856  22.506  0.00  0.00    +0.000 A 
ATOM     20  C   UNL     1      -5.679  12.502  21.163  0.00  0.00    +0.000 A 
ATOM     21  C   UNL     1      -6.642  11.754  20.475  0.00  0.00    +0.000 A 
ATOM     22  C   UNL     1      -7.769  11.372  21.210  0.00  0.00    +0.000 A 
ATOM     23  C   UNL     1      -7.879  11.756  22.541  0.00  0.00    +0.000 A 
ATOM     24  N   UNL     1      -6.949  12.473  23.201  0.00  0.00    +0.000 NA
BRANCH  21  25
ATOM     25  C   UNL     1      -6.450  11.421  18.990  0.00  0.00    +0.000 C 
ATOM     26  C   UNL     1      -6.880   9.962  18.725  0.00  0.00    +0.000 C 
ATOM     27  C   UNL     1      -7.271  12.331  18.047  0.00  0.00    +0.000 C 
BRANCH  25  28
ATOM     28  C   UNL     1      -5.016  11.575  18.605  0.00  0.00    +0.000 C 
ATOM     29  N   UNL     1      -3.893  11.687  18.320  0.00  0.00    +0.000 NA
ENDBRANCH  25  28
ENDBRANCH  21  25
ENDBRANCH  16  19
ENDBRANCH   5  11
BRANCH   1  32
ATOM     30  C   UNL     1       2.348   8.744  17.925  0.00  0.00    +0.000 C 
ATOM     31  N   UNL     1       2.221   7.657  18.897  0.00  0.00    +0.000 N 
ATOM     32  C   UNL     1       1.637   7.760  20.176  0.00  0.00    +0.000 C 
ATOM     33  O   UNL     1       1.704   6.817  20.965  0.00  0.00    +0.000 OA
BRANCH  31  34
ATOM     34  C   UNL     1       2.991   6.419  18.604  0.00  0.00    +0.000 C 
ATOM     35  C   UNL     1       4.195   6.712  17.688  0.00  0.00    +0.000 C 
ATOM     36  C   UNL     1       4.900   5.424  17.279  0.00  0.00    +0.000 C 
ATOM     37  O   UNL     1       3.980   4.507  16.689  0.00  0.00    +0.000 OA
ATOM     38  C   UNL     1       2.968   4.102  17.609  0.00  0.00    +0.000 C 
ATOM     39  C   UNL     1       2.125   5.297  18.016  0.00  0.00    +0.000 C 
ENDBRANCH  31  34
ENDBRANCH   1  32
TORSDOF 6
ENDMDL
MODEL 2
REMARK VINA RESULT:      -8.7      5.932     10.652
REMARK  Name = 
REMARK  9 active torsions:
REMARK  status: ('A' for Active; 'I' for Inactive)
REMARK    1  A    between atoms: C_1  and  N_2
REMARK    2  A    between atoms: N_2  and  C_32
REMARK    3  A    between atoms: C_3  and  C_5
REMARK    4  A    between atoms: C_9  and  N_10
REMARK    5  A    between atoms: C_15  and  C_16
REMARK    6  A    between atoms: C_18  and  C_19
REMARK    7  A    between atoms: C_19  and  C_20
REMARK    8  A    between atoms: C_19  and  C_21
REMARK    9  A    between atoms: C_19  and  C_22
REMARK                            x       y       z     vdW  Elec       q    Type
REMARK                         _______ _______ _______ _____ _____    ______ ____
ROOT
ATOM      1  C   UNL     1       9.208  10.278  18.355  0.00  0.00    +0.000 A 
ATOM      2  C   UNL     1       8.177   9.961  17.477  0.00  0.00    +0.000 A 
ATOM      3  C   UNL     1       7.778   8.617  17.708  0.00  0.00    +0.000 A 
ATOM      4  C   UNL     1       6.866   7.734  17.097  0.00  0.00    +0.000 A 
ATOM      5  C   UNL     1       6.782   6.397  17.530  0.00  0.00    +0.000 A 
ATOM      6  C   UNL     1       7.579   5.999  18.613  0.00  0.00    +0.000 A 
ATOM      7  C   UNL     1       8.477   6.857  19.250  0.00  0.00    +0.000 A 
ATOM      8  C   UNL     1       8.540   8.159  18.776  0.00  0.00    +0.000 A 
ATOM      9  N   UNL     1       9.270   9.224  19.235  0.00  0.00    +0.000 N 
ATOM     10  H   UNL     1       9.840   9.189  20.067  0.00  0.00    +0.000 HD
ENDROOT
BRANCH   5  11
ATOM     11  N   UNL     1       5.894   5.523  16.873  0.00  0.00    +0.000 N 
ATOM     12  C   UNL     1       4.556   5.260  17.168  0.00  0.00    +0.000 A 
ATOM     13  N   UNL     1       4.075   4.058  16.816  0.00  0.00    +0.000 NA
ATOM     14  C   UNL     1       2.837   3.753  17.265  0.00  0.00    +0.000 A 
ATOM     15  C   UNL     1       2.079   4.585  18.051  0.00  0.00    +0.000 A 
ATOM     16  C   UNL     1       2.627   5.809  18.325  0.00  0.00    +0.000 A 
ATOM     17  N   UNL     1       3.843   6.154  17.851  0.00  0.00    +0.000 NA
ATOM     18  H   UNL     1       6.303   4.672  16.508  0.00  0.00    +0.000 HD
BRANCH  16  19
ATOM     19  C   UNL     1       1.993   6.820  19.191  0.00  0.00    +0.000 A 
ATOM     20  C   UNL     1       1.749   8.124  18.745  0.00  0.00    +0.000 A 
ATOM     21  C   UNL     1       1.226   9.102  19.600  0.00  0.00    +0.000 A 
ATOM     22  C   UNL     1       0.950   8.696  20.909  0.00  0.00    +0.000 A 
ATOM     23  C   UNL     1       1.216   7.386  21.287  0.00  0.00    +0.000 A 
ATOM     24  N   UNL     1       1.715   6.445  20.462  0.00  0.00    +0.000 NA
BRANCH  21  25
ATOM     25  C   UNL     1       1.013  10.536  19.098  0.00  0.00    +0.000 C 
ATOM     26  C   UNL     1       2.080  10.878  18.036  0.00  0.00    +0.000 C 
ATOM     27  C   UNL     1      -0.377  10.760  18.456  0.00  0.00    +0.000 C 
BRANCH  25  28
ATOM     28  C   UNL     1       1.133  11.505  20.227  0.00  0.00    +0.000 C 
ATOM     29  N   UNL     1       1.211  12.253  21.115  0.00  0.00    +0.000 NA
ENDBRANCH  25  28
ENDBRANCH  21  25
ENDBRANCH  16  19
ENDBRANCH   5  11
BRANCH   1  32
ATOM     30  C   UNL     1       8.070  12.875  17.395  0.00  0.00    +0.000 C 
ATOM     31  N   UNL     1       9.439  12.700  17.881  0.00  0.00    +0.000 N 
ATOM     32  C   UNL     1       9.985  11.504  18.388  0.00  0.00    +0.000 C 
ATOM     33  O   UNL     1      11.108  11.502  18.895  0.00  0.00    +0.000 OA
BRANCH  31  34
ATOM     34  C   UNL     1      10.230  13.942  18.081  0.00  0.00    +0.000 C 
ATOM     35  C   UNL     1       9.316  15.147  18.380  0.00  0.00    +0.000 C 
ATOM     36  C   UNL     1      10.118  16.441  18.448  0.00  0.00    +0.000 C 
ATOM     37  O   UNL     1      10.887  16.625  17.261  0.00  0.00    +0.000 OA
ATOM     38  C   UNL     1      11.857  15.595  17.089  0.00  0.00    +0.000 C 
ATOM     39  C   UNL     1      11.168  14.255  16.907  0.00  0.00    +0.000 C 
ENDBRANCH  31  34
ENDBRANCH   1  32
TORSDOF 6
ENDMDL
MODEL 3
REMARK VINA RESULT:      -8.5      1.013      1.439
REMARK  Name = 
REMARK  9 active torsions:
REMARK  status: ('A' for Active; 'I' for Inactive)
REMARK    1  A    between atoms: C_1  and  N_2
REMARK    2  A    between atoms: N_2  and  C_32
REMARK    3  A    between atoms: C_3  and  C_5
REMARK    4  A    between atoms: C_9  and  N_10
REMARK    5  A    between atoms: C_15  and  C_16
REMARK    6  A    between atoms: C_18  and  C_19
REMARK    7  A    between atoms: C_19  and  C_20
REMARK    8  A    between atoms: C_19  and  C_21
REMARK    9  A    between atoms: C_19  and  C_22
REMARK                            x       y       z     vdW  Elec       q    Type
REMARK                         _______ _______ _______ _____ _____    ______ ____
ROOT
ATOM      1  C   UNL     1       1.223   9.596  19.033  0.00  0.00    +0.000 A 
ATOM      2  C   UNL     1       0.905   9.611  20.386  0.00  0.00    +0.000 A 
ATOM      3  C   UNL     1       0.308  10.861  20.700  0.00  0.00    +0.000 A 
ATOM      4  C   UNL     1      -0.138  11.478  21.886  0.00  0.00    +0.000 A 
ATOM      5  C   UNL     1      -0.607  12.805  21.857  0.00  0.00    +0.000 A 
ATOM      6  C   UNL     1      -0.673  13.458  20.618  0.00  0.00    +0.000 A 
ATOM      7  C   UNL     1      -0.257  12.866  19.424  0.00  0.00    +0.000 A 
ATOM      8  C   UNL     1       0.216  11.564  19.505  0.00  0.00    +0.000 A 
ATOM      9  N   UNL     1       0.630  10.719  18.508  0.00  0.00    +0.000 N 
ATOM     10  H   UNL     1       0.574  10.949  17.527  0.00  0.00    +0.000 HD
ENDROOT
BRANCH   5  11
ATOM     11  N   UNL     1      -1.005  13.413  23.064  0.00  0.00    +0.000 N 
ATOM     12  C   UNL     1      -2.289  13.774  23.473  0.00  0.00    +0.000 A 
ATOM     13  N   UNL     1      -2.393  14.789  24.343  0.00  0.00    +0.000 NA
ATOM     14  C   UNL     1      -3.643  15.240  24.590  0.00  0.00    +0.000 A 
ATOM     15  C   UNL     1      -4.774  14.732  24.002  0.00  0.00    +0.000 A 
ATOM     16  C   UNL     1      -4.581  13.668  23.162  0.00  0.00    +0.000 A 
ATOM     17  N   UNL     1      -3.348  13.171  22.933  0.00  0.00    +0.000 NA
ATOM     18  H   UNL     1      -0.356  14.086  23.452  0.00  0.00    +0.000 HD
BRANCH  16  19
ATOM     19  C   UNL     1      -5.661  13.016  22.398  0.00  0.00    +0.000 A 
ATOM     20  C   UNL     1      -5.444  12.492  21.118  0.00  0.00    +0.000 A 
ATOM     21  C   UNL     1      -6.494  11.952  20.363  0.00  0.00    +0.000 A 
ATOM     22  C   UNL     1      -7.755  11.956  20.967  0.00  0.00    +0.000 A 
ATOM     23  C   UNL     1      -7.901  12.492  22.241  0.00  0.00    +0.000 A 
ATOM     24  N   UNL     1      -6.890  13.007  22.966  0.00  0.00    +0.000 NA
BRANCH  21  25
ATOM     25  C   UNL     1      -6.238  11.428  18.945  0.00  0.00    +0.000 C 
ATOM     26  C   UNL     1      -6.614   9.933  18.869  0.00  0.00    +0.000 C 
ATOM     27  C   UNL     1      -7.053  12.172  17.860  0.00  0.00    +0.000 C 
BRANCH  25  28
ATOM     28  C   UNL     1      -4.797  11.578  18.587  0.00  0.00    +0.000 C 
ATOM     29  N   UNL     1      -3.677  11.711  18.301  0.00  0.00    +0.000 NA
ENDBRANCH  25  28
ENDBRANCH  21  25
ENDBRANCH  16  19
ENDBRANCH   5  11
BRANCH   1  32
ATOM     30  C   UNL     1       1.837   6.952  20.297  0.00  0.00    +0.000 C 
ATOM     31  N   UNL     1       2.266   7.348  18.955  0.00  0.00    +0.000 N 
ATOM     32  C   UNL     1       1.947   8.562  18.314  0.00  0.00    +0.000 C 
ATOM     33  O   UNL     1       2.248   8.736  17.132  0.00  0.00    +0.000 OA
BRANCH  31  34
ATOM     34  C   UNL     1       2.875   6.282  18.117  0.00  0.00    +0.000 C 
ATOM     35  C   UNL     1       2.038   4.988  18.160  0.00  0.00    +0.000 C 
ATOM     36  C   UNL     1       2.736   3.858  17.414  0.00  0.00    +0.000 C 
ATOM     37  O   UNL     1       4.060   3.664  17.909  0.00  0.00    +0.000 OA
ATOM     38  C   UNL     1       4.880   4.810  17.699  0.00  0.00    +0.000 C 
ATOM     39  C   UNL     1       4.338   5.991  18.483  0.00  0.00    +0.000 C 
ENDBRANCH  31  34
ENDBRANCH   1  32
TORSDOF 6
ENDMDL
MODEL 4
REMARK VINA RESULT:      -8.4      5.981     10.644
REMARK  Name = 
REMARK  9 active torsions:
REMARK  status: ('A' for Active; 'I' for Inactive)
REMARK    1  A    between atoms: C_1  and  N_2
REMARK    2  A    between atoms: N_2  and  C_32
REMARK    3  A    between atoms: C_3  and  C_5
REMARK    4  A    between atoms: C_9  and  N_10
REMARK    5  A    between atoms: C_15  and  C_16
REMARK    6  A    between atoms: C_18  and  C_19
REMARK    7  A    between atoms: C_19  and  C_20
REMARK    8  A    between atoms: C_19  and  C_21
REMARK    9  A    between atoms: C_19  and  C_22
REMARK                            x       y       z     vdW  Elec       q    Type
REMARK                         _______ _______ _______ _____ _____    ______ ____
ROOT
ATOM      1  C   UNL     1       9.253  10.336  18.365  0.00  0.00    +0.000 A 
ATOM      2  C   UNL     1       8.232  10.011  17.479  0.00  0.00    +0.000 A 
ATOM      3  C   UNL     1       7.834   8.668  17.714  0.00  0.00    +0.000 A 
ATOM      4  C   UNL     1       6.930   7.779  17.100  0.00  0.00    +0.000 A 
ATOM      5  C   UNL     1       6.844   6.445  17.540  0.00  0.00    +0.000 A 
ATOM      6  C   UNL     1       7.632   6.055  18.634  0.00  0.00    +0.000 A 
ATOM      7  C   UNL     1       8.522   6.919  19.274  0.00  0.00    +0.000 A 
ATOM      8  C   UNL     1       8.586   8.219  18.793  0.00  0.00    +0.000 A 
ATOM      9  N   UNL     1       9.309   9.288  19.252  0.00  0.00    +0.000 N 
ATOM     10  H   UNL     1       9.871   9.259  20.090  0.00  0.00    +0.000 HD
ENDROOT
BRANCH   5  11
ATOM     11  N   UNL     1       5.965   5.564  16.880  0.00  0.00    +0.000 N 
ATOM     12  C   UNL     1       4.627   5.293  17.169  0.00  0.00    +0.000 A 
ATOM     13  N   UNL     1       4.156   4.088  16.816  0.00  0.00    +0.000 NA
ATOM     14  C   UNL     1       2.918   3.776  17.260  0.00  0.00    +0.000 A 
ATOM     15  C   UNL     1       2.150   4.603  18.042  0.00  0.00    +0.000 A 
ATOM     16  C   UNL     1       2.690   5.831  18.317  0.00  0.00    +0.000 A 
ATOM     17  N   UNL     1       3.905   6.183  17.849  0.00  0.00    +0.000 NA
ATOM     18  H   UNL     1       6.381   4.716  16.518  0.00  0.00    +0.000 HD
BRANCH  16  19
ATOM     19  C   UNL     1       2.045   6.839  19.179  0.00  0.00    +0.000 A 
ATOM     20  C   UNL     1       1.684   8.101  18.694  0.00  0.00    +0.000 A 
ATOM     21  C   UNL     1       1.151   9.083  19.539  0.00  0.00    +0.000 A 
ATOM     22  C   UNL     1       0.990   8.724  20.880  0.00  0.00    +0.000 A 
ATOM     23  C   UNL     1       1.369   7.454  21.297  0.00  0.00    +0.000 A 
ATOM     24  N   UNL     1       1.877   6.509  20.482  0.00  0.00    +0.000 NA
BRANCH  21  25
ATOM     25  C   UNL     1       0.808  10.474  18.990  0.00  0.00    +0.000 C 
ATOM     26  C   UNL     1       0.559  11.447  20.162  0.00  0.00    +0.000 C 
ATOM     27  C   UNL     1       1.927  11.078  18.109  0.00  0.00    +0.000 C 
BRANCH  25  28
ATOM     28  C   UNL     1      -0.423  10.412  18.148  0.00  0.00    +0.000 C 
ATOM     29  N   UNL     1      -1.386  10.346  17.498  0.00  0.00    +0.000 NA
ENDBRANCH  25  28
ENDBRANCH  21  25
ENDBRANCH  16  19
ENDBRANCH   5  11
BRANCH   1  32
ATOM     30  C   UNL     1       8.096  12.937  17.437  0.00  0.00    +0.000 C 
ATOM     31  N   UNL     1       9.472  12.762  17.906  0.00  0.00    +0.000 N 
ATOM     32  C   UNL     1      10.027  11.564  18.398  0.00  0.00    +0.000 C 
ATOM     33  O   UNL     1      11.156  11.562  18.892  0.00  0.00    +0.000 OA
BRANCH  31  34
ATOM     34  C   UNL     1      10.262  14.006  18.106  0.00  0.00    +0.000 C 
ATOM     35  C   UNL     1       9.350  15.201  18.443  0.00  0.00    +0.000 C 
ATOM     36  C   UNL     1      10.146  16.498  18.512  0.00  0.00    +0.000 C 
ATOM     37  O   UNL     1      10.887  16.703  17.310  0.00  0.00    +0.000 OA
ATOM     38  C   UNL     1      11.858  15.680  17.101  0.00  0.00    +0.000 C 
ATOM     39  C   UNL     1      11.171  14.340  16.915  0.00  0.00    +0.000 C 
ENDBRANCH  31  34
ENDBRANCH   1  32
TORSDOF 6
ENDMDL
MODEL 5
REMARK VINA RESULT:      -8.4      1.396      1.838
REMARK  Name = 
REMARK  9 active torsions:
REMARK  status: ('A' for Active; 'I' for Inactive)
REMARK    1  A    between atoms: C_1  and  N_2
REMARK    2  A    between atoms: N_2  and  C_32
REMARK    3  A    between atoms: C_3  and  C_5
REMARK    4  A    between atoms: C_9  and  N_10
REMARK    5  A    between atoms: C_15  and  C_16
REMARK    6  A    between atoms: C_18  and  C_19
REMARK    7  A    between atoms: C_19  and  C_20
REMARK    8  A    between atoms: C_19  and  C_21
REMARK    9  A    between atoms: C_19  and  C_22
REMARK                            x       y       z     vdW  Elec       q    Type
REMARK                         _______ _______ _______ _____ _____    ______ ____
ROOT
ATOM      1  C   UNL     1       1.225   9.344  19.259  0.00  0.00    +0.000 A 
ATOM      2  C   UNL     1       0.912   9.351  20.613  0.00  0.00    +0.000 A 
ATOM      3  C   UNL     1       0.243  10.565  20.922  0.00  0.00    +0.000 A 
ATOM      4  C   UNL     1      -0.234  11.162  22.106  0.00  0.00    +0.000 A 
ATOM      5  C   UNL     1      -0.783  12.457  22.070  0.00  0.00    +0.000 A 
ATOM      6  C   UNL     1      -0.893  13.097  20.827  0.00  0.00    +0.000 A 
ATOM      7  C   UNL     1      -0.447  12.523  19.635  0.00  0.00    +0.000 A 
ATOM      8  C   UNL     1       0.104  11.252  19.723  0.00  0.00    +0.000 A 
ATOM      9  N   UNL     1       0.562  10.427  18.730  0.00  0.00    +0.000 N 
ATOM     10  H   UNL     1       0.489  10.646  17.748  0.00  0.00    +0.000 HD
ENDROOT
BRANCH   5  11
ATOM     11  N   UNL     1      -1.211  13.050  23.275  0.00  0.00    +0.000 N 
ATOM     12  C   UNL     1      -2.436  13.655  23.558  0.00  0.00    +0.000 A 
ATOM     13  N   UNL     1      -2.446  14.602  24.507  0.00  0.00    +0.000 NA
ATOM     14  C   UNL     1      -3.596  15.300  24.644  0.00  0.00    +0.000 A 
ATOM     15  C   UNL     1      -4.713  15.099  23.872  0.00  0.00    +0.000 A 
ATOM     16  C   UNL     1      -4.631  14.083  22.958  0.00  0.00    +0.000 A 
ATOM     17  N   UNL     1      -3.510  13.343  22.833  0.00  0.00    +0.000 NA
ATOM     18  H   UNL     1      -0.498  13.531  23.807  0.00  0.00    +0.000 HD
BRANCH  16  19
ATOM     19  C   UNL     1      -5.704  13.744  22.005  0.00  0.00    +0.000 A 
ATOM     20  C   UNL     1      -5.493  12.856  20.944  0.00  0.00    +0.000 A 
ATOM     21  C   UNL     1      -6.490  12.606  19.992  0.00  0.00    +0.000 A 
ATOM     22  C   UNL     1      -7.701  13.280  20.174  0.00  0.00    +0.000 A 
ATOM     23  C   UNL     1      -7.845  14.149  21.249  0.00  0.00    +0.000 A 
ATOM     24  N   UNL     1      -6.886  14.385  22.165  0.00  0.00    +0.000 NA
BRANCH  21  25
ATOM     25  C   UNL     1      -6.216  11.664  18.813  0.00  0.00    +0.000 C 
ATOM     26  C   UNL     1      -6.960  12.172  17.559  0.00  0.00    +0.000 C 
ATOM     27  C   UNL     1      -4.715  11.552  18.454  0.00  0.00    +0.000 C 
BRANCH  25  28
ATOM     28  C   UNL     1      -6.693  10.285  19.127  0.00  0.00    +0.000 C 
ATOM     29  N   UNL     1      -7.051   9.208  19.384  0.00  0.00    +0.000 NA
ENDBRANCH  25  28
ENDBRANCH  21  25
ENDBRANCH  16  19
ENDBRANCH   5  11
BRANCH   1  32
ATOM     30  C   UNL     1       1.851   6.680  20.472  0.00  0.00    +0.000 C 
ATOM     31  N   UNL     1       2.328   7.127  19.163  0.00  0.00    +0.000 N 
ATOM     32  C   UNL     1       2.007   8.352  18.544  0.00  0.00    +0.000 C 
ATOM     33  O   UNL     1       2.356   8.569  17.382  0.00  0.00    +0.000 OA
BRANCH  31  34
ATOM     34  C   UNL     1       3.002   6.102  18.322  0.00  0.00    +0.000 C 
ATOM     35  C   UNL     1       2.051   4.935  17.993  0.00  0.00    +0.000 C 
ATOM     36  C   UNL     1       2.782   3.823  17.250  0.00  0.00    +0.000 C 
ATOM     37  O   UNL     1       3.932   3.396  17.979  0.00  0.00    +0.000 OA
ATOM     38  C   UNL     1       4.890   4.442  18.122  0.00  0.00    +0.000 C 
ATOM     39  C   UNL     1       4.305   5.578  18.942  0.00  0.00    +0.000 C 
ENDBRANCH  31  34
ENDBRANCH   1  32
TORSDOF 6
ENDMDL
MODEL 6
REMARK VINA RESULT:      -8.4      3.073      5.652
REMARK  Name = 
REMARK  9 active torsions:
REMARK  status: ('A' for Active; 'I' for Inactive)
REMARK    1  A    between atoms: C_1  and  N_2
REMARK    2  A    between atoms: N_2  and  C_32
REMARK    3  A    between atoms: C_3  and  C_5
REMARK    4  A    between atoms: C_9  and  N_10
REMARK    5  A    between atoms: C_15  and  C_16
REMARK    6  A    between atoms: C_18  and  C_19
REMARK    7  A    between atoms: C_19  and  C_20
REMARK    8  A    between atoms: C_19  and  C_21
REMARK    9  A    between atoms: C_19  and  C_22
REMARK                            x       y       z     vdW  Elec       q    Type
REMARK                         _______ _______ _______ _____ _____    ______ ____
ROOT
ATOM      1  C   UNL     1       1.379   8.798  19.919  0.00  0.00    +0.000 A 
ATOM      2  C   UNL     1       0.566   9.826  19.456  0.00  0.00    +0.000 A 
ATOM      3  C   UNL     1      -0.137  10.384  20.557  0.00  0.00    +0.000 A 
ATOM      4  C   UNL     1      -1.134  11.370  20.701  0.00  0.00    +0.000 A 
ATOM      5  C   UNL     1      -1.697  11.622  21.966  0.00  0.00    +0.000 A 
ATOM      6  C   UNL     1      -1.196  10.915  23.069  0.00  0.00    +0.000 A 
ATOM      7  C   UNL     1      -0.196   9.947  22.959  0.00  0.00    +0.000 A 
ATOM      8  C   UNL     1       0.316   9.719  21.689  0.00  0.00    +0.000 A 
ATOM      9  N   UNL     1       1.329   8.888  21.290  0.00  0.00    +0.000 N 
ATOM     10  H   UNL     1       1.897   8.356  21.933  0.00  0.00    +0.000 HD
ENDROOT
BRANCH   5  11
ATOM     11  N   UNL     1      -2.724  12.581  22.076  0.00  0.00    +0.000 N 
ATOM     12  C   UNL     1      -2.692  13.932  21.730  0.00  0.00    +0.000 A 
ATOM     13  N   UNL     1      -3.517  14.754  22.394  0.00  0.00    +0.000 NA
ATOM     14  C   UNL     1      -3.348  16.077  22.174  0.00  0.00    +0.000 A 
ATOM     15  C   UNL     1      -2.393  16.602  21.339  0.00  0.00    +0.000 A 
ATOM     16  C   UNL     1      -1.624  15.690  20.667  0.00  0.00    +0.000 A 
ATOM     17  N   UNL     1      -1.803  14.363  20.836  0.00  0.00    +0.000 NA
ATOM     18  H   UNL     1      -3.335  12.481  22.876  0.00  0.00    +0.000 HD
BRANCH  16  19
ATOM     19  C   UNL     1      -0.515  16.053  19.766  0.00  0.00    +0.000 A 
ATOM     20  C   UNL     1       0.595  15.219  19.590  0.00  0.00    +0.000 A 
ATOM     21  C   UNL     1       1.684  15.610  18.800  0.00  0.00    +0.000 A 
ATOM     22  C   UNL     1       1.588  16.865  18.193  0.00  0.00    +0.000 A 
ATOM     23  C   UNL     1       0.458  17.644  18.408  0.00  0.00    +0.000 A 
ATOM     24  N   UNL     1      -0.590  17.265  19.165  0.00  0.00    +0.000 NA
BRANCH  21  25
ATOM     25  C   UNL     1       2.909  14.696  18.663  0.00  0.00    +0.000 C 
ATOM     26  C   UNL     1       2.467  13.311  18.145  0.00  0.00    +0.000 C 
ATOM     27  C   UNL     1       3.975  15.244  17.685  0.00  0.00    +0.000 C 
BRANCH  25  28
ATOM     28  C   UNL     1       3.578  14.522  19.985  0.00  0.00    +0.000 C 
ATOM     29  N   UNL     1       4.116  14.383  21.008  0.00  0.00    +0.000 NA
ENDBRANCH  25  28
ENDBRANCH  21  25
ENDBRANCH  16  19
ENDBRANCH   5  11
BRANCH   1  32
ATOM     30  C   UNL     1       1.631   5.903  20.639  0.00  0.00    +0.000 C 
ATOM     31  N   UNL     1       2.321   6.541  19.517  0.00  0.00    +0.000 N 
ATOM     32  C   UNL     1       2.180   7.887  19.122  0.00  0.00    +0.000 C 
ATOM     33  O   UNL     1       2.705   8.285  18.081  0.00  0.00    +0.000 OA
BRANCH  31  34
ATOM     34  C   UNL     1       3.031   5.632  18.578  0.00  0.00    +0.000 C 
ATOM     35  C   UNL     1       2.113   4.489  18.103  0.00  0.00    +0.000 C 
ATOM     36  C   UNL     1       2.882   3.485  17.253  0.00  0.00    +0.000 C 
ATOM     37  O   UNL     1       4.031   3.005  17.948  0.00  0.00    +0.000 OA
ATOM     38  C   UNL     1       4.962   4.049  18.224  0.00  0.00    +0.000 C 
ATOM     39  C   UNL     1       4.338   5.071  19.156  0.00  0.00    +0.000 C 
ENDBRANCH  31  34
ENDBRANCH   1  32
TORSDOF 6
ENDMDL
MODEL 7
REMARK VINA RESULT:      -8.3      3.509      6.343
REMARK  Name = 
REMARK  9 active torsions:
REMARK  status: ('A' for Active; 'I' for Inactive)
REMARK    1  A    between atoms: C_1  and  N_2
REMARK    2  A    between atoms: N_2  and  C_32
REMARK    3  A    between atoms: C_3  and  C_5
REMARK    4  A    between atoms: C_9  and  N_10
REMARK    5  A    between atoms: C_15  and  C_16
REMARK    6  A    between atoms: C_18  and  C_19
REMARK    7  A    between atoms: C_19  and  C_20
REMARK    8  A    between atoms: C_19  and  C_21
REMARK    9  A    between atoms: C_19  and  C_22
REMARK                            x       y       z     vdW  Elec       q    Type
REMARK                         _______ _______ _______ _____ _____    ______ ____
ROOT
ATOM      1  C   UNL     1       1.802   7.811  20.164  0.00  0.00    +0.000 A 
ATOM      2  C   UNL     1       1.134   8.890  19.597  0.00  0.00    +0.000 A 
ATOM      3  C   UNL     1       0.459   9.602  20.625  0.00  0.00    +0.000 A 
ATOM      4  C   UNL     1      -0.420  10.702  20.657  0.00  0.00    +0.000 A 
ATOM      5  C   UNL     1      -0.998  11.106  21.875  0.00  0.00    +0.000 A 
ATOM      6  C   UNL     1      -0.628  10.425  23.044  0.00  0.00    +0.000 A 
ATOM      7  C   UNL     1       0.255   9.344  23.045  0.00  0.00    +0.000 A 
ATOM      8  C   UNL     1       0.786   8.970  21.818  0.00  0.00    +0.000 A 
ATOM      9  N   UNL     1       1.709   8.002  21.522  0.00  0.00    +0.000 N 
ATOM     10  H   UNL     1       2.185   7.455  22.225  0.00  0.00    +0.000 HD
ENDROOT
BRANCH   5  11
ATOM     11  N   UNL     1      -1.909  12.181  21.873  0.00  0.00    +0.000 N 
ATOM     12  C   UNL     1      -1.645  13.544  22.013  0.00  0.00    +0.000 A 
ATOM     13  N   UNL     1      -2.620  14.308  22.526  0.00  0.00    +0.000 NA
ATOM     14  C   UNL     1      -2.288  15.585  22.820  0.00  0.00    +0.000 A 
ATOM     15  C   UNL     1      -1.035  16.116  22.636  0.00  0.00    +0.000 A 
ATOM     16  C   UNL     1      -0.113  15.280  22.065  0.00  0.00    +0.000 A 
ATOM     17  N   UNL     1      -0.432  14.014  21.723  0.00  0.00    +0.000 NA
ATOM     18  H   UNL     1      -2.810  11.996  22.296  0.00  0.00    +0.000 HD
BRANCH  16  19
ATOM     19  C   UNL     1       1.297  15.645  21.833  0.00  0.00    +0.000 A 
ATOM     20  C   UNL     1       1.893  15.517  20.573  0.00  0.00    +0.000 A 
ATOM     21  C   UNL     1       3.254  15.784  20.379  0.00  0.00    +0.000 A 
ATOM     22  C   UNL     1       3.970  16.197  21.507  0.00  0.00    +0.000 A 
ATOM     23  C   UNL     1       3.317  16.305  22.728  0.00  0.00    +0.000 A 
ATOM     24  N   UNL     1       2.007  16.051  22.912  0.00  0.00    +0.000 NA
BRANCH  21  25
ATOM     25  C   UNL     1       3.892  15.589  18.998  0.00  0.00    +0.000 C 
ATOM     26  C   UNL     1       5.420  15.782  19.100  0.00  0.00    +0.000 C 
ATOM     27  C   UNL     1       3.636  14.187  18.397  0.00  0.00    +0.000 C 
BRANCH  25  28
ATOM     28  C   UNL     1       3.347  16.585  18.028  0.00  0.00    +0.000 C 
ATOM     29  N   UNL     1       2.930  17.352  17.259  0.00  0.00    +0.000 NA
ENDBRANCH  25  28
ENDBRANCH  21  25
ENDBRANCH  16  19
ENDBRANCH   5  11
BRANCH   1  32
ATOM     30  C   UNL     1       1.303   4.919  20.757  0.00  0.00    +0.000 C 
ATOM     31  N   UNL     1       2.301   5.410  19.806  0.00  0.00    +0.000 N 
ATOM     32  C   UNL     1       2.521   6.760  19.467  0.00  0.00    +0.000 C 
ATOM     33  O   UNL     1       3.296   7.051  18.554  0.00  0.00    +0.000 OA
BRANCH  31  34
ATOM     34  C   UNL     1       2.958   4.384  18.954  0.00  0.00    +0.000 C 
ATOM     35  C   UNL     1       1.960   3.754  17.963  0.00  0.00    +0.000 C 
ATOM     36  C   UNL     1       2.601   2.610  17.189  0.00  0.00    +0.000 C 
ATOM     37  O   UNL     1       3.162   1.646  18.079  0.00  0.00    +0.000 OA
ATOM     38  C   UNL     1       4.214   2.198  18.867  0.00  0.00    +0.000 C 
ATOM     39  C   UNL     1       3.672   3.294  19.767  0.00  0.00    +0.000 C 
ENDBRANCH  31  34
ENDBRANCH   1  32
TORSDOF 6
ENDMDL
MODEL 8
REMARK VINA RESULT:      -8.2      3.550      6.796
REMARK  Name = 
REMARK  9 active torsions:
REMARK  status: ('A' for Active; 'I' for Inactive)
REMARK    1  A    between atoms: C_1  and  N_2
REMARK    2  A    between atoms: N_2  and  C_32
REMARK    3  A    between atoms: C_3  and  C_5
REMARK    4  A    between atoms: C_9  and  N_10
REMARK    5  A    between atoms: C_15  and  C_16
REMARK    6  A    between atoms: C_18  and  C_19
REMARK    7  A    between atoms: C_19  and  C_20
REMARK    8  A    between atoms: C_19  and  C_21
REMARK    9  A    between atoms: C_19  and  C_22
REMARK                            x       y       z     vdW  Elec       q    Type
REMARK                         _______ _______ _______ _____ _____    ______ ____
ROOT
ATOM      1  C   UNL     1       2.557   7.184  18.976  0.00  0.00    +0.000 A 
ATOM      2  C   UNL     1       1.950   8.264  18.347  0.00  0.00    +0.000 A 
ATOM      3  C   UNL     1       1.141   8.949  19.293  0.00  0.00    +0.000 A 
ATOM      4  C   UNL     1       0.249  10.037  19.232  0.00  0.00    +0.000 A 
ATOM      5  C   UNL     1      -0.484  10.412  20.375  0.00  0.00    +0.000 A 
ATOM      6  C   UNL     1      -0.252   9.715  21.570  0.00  0.00    +0.000 A 
ATOM      7  C   UNL     1       0.640   8.646  21.664  0.00  0.00    +0.000 A 
ATOM      8  C   UNL     1       1.325   8.300  20.508  0.00  0.00    +0.000 A 
ATOM      9  N   UNL     1       2.293   7.350  20.314  0.00  0.00    +0.000 N 
ATOM     10  H   UNL     1       2.684   6.796  21.062  0.00  0.00    +0.000 HD
ENDROOT
BRANCH   5  11
ATOM     11  N   UNL     1      -1.403  11.476  20.276  0.00  0.00    +0.000 N 
ATOM     12  C   UNL     1      -1.199  12.828  20.550  0.00  0.00    +0.000 A 
ATOM     13  N   UNL     1      -2.268  13.545  20.925  0.00  0.00    +0.000 NA
ATOM     14  C   UNL     1      -2.024  14.803  21.357  0.00  0.00    +0.000 A 
ATOM     15  C   UNL     1      -0.771  15.358  21.440  0.00  0.00    +0.000 A 
ATOM     16  C   UNL     1       0.258  14.572  20.995  0.00  0.00    +0.000 A 
ATOM     17  N   UNL     1       0.035  13.330  20.518  0.00  0.00    +0.000 NA
ATOM     18  H   UNL     1      -2.361  11.253  20.514  0.00  0.00    +0.000 HD
BRANCH  16  19
ATOM     19  C   UNL     1       1.678  14.967  21.049  0.00  0.00    +0.000 A 
ATOM     20  C   UNL     1       2.371  15.381  19.906  0.00  0.00    +0.000 A 
ATOM     21  C   UNL     1       3.741  15.672  19.948  0.00  0.00    +0.000 A 
ATOM     22  C   UNL     1       4.363  15.539  21.193  0.00  0.00    +0.000 A 
ATOM     23  C   UNL     1       3.616  15.123  22.289  0.00  0.00    +0.000 A 
ATOM     24  N   UNL     1       2.298  14.848  22.247  0.00  0.00    +0.000 NA
BRANCH  21  25
ATOM     25  C   UNL     1       4.486  16.078  18.670  0.00  0.00    +0.000 C 
ATOM     26  C   UNL     1       5.643  17.035  19.026  0.00  0.00    +0.000 C 
ATOM     27  C   UNL     1       5.090  14.876  17.905  0.00  0.00    +0.000 C 
BRANCH  25  28
ATOM     28  C   UNL     1       3.561  16.774  17.728  0.00  0.00    +0.000 C 
ATOM     29  N   UNL     1       2.832  17.300  16.989  0.00  0.00    +0.000 NA
ENDBRANCH  25  28
ENDBRANCH  21  25
ENDBRANCH  16  19
ENDBRANCH   5  11
BRANCH   1  32
ATOM     30  C   UNL     1       4.962   7.876  17.333  0.00  0.00    +0.000 C 
ATOM     31  N   UNL     1       4.469   6.515  17.547  0.00  0.00    +0.000 N 
ATOM     32  C   UNL     1       3.374   6.155  18.357  0.00  0.00    +0.000 C 
ATOM     33  O   UNL     1       3.128   4.967  18.574  0.00  0.00    +0.000 OA
BRANCH  31  34
ATOM     34  C   UNL     1       5.347   5.414  17.069  0.00  0.00    +0.000 C 
ATOM     35  C   UNL     1       6.701   5.417  17.805  0.00  0.00    +0.000 C 
ATOM     36  C   UNL     1       7.647   4.377  17.219  0.00  0.00    +0.000 C 
ATOM     37  O   UNL     1       7.795   4.562  15.812  0.00  0.00    +0.000 OA
ATOM     38  C   UNL     1       6.563   4.377  15.118  0.00  0.00    +0.000 C 
ATOM     39  C   UNL     1       5.559   5.431  15.549  0.00  0.00    +0.000 C 
ENDBRANCH  31  34
ENDBRANCH   1  32
TORSDOF 6
ENDMDL
MODEL 9
REMARK VINA RESULT:      -8.2      3.670      6.980
REMARK  Name = 
REMARK  9 active torsions:
REMARK  status: ('A' for Active; 'I' for Inactive)
REMARK    1  A    between atoms: C_1  and  N_2
REMARK    2  A    between atoms: N_2  and  C_32
REMARK    3  A    between atoms: C_3  and  C_5
REMARK    4  A    between atoms: C_9  and  N_10
REMARK    5  A    between atoms: C_15  and  C_16
REMARK    6  A    between atoms: C_18  and  C_19
REMARK    7  A    between atoms: C_19  and  C_20
REMARK    8  A    between atoms: C_19  and  C_21
REMARK    9  A    between atoms: C_19  and  C_22
REMARK                            x       y       z     vdW  Elec       q    Type
REMARK                         _______ _______ _______ _____ _____    ______ ____
ROOT
ATOM      1  C   UNL     1       2.517   7.274  18.695  0.00  0.00    +0.000 A 
ATOM      2  C   UNL     1       1.880   8.428  18.252  0.00  0.00    +0.000 A 
ATOM      3  C   UNL     1       1.196   9.021  19.347  0.00  0.00    +0.000 A 
ATOM      4  C   UNL     1       0.336  10.127  19.498  0.00  0.00    +0.000 A 
ATOM      5  C   UNL     1      -0.260  10.390  20.746  0.00  0.00    +0.000 A 
ATOM      6  C   UNL     1       0.075   9.565  21.829  0.00  0.00    +0.000 A 
ATOM      7  C   UNL     1       0.939   8.475  21.714  0.00  0.00    +0.000 A 
ATOM      8  C   UNL     1       1.488   8.243  20.460  0.00  0.00    +0.000 A 
ATOM      9  N   UNL     1       2.401   7.300  20.065  0.00  0.00    +0.000 N 
ATOM     10  H   UNL     1       2.852   6.662  20.703  0.00  0.00    +0.000 HD
ENDROOT
BRANCH   5  11
ATOM     11  N   UNL     1      -1.152  11.475  20.860  0.00  0.00    +0.000 N 
ATOM     12  C   UNL     1      -0.869  12.801  21.187  0.00  0.00    +0.000 A 
ATOM     13  N   UNL     1      -1.848  13.511  21.768  0.00  0.00    +0.000 NA
ATOM     14  C   UNL     1      -1.505  14.731  22.239  0.00  0.00    +0.000 A 
ATOM     15  C   UNL     1      -0.238  15.254  22.165  0.00  0.00    +0.000 A 
ATOM     16  C   UNL     1       0.688  14.482  21.518  0.00  0.00    +0.000 A 
ATOM     17  N   UNL     1       0.360  13.280  21.000  0.00  0.00    +0.000 NA
ATOM     18  H   UNL     1      -2.069  11.255  21.226  0.00  0.00    +0.000 HD
BRANCH  16  19
ATOM     19  C   UNL     1       2.111  14.846  21.379  0.00  0.00    +0.000 A 
ATOM     20  C   UNL     1       2.650  15.260  20.156  0.00  0.00    +0.000 A 
ATOM     21  C   UNL     1       4.018  15.520  20.012  0.00  0.00    +0.000 A 
ATOM     22  C   UNL     1       4.803  15.357  21.157  0.00  0.00    +0.000 A 
ATOM     23  C   UNL     1       4.205  14.943  22.341  0.00  0.00    +0.000 A 
ATOM     24  N   UNL     1       2.887  14.697  22.479  0.00  0.00    +0.000 NA
BRANCH  21  25
ATOM     25  C   UNL     1       4.590  15.928  18.648  0.00  0.00    +0.000 C 
ATOM     26  C   UNL     1       5.216  14.697  17.959  0.00  0.00    +0.000 C 
ATOM     27  C   UNL     1       3.527  16.512  17.687  0.00  0.00    +0.000 C 
BRANCH  25  28
ATOM     28  C   UNL     1       5.645  16.971  18.816  0.00  0.00    +0.000 C 
ATOM     29  N   UNL     1       6.467  17.781  18.966  0.00  0.00    +0.000 NA
ENDBRANCH  25  28
ENDBRANCH  21  25
ENDBRANCH  16  19
ENDBRANCH   5  11
BRANCH   1  32
ATOM     30  C   UNL     1       5.302   7.795  17.728  0.00  0.00    +0.000 C 
ATOM     31  N   UNL     1       4.522   6.599  17.405  0.00  0.00    +0.000 N 
ATOM     32  C   UNL     1       3.232   6.302  17.888  0.00  0.00    +0.000 C 
ATOM     33  O   UNL     1       2.723   5.204  17.659  0.00  0.00    +0.000 OA
BRANCH  31  34
ATOM     34  C   UNL     1       5.253   5.505  16.713  0.00  0.00    +0.000 C 
ATOM     35  C   UNL     1       6.665   5.315  17.299  0.00  0.00    +0.000 C 
ATOM     36  C   UNL     1       7.459   4.290  16.499  0.00  0.00    +0.000 C 
ATOM     37  O   UNL     1       7.488   4.636  15.116  0.00  0.00    +0.000 OA
ATOM     38  C   UNL     1       6.185   4.632  14.538  0.00  0.00    +0.000 C 
ATOM     39  C   UNL     1       5.321   5.695  15.191  0.00  0.00    +0.000 C 
ENDBRANCH  31  34
ENDBRANCH   1  32
TORSDOF 6
ENDMDL
