MODEL 1
REMARK VINA RESULT:      -8.5      0.000      0.000
REMARK  Name = 
REMARK  6 active torsions:
REMARK  status: ('A' for Active; 'I' for Inactive)
REMARK    1  A    between atoms: C_2  and  C_4
REMARK    2  A    between atoms: N_12  and  C_13
REMARK    3  A    between atoms: C_13  and  C_14
REMARK    4  A    between atoms: C_14  and  C_15
REMARK    5  A    between atoms: C_15  and  N_16
REMARK    6  A    between atoms: N_19  and  C_20
REMARK                            x       y       z     vdW  Elec       q    Type
REMARK                         _______ _______ _______ _____ _____    ______ ____
ROOT
ATOM      1  C   UNL     1       3.157   6.838  18.122  0.00  0.00    +0.000 C 
ENDROOT
BRANCH   1  10
ATOM      2  C   UNL     1       0.349  10.695  19.730  0.00  0.00    +0.000 A 
ATOM      3  C   UNL     1      -0.289  10.940  20.965  0.00  0.00    +0.000 A 
ATOM      4  C   UNL     1      -0.243  10.007  22.014  0.00  0.00    +0.000 A 
ATOM      5  C   UNL     1       0.456   8.810  21.869  0.00  0.00    +0.000 A 
ATOM      6  C   UNL     1       1.098   8.571  20.664  0.00  0.00    +0.000 A 
ATOM      7  C   UNL     1       1.031   9.493  19.605  0.00  0.00    +0.000 A 
ATOM      8  C   UNL     1       1.817   8.923  18.497  0.00  0.00    +0.000 C 
ATOM      9  O   UNL     1       1.927   9.393  17.383  0.00  0.00    +0.000 OA
ATOM     10  N   UNL     1       2.366   7.736  18.947  0.00  0.00    +0.000 N 
ATOM     11  C   UNL     1       1.938   7.393  20.287  0.00  0.00    +0.000 C 
BRANCH   2  13
ATOM     12  N   UNL     1      -0.828  11.813  17.885  0.00  0.00    +0.000 N 
ATOM     13  C   UNL     1       0.255  11.768  18.709  0.00  0.00    +0.000 C 
ATOM     14  O   UNL     1       1.128  12.626  18.627  0.00  0.00    +0.000 OA
ATOM     15  H   UNL     1      -0.775  12.464  17.113  0.00  0.00    +0.000 HD
ATOM     16  H   UNL     1      -1.407  10.990  17.723  0.00  0.00    +0.000 HD
ENDBRANCH   2  13
ENDBRANCH   1  10
BRANCH   1  17
ATOM     17  C   UNL     1       3.403   5.501  18.818  0.00  0.00    +0.000 C 
BRANCH  17  18
ATOM     18  C   UNL     1       4.844   5.334  19.322  0.00  0.00    +0.000 C 
BRANCH  18  19
ATOM     19  N   UNL     1       5.636   4.298  18.641  0.00  0.00    +0.000 NA
ATOM     20  C   UNL     1       4.896   3.542  17.601  0.00  0.00    +0.000 C 
ATOM     21  C   UNL     1       4.570   4.318  16.303  0.00  0.00    +0.000 C 
ATOM     22  N   UNL     1       5.774   4.958  15.752  0.00  0.00    +0.000 N 
ATOM     23  C   UNL     1       6.562   5.738  16.722  0.00  0.00    +0.000 C 
ATOM     24  C   UNL     1       6.835   4.900  17.998  0.00  0.00    +0.000 C 
BRANCH  22  25
ATOM     25  C   UNL     1       6.276   4.682  14.493  0.00  0.00    +0.000 A 
ATOM     26  C   UNL     1       7.413   5.324  13.976  0.00  0.00    +0.000 A 
ATOM     27  C   UNL     1       7.908   5.042  12.695  0.00  0.00    +0.000 A 
ATOM     28  C   UNL     1       7.272   4.100  11.894  0.00  0.00    +0.000 A 
ATOM     29  C   UNL     1       6.150   3.445  12.383  0.00  0.00    +0.000 A 
ATOM     30 CL   UNL     1       5.355   2.271  11.407  0.00  0.00    +0.000 Cl
ATOM     31  C   UNL     1       5.662   3.729  13.663  0.00  0.00    +0.000 A 
ENDBRANCH  22  25
ENDBRANCH  18  19
ENDBRANCH  17  18
ENDBRANCH   1  17
TORSDOF 6
ENDMDL
MODEL 2
REMARK VINA RESULT:      -8.2      6.112      7.380
REMARK  Name = 
REMARK  6 active torsions:
REMARK  status: ('A' for Active; 'I' for Inactive)
REMARK    1  A    between atoms: C_2  and  C_4
REMARK    2  A    between atoms: N_12  and  C_13
REMARK    3  A    between atoms: C_13  and  C_14
REMARK    4  A    between atoms: C_14  and  C_15
REMARK    5  A    between atoms: C_15  and  N_16
REMARK    6  A    between atoms: N_19  and  C_20
REMARK                            x       y       z     vdW  Elec       q    Type
REMARK                         _______ _______ _______ _____ _____    ______ ____
ROOT
ATOM      1  C   UNL     1       8.665   9.582  17.428  0.00  0.00    +0.000 C 
ENDROOT
BRANCH   1  10
ATOM      2  C   UNL     1       8.860  14.133  19.573  0.00  0.00    +0.000 A 
ATOM      3  C   UNL     1       9.313  14.554  20.841  0.00  0.00    +0.000 A 
ATOM      4  C   UNL     1       9.789  13.637  21.793  0.00  0.00    +0.000 A 
ATOM      5  C   UNL     1       9.847  12.275  21.500  0.00  0.00    +0.000 A 
ATOM      6  C   UNL     1       9.419  11.858  20.249  0.00  0.00    +0.000 A 
ATOM      7  C   UNL     1       8.918  12.773  19.307  0.00  0.00    +0.000 A 
ATOM      8  C   UNL     1       8.563  11.993  18.108  0.00  0.00    +0.000 C 
ATOM      9  O   UNL     1       8.023  12.424  17.109  0.00  0.00    +0.000 OA
ATOM     10  N   UNL     1       8.918  10.679  18.349  0.00  0.00    +0.000 N 
ATOM     11  C   UNL     1       9.424  10.472  19.690  0.00  0.00    +0.000 C 
BRANCH   2  13
ATOM     12  N   UNL     1       9.090  15.404  17.482  0.00  0.00    +0.000 N 
ATOM     13  C   UNL     1       8.407  15.197  18.643  0.00  0.00    +0.000 C 
ATOM     14  O   UNL     1       7.410  15.865  18.898  0.00  0.00    +0.000 OA
ATOM     15  H   UNL     1       8.839  16.231  16.958  0.00  0.00    +0.000 HD
ATOM     16  H   UNL     1      10.053  15.091  17.369  0.00  0.00    +0.000 HD
ENDBRANCH   2  13
ENDBRANCH   1  10
BRANCH   1  17
ATOM     17  C   UNL     1       8.153   8.340  18.155  0.00  0.00    +0.000 C 
BRANCH  17  18
ATOM     18  C   UNL     1       7.497   7.315  17.219  0.00  0.00    +0.000 C 
BRANCH  18  19
ATOM     19  N   UNL     1       7.511   5.923  17.696  0.00  0.00    +0.000 NA
ATOM     20  C   UNL     1       6.920   5.729  19.042  0.00  0.00    +0.000 C 
ATOM     21  C   UNL     1       5.382   5.871  19.132  0.00  0.00    +0.000 C 
ATOM     22  N   UNL     1       4.712   5.039  18.122  0.00  0.00    +0.000 N 
ATOM     23  C   UNL     1       5.236   5.183  16.753  0.00  0.00    +0.000 C 
ATOM     24  C   UNL     1       6.782   5.041  16.746  0.00  0.00    +0.000 C 
BRANCH  22  25
ATOM     25  C   UNL     1       3.819   4.030  18.434  0.00  0.00    +0.000 A 
ATOM     26  C   UNL     1       3.337   3.125  17.476  0.00  0.00    +0.000 A 
ATOM     27  C   UNL     1       2.426   2.110  17.802  0.00  0.00    +0.000 A 
ATOM     28  C   UNL     1       1.974   1.975  19.110  0.00  0.00    +0.000 A 
ATOM     29  C   UNL     1       2.440   2.852  20.080  0.00  0.00    +0.000 A 
ATOM     30 CL   UNL     1       1.895   2.695  21.706  0.00  0.00    +0.000 Cl
ATOM     31  C   UNL     1       3.350   3.860  19.749  0.00  0.00    +0.000 A 
ENDBRANCH  22  25
ENDBRANCH  18  19
ENDBRANCH  17  18
ENDBRANCH   1  17
TORSDOF 6
ENDMDL
MODEL 3
REMARK VINA RESULT:      -8.1      4.543     10.829
REMARK  Name = 
REMARK  6 active torsions:
REMARK  status: ('A' for Active; 'I' for Inactive)
REMARK    1  A    between atoms: C_2  and  C_4
REMARK    2  A    between atoms: N_12  and  C_13
REMARK    3  A    between atoms: C_13  and  C_14
REMARK    4  A    between atoms: C_14  and  C_15
REMARK    5  A    between atoms: C_15  and  N_16
REMARK    6  A    between atoms: N_19  and  C_20
REMARK                            x       y       z     vdW  Elec       q    Type
REMARK                         _______ _______ _______ _____ _____    ______ ____
ROOT
ATOM      1  C   UNL     1       2.098   8.093  18.931  0.00  0.00    +0.000 C 
ENDROOT
BRANCH   1  10
ATOM      2  C   UNL     1       4.254   3.865  17.249  0.00  0.00    +0.000 A 
ATOM      3  C   UNL     1       5.281   3.646  16.307  0.00  0.00    +0.000 A 
ATOM      4  C   UNL     1       5.878   4.710  15.610  0.00  0.00    +0.000 A 
ATOM      5  C   UNL     1       5.480   6.026  15.847  0.00  0.00    +0.000 A 
ATOM      6  C   UNL     1       4.482   6.247  16.783  0.00  0.00    +0.000 A 
ATOM      7  C   UNL     1       3.867   5.181  17.461  0.00  0.00    +0.000 A 
ATOM      8  C   UNL     1       2.869   5.775  18.367  0.00  0.00    +0.000 C 
ATOM      9  O   UNL     1       2.081   5.165  19.062  0.00  0.00    +0.000 OA
ATOM     10  N   UNL     1       2.967   7.149  18.247  0.00  0.00    +0.000 N 
ATOM     11  C   UNL     1       3.921   7.556  17.237  0.00  0.00    +0.000 C 
BRANCH   2  13
ATOM     12  N   UNL     1       4.405   2.150  19.002  0.00  0.00    +0.000 N 
ATOM     13  C   UNL     1       3.722   2.665  17.943  0.00  0.00    +0.000 C 
ATOM     14  O   UNL     1       2.662   2.160  17.588  0.00  0.00    +0.000 OA
ATOM     15  H   UNL     1       4.089   1.252  19.344  0.00  0.00    +0.000 HD
ATOM     16  H   UNL     1       5.396   2.345  19.142  0.00  0.00    +0.000 HD
ENDBRANCH   2  13
ENDBRANCH   1  10
BRANCH   1  17
ATOM     17  C   UNL     1       1.760   9.292  18.048  0.00  0.00    +0.000 C 
BRANCH  17  18
ATOM     18  C   UNL     1       1.705  10.619  18.820  0.00  0.00    +0.000 C 
BRANCH  18  19
ATOM     19  N   UNL     1       0.395  11.288  18.834  0.00  0.00    +0.000 NA
ATOM     20  C   UNL     1      -0.605  10.664  19.734  0.00  0.00    +0.000 C 
ATOM     21  C   UNL     1      -0.358  10.848  21.251  0.00  0.00    +0.000 C 
ATOM     22  N   UNL     1      -0.140  12.264  21.585  0.00  0.00    +0.000 N 
ATOM     23  C   UNL     1       0.849  12.955  20.740  0.00  0.00    +0.000 C 
ATOM     24  C   UNL     1       0.544  12.713  19.238  0.00  0.00    +0.000 C 
BRANCH  22  25
ATOM     25  C   UNL     1      -0.943  12.974  22.457  0.00  0.00    +0.000 A 
ATOM     26  C   UNL     1      -0.684  14.309  22.805  0.00  0.00    +0.000 A 
ATOM     27  C   UNL     1      -1.500  15.017  23.698  0.00  0.00    +0.000 A 
ATOM     28  C   UNL     1      -2.609  14.400  24.267  0.00  0.00    +0.000 A 
ATOM     29  C   UNL     1      -2.894  13.083  23.935  0.00  0.00    +0.000 A 
ATOM     30 CL   UNL     1      -4.266  12.306  24.625  0.00  0.00    +0.000 Cl
ATOM     31  C   UNL     1      -2.076  12.382  23.042  0.00  0.00    +0.000 A 
ENDBRANCH  22  25
ENDBRANCH  18  19
ENDBRANCH  17  18
ENDBRANCH   1  17
TORSDOF 6
ENDMDL
MODEL 4
REMARK VINA RESULT:      -8.0      4.985     10.545
REMARK  Name = 
REMARK  6 active torsions:
REMARK  status: ('A' for Active; 'I' for Inactive)
REMARK    1  A    between atoms: C_2  and  C_4
REMARK    2  A    between atoms: N_12  and  C_13
REMARK    3  A    between atoms: C_13  and  C_14
REMARK    4  A    between atoms: C_14  and  C_15
REMARK    5  A    between atoms: C_15  and  N_16
REMARK    6  A    between atoms: N_19  and  C_20
REMARK                            x       y       z     vdW  Elec       q    Type
REMARK                         _______ _______ _______ _____ _____    ______ ____
ROOT
ATOM      1  C   UNL     1       2.790   8.375  17.848  0.00  0.00    +0.000 C 
ENDROOT
BRANCH   1  10
ATOM      2  C   UNL     1       3.375   3.515  19.029  0.00  0.00    +0.000 A 
ATOM      3  C   UNL     1       2.978   2.770  20.159  0.00  0.00    +0.000 A 
ATOM      4  C   UNL     1       2.322   3.374  21.245  0.00  0.00    +0.000 A 
ATOM      5  C   UNL     1       2.025   4.737  21.226  0.00  0.00    +0.000 A 
ATOM      6  C   UNL     1       2.398   5.470  20.110  0.00  0.00    +0.000 A 
ATOM      7  C   UNL     1       3.078   4.870  19.036  0.00  0.00    +0.000 A 
ATOM      8  C   UNL     1       3.312   5.930  18.040  0.00  0.00    +0.000 C 
ATOM      9  O   UNL     1       3.943   5.814  17.008  0.00  0.00    +0.000 OA
ATOM     10  N   UNL     1       2.720   7.085  18.516  0.00  0.00    +0.000 N 
ATOM     11  C   UNL     1       2.155   6.920  19.839  0.00  0.00    +0.000 C 
BRANCH   2  13
ATOM     12  N   UNL     1       5.143   3.280  17.338  0.00  0.00    +0.000 N 
ATOM     13  C   UNL     1       4.033   2.760  17.933  0.00  0.00    +0.000 C 
ATOM     14  O   UNL     1       3.603   1.665  17.586  0.00  0.00    +0.000 OA
ATOM     15  H   UNL     1       5.464   2.808  16.504  0.00  0.00    +0.000 HD
ATOM     16  H   UNL     1       5.355   4.275  17.386  0.00  0.00    +0.000 HD
ENDBRANCH   2  13
ENDBRANCH   1  10
BRANCH   1  17
ATOM     17  C   UNL     1       1.430   9.068  17.814  0.00  0.00    +0.000 C 
BRANCH  17  18
ATOM     18  C   UNL     1       1.179   9.974  19.028  0.00  0.00    +0.000 C 
BRANCH  18  19
ATOM     19  N   UNL     1      -0.231  10.127  19.423  0.00  0.00    +0.000 NA
ATOM     20  C   UNL     1      -0.527   9.710  20.815  0.00  0.00    +0.000 C 
ATOM     21  C   UNL     1       0.012  10.639  21.929  0.00  0.00    +0.000 C 
ATOM     22  N   UNL     1      -0.378  12.037  21.689  0.00  0.00    +0.000 N 
ATOM     23  C   UNL     1      -0.106  12.531  20.328  0.00  0.00    +0.000 C 
ATOM     24  C   UNL     1      -0.662  11.542  19.270  0.00  0.00    +0.000 C 
BRANCH  22  25
ATOM     25  C   UNL     1      -1.144  12.778  22.569  0.00  0.00    +0.000 A 
ATOM     26  C   UNL     1      -0.783  14.070  22.982  0.00  0.00    +0.000 A 
ATOM     27  C   UNL     1      -1.563  14.808  23.883  0.00  0.00    +0.000 A 
ATOM     28  C   UNL     1      -2.738  14.267  24.394  0.00  0.00    +0.000 A 
ATOM     29  C   UNL     1      -3.123  12.994  23.996  0.00  0.00    +0.000 A 
ATOM     30 CL   UNL     1      -4.578  12.311  24.614  0.00  0.00    +0.000 Cl
ATOM     31  C   UNL     1      -2.341  12.263  23.096  0.00  0.00    +0.000 A 
ENDBRANCH  22  25
ENDBRANCH  18  19
ENDBRANCH  17  18
ENDBRANCH   1  17
TORSDOF 6
ENDMDL
MODEL 5
REMARK VINA RESULT:      -8.0      6.602      8.249
REMARK  Name = 
REMARK  6 active torsions:
REMARK  status: ('A' for Active; 'I' for Inactive)
REMARK    1  A    between atoms: C_2  and  C_4
REMARK    2  A    between atoms: N_12  and  C_13
REMARK    3  A    between atoms: C_13  and  C_14
REMARK    4  A    between atoms: C_14  and  C_15
REMARK    5  A    between atoms: C_15  and  N_16
REMARK    6  A    between atoms: N_19  and  C_20
REMARK                            x       y       z     vdW  Elec       q    Type
REMARK                         _______ _______ _______ _____ _____    ______ ____
ROOT
ATOM      1  C   UNL     1       8.930   9.482  18.913  0.00  0.00    +0.000 C 
ENDROOT
BRANCH   1  10
ATOM      2  C   UNL     1      10.239  14.293  19.614  0.00  0.00    +0.000 A 
ATOM      3  C   UNL     1      10.941  15.203  18.796  0.00  0.00    +0.000 A 
ATOM      4  C   UNL     1      11.458  14.820  17.546  0.00  0.00    +0.000 A 
ATOM      5  C   UNL     1      11.271  13.524  17.068  0.00  0.00    +0.000 A 
ATOM      6  C   UNL     1      10.567  12.631  17.860  0.00  0.00    +0.000 A 
ATOM      7  C   UNL     1      10.073  13.006  19.122  0.00  0.00    +0.000 A 
ATOM      8  C   UNL     1       9.388  11.826  19.675  0.00  0.00    +0.000 C 
ATOM      9  O   UNL     1       8.901  11.737  20.785  0.00  0.00    +0.000 OA
ATOM     10  N   UNL     1       9.440  10.829  18.718  0.00  0.00    +0.000 N 
ATOM     11  C   UNL     1      10.204  11.215  17.550  0.00  0.00    +0.000 C 
BRANCH   2  13
ATOM     12  N   UNL     1       8.544  15.516  20.907  0.00  0.00    +0.000 N 
ATOM     13  C   UNL     1       9.716  14.821  20.899  0.00  0.00    +0.000 C 
ATOM     14  O   UNL     1      10.314  14.609  21.949  0.00  0.00    +0.000 OA
ATOM     15  H   UNL     1       8.308  15.982  21.772  0.00  0.00    +0.000 HD
ATOM     16  H   UNL     1       8.180  15.953  20.062  0.00  0.00    +0.000 HD
ENDBRANCH   2  13
ENDBRANCH   1  10
BRANCH   1  17
ATOM     17  C   UNL     1       8.453   8.863  17.601  0.00  0.00    +0.000 C 
BRANCH  17  18
ATOM     18  C   UNL     1       7.070   8.204  17.707  0.00  0.00    +0.000 C 
BRANCH  18  19
ATOM     19  N   UNL     1       6.970   6.849  17.142  0.00  0.00    +0.000 NA
ATOM     20  C   UNL     1       7.222   5.759  18.114  0.00  0.00    +0.000 C 
ATOM     21  C   UNL     1       6.120   5.529  19.175  0.00  0.00    +0.000 C 
ATOM     22  N   UNL     1       4.797   5.397  18.546  0.00  0.00    +0.000 N 
ATOM     23  C   UNL     1       4.465   6.451  17.572  0.00  0.00    +0.000 C 
ATOM     24  C   UNL     1       5.621   6.631  16.553  0.00  0.00    +0.000 C 
BRANCH  22  25
ATOM     25  C   UNL     1       4.005   4.269  18.664  0.00  0.00    +0.000 A 
ATOM     26  C   UNL     1       4.005   3.244  17.706  0.00  0.00    +0.000 A 
ATOM     27  C   UNL     1       3.191   2.109  17.832  0.00  0.00    +0.000 A 
ATOM     28  C   UNL     1       2.352   1.971  18.932  0.00  0.00    +0.000 A 
ATOM     29  C   UNL     1       2.339   2.967  19.900  0.00  0.00    +0.000 A 
ATOM     30 CL   UNL     1       1.311   2.810  21.271  0.00  0.00    +0.000 Cl
ATOM     31  C   UNL     1       3.154   4.096  19.769  0.00  0.00    +0.000 A 
ENDBRANCH  22  25
ENDBRANCH  18  19
ENDBRANCH  17  18
ENDBRANCH   1  17
TORSDOF 6
ENDMDL
MODEL 6
REMARK VINA RESULT:      -7.9      4.767     11.132
REMARK  Name = 
REMARK  6 active torsions:
REMARK  status: ('A' for Active; 'I' for Inactive)
REMARK    1  A    between atoms: C_2  and  C_4
REMARK    2  A    between atoms: N_12  and  C_13
REMARK    3  A    between atoms: C_13  and  C_14
REMARK    4  A    between atoms: C_14  and  C_15
REMARK    5  A    between atoms: C_15  and  N_16
REMARK    6  A    between atoms: N_19  and  C_20
REMARK                            x       y       z     vdW  Elec       q    Type
REMARK                         _______ _______ _______ _____ _____    ______ ____
ROOT
ATOM      1  C   UNL     1       1.855   8.115  19.138  0.00  0.00    +0.000 C 
ENDROOT
BRANCH   1  10
ATOM      2  C   UNL     1       4.367   4.090  17.454  0.00  0.00    +0.000 A 
ATOM      3  C   UNL     1       5.362   3.951  16.463  0.00  0.00    +0.000 A 
ATOM      4  C   UNL     1       5.801   5.050  15.704  0.00  0.00    +0.000 A 
ATOM      5  C   UNL     1       5.276   6.322  15.927  0.00  0.00    +0.000 A 
ATOM      6  C   UNL     1       4.310   6.466  16.911  0.00  0.00    +0.000 A 
ATOM      7  C   UNL     1       3.852   5.363  17.651  0.00  0.00    +0.000 A 
ATOM      8  C   UNL     1       2.844   5.876  18.595  0.00  0.00    +0.000 C 
ATOM      9  O   UNL     1       2.164   5.208  19.349  0.00  0.00    +0.000 OA
ATOM     10  N   UNL     1       2.784   7.248  18.432  0.00  0.00    +0.000 N 
ATOM     11  C   UNL     1       3.635   7.721  17.360  0.00  0.00    +0.000 C 
BRANCH   2  13
ATOM     12  N   UNL     1       4.789   2.467  19.251  0.00  0.00    +0.000 N 
ATOM     13  C   UNL     1       4.007   2.864  18.209  0.00  0.00    +0.000 C 
ATOM     14  O   UNL     1       2.998   2.229  17.920  0.00  0.00    +0.000 OA
ATOM     15  H   UNL     1       4.592   1.553  19.635  0.00  0.00    +0.000 HD
ATOM     16  H   UNL     1       5.756   2.779  19.339  0.00  0.00    +0.000 HD
ENDBRANCH   2  13
ENDBRANCH   1  10
BRANCH   1  17
ATOM     17  C   UNL     1       1.666   9.448  18.415  0.00  0.00    +0.000 C 
BRANCH  17  18
ATOM     18  C   UNL     1       0.496  10.276  18.964  0.00  0.00    +0.000 C 
BRANCH  18  19
ATOM     19  N   UNL     1       0.869  11.388  19.852  0.00  0.00    +0.000 NA
ATOM     20  C   UNL     1       0.050  12.612  19.682  0.00  0.00    +0.000 C 
ATOM     21  C   UNL     1      -1.406  12.530  20.197  0.00  0.00    +0.000 C 
ATOM     22  N   UNL     1      -1.451  12.039  21.583  0.00  0.00    +0.000 N 
ATOM     23  C   UNL     1      -0.669  10.816  21.833  0.00  0.00    +0.000 C 
ATOM     24  C   UNL     1       0.772  10.970  21.277  0.00  0.00    +0.000 C 
BRANCH  22  25
ATOM     25  C   UNL     1      -1.984  12.764  22.633  0.00  0.00    +0.000 A 
ATOM     26  C   UNL     1      -3.235  12.469  23.197  0.00  0.00    +0.000 A 
ATOM     27  C   UNL     1      -3.768  13.217  24.256  0.00  0.00    +0.000 A 
ATOM     28  C   UNL     1      -3.053  14.287  24.782  0.00  0.00    +0.000 A 
ATOM     29  C   UNL     1      -1.809  14.596  24.249  0.00  0.00    +0.000 A 
ATOM     30 CL   UNL     1      -0.908  15.913  24.894  0.00  0.00    +0.000 Cl
ATOM     31  C   UNL     1      -1.282  13.845  23.194  0.00  0.00    +0.000 A 
ENDBRANCH  22  25
ENDBRANCH  18  19
ENDBRANCH  17  18
ENDBRANCH   1  17
TORSDOF 6
ENDMDL
MODEL 7
REMARK VINA RESULT:      -7.9      4.639     10.724
REMARK  Name = 
REMARK  6 active torsions:
REMARK  status: ('A' for Active; 'I' for Inactive)
REMARK    1  A    between atoms: C_2  and  C_4
REMARK    2  A    between atoms: N_12  and  C_13
REMARK    3  A    between atoms: C_13  and  C_14
REMARK    4  A    between atoms: C_14  and  C_15
REMARK    5  A    between atoms: C_15  and  N_16
REMARK    6  A    between atoms: N_19  and  C_20
REMARK                            x       y       z     vdW  Elec       q    Type
REMARK                         _______ _______ _______ _____ _____    ______ ____
ROOT
ATOM      1  C   UNL     1       2.887   8.691  18.049  0.00  0.00    +0.000 C 
ENDROOT
BRANCH   1  10
ATOM      2  C   UNL     1       4.465   3.998  17.132  0.00  0.00    +0.000 A 
ATOM      3  C   UNL     1       3.823   2.749  17.270  0.00  0.00    +0.000 A 
ATOM      4  C   UNL     1       2.517   2.645  17.777  0.00  0.00    +0.000 A 
ATOM      5  C   UNL     1       1.805   3.787  18.143  0.00  0.00    +0.000 A 
ATOM      6  C   UNL     1       2.425   5.018  17.994  0.00  0.00    +0.000 A 
ATOM      7  C   UNL     1       3.741   5.119  17.511  0.00  0.00    +0.000 A 
ATOM      8  C   UNL     1       4.071   6.555  17.484  0.00  0.00    +0.000 C 
ATOM      9  O   UNL     1       5.151   7.034  17.199  0.00  0.00    +0.000 OA
ATOM     10  N   UNL     1       2.943   7.248  17.881  0.00  0.00    +0.000 N 
ATOM     11  C   UNL     1       1.858   6.373  18.273  0.00  0.00    +0.000 C 
BRANCH   2  13
ATOM     12  N   UNL     1       6.889   4.348  17.337  0.00  0.00    +0.000 N 
ATOM     13  C   UNL     1       5.833   3.982  16.558  0.00  0.00    +0.000 C 
ATOM     14  O   UNL     1       6.019   3.614  15.402  0.00  0.00    +0.000 OA
ATOM     15  H   UNL     1       7.774   4.467  16.863  0.00  0.00    +0.000 HD
ATOM     16  H   UNL     1       6.760   4.918  18.172  0.00  0.00    +0.000 HD
ENDBRANCH   2  13
ENDBRANCH   1  10
BRANCH   1  17
ATOM     17  C   UNL     1       1.498   9.243  17.736  0.00  0.00    +0.000 C 
BRANCH  17  18
ATOM     18  C   UNL     1       0.672   9.556  18.992  0.00  0.00    +0.000 C 
BRANCH  18  19
ATOM     19  N   UNL     1       1.019  10.809  19.681  0.00  0.00    +0.000 NA
ATOM     20  C   UNL     1       0.098  11.938  19.404  0.00  0.00    +0.000 C 
ATOM     21  C   UNL     1      -1.309  11.837  20.039  0.00  0.00    +0.000 C 
ATOM     22  N   UNL     1      -1.221  11.553  21.479  0.00  0.00    +0.000 N 
ATOM     23  C   UNL     1      -0.331  10.435  21.838  0.00  0.00    +0.000 C 
ATOM     24  C   UNL     1       1.052  10.600  21.154  0.00  0.00    +0.000 C 
BRANCH  22  25
ATOM     25  C   UNL     1      -1.733  12.388  22.454  0.00  0.00    +0.000 A 
ATOM     26  C   UNL     1      -1.072  13.552  22.876  0.00  0.00    +0.000 A 
ATOM     27  C   UNL     1      -1.597  14.388  23.872  0.00  0.00    +0.000 A 
ATOM     28  C   UNL     1      -2.812  14.076  24.473  0.00  0.00    +0.000 A 
ATOM     29  C   UNL     1      -3.492  12.935  24.070  0.00  0.00    +0.000 A 
ATOM     30 CL   UNL     1      -4.999  12.537  24.800  0.00  0.00    +0.000 Cl
ATOM     31  C   UNL     1      -2.963  12.106  23.075  0.00  0.00    +0.000 A 
ENDBRANCH  22  25
ENDBRANCH  18  19
ENDBRANCH  17  18
ENDBRANCH   1  17
TORSDOF 6
ENDMDL
MODEL 8
REMARK VINA RESULT:      -7.9      4.532     10.860
REMARK  Name = 
REMARK  6 active torsions:
REMARK  status: ('A' for Active; 'I' for Inactive)
REMARK    1  A    between atoms: C_2  and  C_4
REMARK    2  A    between atoms: N_12  and  C_13
REMARK    3  A    between atoms: C_13  and  C_14
REMARK    4  A    between atoms: C_14  and  C_15
REMARK    5  A    between atoms: C_15  and  N_16
REMARK    6  A    between atoms: N_19  and  C_20
REMARK                            x       y       z     vdW  Elec       q    Type
REMARK                         _______ _______ _______ _____ _____    ______ ____
ROOT
ATOM      1  C   UNL     1       2.143   8.087  18.848  0.00  0.00    +0.000 C 
ENDROOT
BRANCH   1  10
ATOM      2  C   UNL     1       4.226   3.802  17.219  0.00  0.00    +0.000 A 
ATOM      3  C   UNL     1       5.275   3.556  16.309  0.00  0.00    +0.000 A 
ATOM      4  C   UNL     1       5.922   4.604  15.632  0.00  0.00    +0.000 A 
ATOM      5  C   UNL     1       5.556   5.929  15.861  0.00  0.00    +0.000 A 
ATOM      6  C   UNL     1       4.537   6.178  16.767  0.00  0.00    +0.000 A 
ATOM      7  C   UNL     1       3.872   5.128  17.424  0.00  0.00    +0.000 A 
ATOM      8  C   UNL     1       2.864   5.749  18.301  0.00  0.00    +0.000 C 
ATOM      9  O   UNL     1       2.038   5.161  18.970  0.00  0.00    +0.000 OA
ATOM     10  N   UNL     1       3.004   7.120  18.187  0.00  0.00    +0.000 N 
ATOM     11  C   UNL     1       4.000   7.501  17.208  0.00  0.00    +0.000 C 
BRANCH   2  13
ATOM     12  N   UNL     1       4.296   2.055  18.947  0.00  0.00    +0.000 N 
ATOM     13  C   UNL     1       3.639   2.617  17.894  0.00  0.00    +0.000 C 
ATOM     14  O   UNL     1       2.559   2.165  17.530  0.00  0.00    +0.000 OA
ATOM     15  H   UNL     1       3.939   1.168  19.273  0.00  0.00    +0.000 HD
ATOM     16  H   UNL     1       5.294   2.204  19.091  0.00  0.00    +0.000 HD
ENDBRANCH   2  13
ENDBRANCH   1  10
BRANCH   1  17
ATOM     17  C   UNL     1       2.098   9.413  18.091  0.00  0.00    +0.000 C 
BRANCH  17  18
ATOM     18  C   UNL     1       1.163  10.448  18.734  0.00  0.00    +0.000 C 
BRANCH  18  19
ATOM     19  N   UNL     1       0.201   9.912  19.710  0.00  0.00    +0.000 NA
ATOM     20  C   UNL     1       0.403  10.391  21.098  0.00  0.00    +0.000 C 
ATOM     21  C   UNL     1       0.035  11.869  21.366  0.00  0.00    +0.000 C 
ATOM     22  N   UNL     1      -1.319  12.174  20.881  0.00  0.00    +0.000 N 
ATOM     23  C   UNL     1      -1.597  11.739  19.501  0.00  0.00    +0.000 C 
ATOM     24  C   UNL     1      -1.190  10.254  19.308  0.00  0.00    +0.000 C 
BRANCH  22  25
ATOM     25  C   UNL     1      -2.340  12.622  21.700  0.00  0.00    +0.000 A 
ATOM     26  C   UNL     1      -2.126  13.002  23.034  0.00  0.00    +0.000 A 
ATOM     27  C   UNL     1      -3.170  13.446  23.858  0.00  0.00    +0.000 A 
ATOM     28  C   UNL     1      -4.465  13.525  23.359  0.00  0.00    +0.000 A 
ATOM     29  C   UNL     1      -4.704  13.164  22.040  0.00  0.00    +0.000 A 
ATOM     30 CL   UNL     1      -6.301  13.262  21.404  0.00  0.00    +0.000 Cl
ATOM     31  C   UNL     1      -3.658  12.723  21.223  0.00  0.00    +0.000 A 
ENDBRANCH  22  25
ENDBRANCH  18  19
ENDBRANCH  17  18
ENDBRANCH   1  17
TORSDOF 6
ENDMDL
MODEL 9
REMARK VINA RESULT:      -7.9      4.545     10.711
REMARK  Name = 
REMARK  6 active torsions:
REMARK  status: ('A' for Active; 'I' for Inactive)
REMARK    1  A    between atoms: C_2  and  C_4
REMARK    2  A    between atoms: N_12  and  C_13
REMARK    3  A    between atoms: C_13  and  C_14
REMARK    4  A    between atoms: C_14  and  C_15
REMARK    5  A    between atoms: C_15  and  N_16
REMARK    6  A    between atoms: N_19  and  C_20
REMARK                            x       y       z     vdW  Elec       q    Type
REMARK                         _______ _______ _______ _____ _____    ______ ____
ROOT
ATOM      1  C   UNL     1       2.907   8.633  17.966  0.00  0.00    +0.000 C 
ENDROOT
BRANCH   1  10
ATOM      2  C   UNL     1       4.525   3.948  17.080  0.00  0.00    +0.000 A 
ATOM      3  C   UNL     1       3.898   2.694  17.236  0.00  0.00    +0.000 A 
ATOM      4  C   UNL     1       2.598   2.582  17.757  0.00  0.00    +0.000 A 
ATOM      5  C   UNL     1       1.878   3.719  18.119  0.00  0.00    +0.000 A 
ATOM      6  C   UNL     1       2.483   4.955  17.952  0.00  0.00    +0.000 A 
ATOM      7  C   UNL     1       3.793   5.065  17.455  0.00  0.00    +0.000 A 
ATOM      8  C   UNL     1       4.108   6.504  17.410  0.00  0.00    +0.000 C 
ATOM      9  O   UNL     1       5.180   6.992  17.110  0.00  0.00    +0.000 OA
ATOM     10  N   UNL     1       2.977   7.189  17.811  0.00  0.00    +0.000 N 
ATOM     11  C   UNL     1       1.905   6.307  18.223  0.00  0.00    +0.000 C 
BRANCH   2  13
ATOM     12  N   UNL     1       6.953   4.274  17.272  0.00  0.00    +0.000 N 
ATOM     13  C   UNL     1       5.887   3.941  16.491  0.00  0.00    +0.000 C 
ATOM     14  O   UNL     1       6.059   3.608  15.323  0.00  0.00    +0.000 OA
ATOM     15  H   UNL     1       7.834   4.402  16.793  0.00  0.00    +0.000 HD
ATOM     16  H   UNL     1       6.837   4.819  18.125  0.00  0.00    +0.000 HD
ENDBRANCH   2  13
ENDBRANCH   1  10
BRANCH   1  17
ATOM     17  C   UNL     1       1.466   9.117  18.107  0.00  0.00    +0.000 C 
BRANCH  17  18
ATOM     18  C   UNL     1       1.358  10.589  18.532  0.00  0.00    +0.000 C 
BRANCH  18  19
ATOM     19  N   UNL     1      -0.011  11.095  18.719  0.00  0.00    +0.000 NA
ATOM     20  C   UNL     1      -0.752  10.462  19.837  0.00  0.00    +0.000 C 
ATOM     21  C   UNL     1      -0.286  10.846  21.262  0.00  0.00    +0.000 C 
ATOM     22  N   UNL     1      -0.212  12.306  21.420  0.00  0.00    +0.000 N 
ATOM     23  C   UNL     1       0.519  13.010  20.352  0.00  0.00    +0.000 C 
ATOM     24  C   UNL     1       0.006  12.563  18.957  0.00  0.00    +0.000 C 
BRANCH  22  25
ATOM     25  C   UNL     1      -0.949  13.011  22.354  0.00  0.00    +0.000 A 
ATOM     26  C   UNL     1      -0.617  14.316  22.750  0.00  0.00    +0.000 A 
ATOM     27  C   UNL     1      -1.367  15.017  23.704  0.00  0.00    +0.000 A 
ATOM     28  C   UNL     1      -2.481  14.424  24.288  0.00  0.00    +0.000 A 
ATOM     29  C   UNL     1      -2.837  13.137  23.909  0.00  0.00    +0.000 A 
ATOM     30 CL   UNL     1      -4.217  12.390  24.617  0.00  0.00    +0.000 Cl
ATOM     31  C   UNL     1      -2.086  12.443  22.955  0.00  0.00    +0.000 A 
ENDBRANCH  22  25
ENDBRANCH  18  19
ENDBRANCH  17  18
ENDBRANCH   1  17
TORSDOF 6
ENDMDL
