MODEL 1
REMARK VINA RESULT:      -7.3      0.000      0.000
REMARK  Name = 
REMARK  7 active torsions:
REMARK  status: ('A' for Active; 'I' for Inactive)
REMARK    1  A    between atoms: C_1  and  C_2
REMARK    2  A    between atoms: C_2  and  O_3
REMARK    3  A    between atoms: C_4  and  O_5
REMARK    4  A    between atoms: C_6  and  C_7
REMARK    5  A    between atoms: C_7  and  O_8
REMARK    6  A    between atoms: C_10  and  C_11
REMARK    7  A    between atoms: C_10  and  N_13
REMARK                            x       y       z     vdW  Elec       q    Type
REMARK                         _______ _______ _______ _____ _____    ______ ____
ROOT
ATOM      1  C   UNL     1       4.067   6.510  17.294  0.00  0.00    +0.000 C 
ATOM      2  C   UNL     1       4.316   5.441  18.362  0.00  0.00    +0.000 C 
ATOM      3  C   UNL     1       3.289   4.305  18.286  0.00  0.00    +0.000 C 
ATOM      4  C   UNL     1       3.998   3.200  19.055  0.00  0.00    +0.000 C 
ATOM      5  O   UNL     1       5.360   3.249  18.605  0.00  0.00    +0.000 OA
ATOM      6  C   UNL     1       5.690   4.645  18.263  0.00  0.00    +0.000 C 
ENDROOT
BRANCH   6   7
ATOM      7  N   UNL     1       6.266   4.627  16.883  0.00  0.00    +0.000 N 
ATOM      8  C   UNL     1       5.721   3.806  15.912  0.00  0.00    +0.000 A 
ATOM      9  C   UNL     1       6.055   3.907  14.628  0.00  0.00    +0.000 A 
ATOM     10  C   UNL     1       7.062   4.928  14.306  0.00  0.00    +0.000 A 
ATOM     11  N   UNL     1       7.468   5.077  13.010  0.00  0.00    +0.000 N 
ATOM     12  N   UNL     1       7.585   5.700  15.201  0.00  0.00    +0.000 NA
ATOM     13  C   UNL     1       7.176   5.629  16.512  0.00  0.00    +0.000 A 
ATOM     14  O   UNL     1       7.573   6.456  17.325  0.00  0.00    +0.000 OA
ATOM     15  H   UNL     1       7.371   4.298  12.374  0.00  0.00    +0.000 HD
ATOM     16  H   UNL     1       8.340   5.591  12.914  0.00  0.00    +0.000 HD
ENDBRANCH   6   7
BRANCH   2  17
ATOM     17  O   UNL     1       4.111   6.066  19.656  0.00  0.00    +0.000 OA
ATOM     18  H   UNL     1       3.157   6.032  19.858  0.00  0.00    +0.000 HD
ENDBRANCH   2  17
BRANCH   3  19
ATOM     19  O   UNL     1       2.041   4.669  18.875  0.00  0.00    +0.000 OA
ATOM     20  H   UNL     1       1.374   4.036  18.548  0.00  0.00    +0.000 HD
ENDBRANCH   3  19
BRANCH   6  21
ATOM     21  C   UNL     1       6.655   5.096  19.323  0.00  0.00    +0.000 C 
ATOM     22  N   UNL     1       7.353   5.397  20.201  0.00  0.00    +0.000 NA
ENDBRANCH   6  21
BRANCH   4  23
ATOM     23  C   UNL     1       3.417   1.806  18.828  0.00  0.00    +0.000 C 
BRANCH  23  24
ATOM     24  O   UNL     1       2.411   1.825  17.816  0.00  0.00    +0.000 OA
ATOM     25  H   UNL     1       2.430   2.722  17.435  0.00  0.00    +0.000 HD
ENDBRANCH  23  24
ENDBRANCH   4  23
TORSDOF 6
ENDMDL
MODEL 2
REMARK VINA RESULT:      -6.3      1.922      2.841
REMARK  Name = 
REMARK  7 active torsions:
REMARK  status: ('A' for Active; 'I' for Inactive)
REMARK    1  A    between atoms: C_1  and  C_2
REMARK    2  A    between atoms: C_2  and  O_3
REMARK    3  A    between atoms: C_4  and  O_5
REMARK    4  A    between atoms: C_6  and  C_7
REMARK    5  A    between atoms: C_7  and  O_8
REMARK    6  A    between atoms: C_10  and  C_11
REMARK    7  A    between atoms: C_10  and  N_13
REMARK                            x       y       z     vdW  Elec       q    Type
REMARK                         _______ _______ _______ _____ _____    ______ ____
ROOT
ATOM      1  C   UNL     1       2.590   3.731  16.663  0.00  0.00    +0.000 C 
ATOM      2  C   UNL     1       2.614   3.820  18.191  0.00  0.00    +0.000 C 
ATOM      3  C   UNL     1       3.031   2.493  18.836  0.00  0.00    +0.000 C 
ATOM      4  C   UNL     1       3.444   2.945  20.228  0.00  0.00    +0.000 C 
ATOM      5  O   UNL     1       4.196   4.151  20.020  0.00  0.00    +0.000 OA
ATOM      6  C   UNL     1       3.661   4.835  18.827  0.00  0.00    +0.000 C 
ENDROOT
BRANCH   6   7
ATOM      7  N   UNL     1       4.827   5.119  17.934  0.00  0.00    +0.000 N 
ATOM      8  C   UNL     1       5.877   4.222  17.854  0.00  0.00    +0.000 A 
ATOM      9  C   UNL     1       6.826   4.322  16.927  0.00  0.00    +0.000 A 
ATOM     10  C   UNL     1       6.708   5.464  16.009  0.00  0.00    +0.000 A 
ATOM     11  N   UNL     1       7.657   5.641  15.042  0.00  0.00    +0.000 N 
ATOM     12  N   UNL     1       5.736   6.314  16.072  0.00  0.00    +0.000 NA
ATOM     13  C   UNL     1       4.727   6.154  16.992  0.00  0.00    +0.000 A 
ATOM     14  O   UNL     1       3.740   6.882  16.954  0.00  0.00    +0.000 OA
ATOM     15  H   UNL     1       8.576   5.244  15.179  0.00  0.00    +0.000 HD
ATOM     16  H   UNL     1       7.659   6.576  14.642  0.00  0.00    +0.000 HD
ENDBRANCH   6   7
BRANCH   2  17
ATOM     17  O   UNL     1       1.252   4.056  18.633  0.00  0.00    +0.000 OA
ATOM     18  H   UNL     1       1.288   4.613  19.433  0.00  0.00    +0.000 HD
ENDBRANCH   2  17
BRANCH   3  19
ATOM     19  O   UNL     1       1.962   1.548  18.861  0.00  0.00    +0.000 OA
ATOM     20  H   UNL     1       1.227   1.959  19.355  0.00  0.00    +0.000 HD
ENDBRANCH   3  19
BRANCH   6  21
ATOM     21  C   UNL     1       2.975   6.065  19.349  0.00  0.00    +0.000 C 
ATOM     22  N   UNL     1       2.413   6.966  19.819  0.00  0.00    +0.000 NA
ENDBRANCH   6  21
BRANCH   4  23
ATOM     23  C   UNL     1       4.283   1.926  20.995  0.00  0.00    +0.000 C 
BRANCH  23  24
ATOM     24  O   UNL     1       5.331   1.404  20.181  0.00  0.00    +0.000 OA
ATOM     25  H   UNL     1       5.005   1.446  19.264  0.00  0.00    +0.000 HD
ENDBRANCH  23  24
ENDBRANCH   4  23
TORSDOF 6
ENDMDL
MODEL 3
REMARK VINA RESULT:      -6.3      2.438      5.156
REMARK  Name = 
REMARK  7 active torsions:
REMARK  status: ('A' for Active; 'I' for Inactive)
REMARK    1  A    between atoms: C_1  and  C_2
REMARK    2  A    between atoms: C_2  and  O_3
REMARK    3  A    between atoms: C_4  and  O_5
REMARK    4  A    between atoms: C_6  and  C_7
REMARK    5  A    between atoms: C_7  and  O_8
REMARK    6  A    between atoms: C_10  and  C_11
REMARK    7  A    between atoms: C_10  and  N_13
REMARK                            x       y       z     vdW  Elec       q    Type
REMARK                         _______ _______ _______ _____ _____    ______ ____
ROOT
ATOM      1  C   UNL     1       4.143   7.167  16.900  0.00  0.00    +0.000 C 
ATOM      2  C   UNL     1       5.420   6.324  16.852  0.00  0.00    +0.000 C 
ATOM      3  C   UNL     1       6.470   6.819  17.855  0.00  0.00    +0.000 C 
ATOM      4  C   UNL     1       7.378   5.603  17.971  0.00  0.00    +0.000 C 
ATOM      5  O   UNL     1       6.487   4.479  18.040  0.00  0.00    +0.000 OA
ATOM      6  C   UNL     1       5.276   4.793  17.260  0.00  0.00    +0.000 C 
ENDROOT
BRANCH   6   7
ATOM      7  N   UNL     1       4.106   4.525  18.152  0.00  0.00    +0.000 N 
ATOM      8  C   UNL     1       2.819   4.762  17.702  0.00  0.00    +0.000 A 
ATOM      9  C   UNL     1       1.746   4.346  18.369  0.00  0.00    +0.000 A 
ATOM     10  C   UNL     1       2.010   3.642  19.632  0.00  0.00    +0.000 A 
ATOM     11  N   UNL     1       0.956   3.201  20.381  0.00  0.00    +0.000 N 
ATOM     12  N   UNL     1       3.205   3.416  20.070  0.00  0.00    +0.000 NA
ATOM     13  C   UNL     1       4.303   3.792  19.331  0.00  0.00    +0.000 A 
ATOM     14  O   UNL     1       5.427   3.451  19.684  0.00  0.00    +0.000 OA
ATOM     15  H   UNL     1       0.057   3.651  20.274  0.00  0.00    +0.000 HD
ATOM     16  H   UNL     1       1.204   2.981  21.342  0.00  0.00    +0.000 HD
ENDBRANCH   6   7
BRANCH   2  17
ATOM     17  O   UNL     1       6.015   6.512  15.542  0.00  0.00    +0.000 OA
ATOM     18  H   UNL     1       6.294   7.444  15.469  0.00  0.00    +0.000 HD
ENDBRANCH   2  17
BRANCH   3  19
ATOM     19  O   UNL     1       7.160   7.975  17.384  0.00  0.00    +0.000 OA
ATOM     20  H   UNL     1       7.605   8.378  18.154  0.00  0.00    +0.000 HD
ENDBRANCH   3  19
BRANCH   6  21
ATOM     21  C   UNL     1       5.341   3.903  16.051  0.00  0.00    +0.000 C 
ATOM     22  N   UNL     1       5.438   3.279  15.076  0.00  0.00    +0.000 NA
ENDBRANCH   6  21
BRANCH   4  23
ATOM     23  C   UNL     1       8.299   5.623  19.189  0.00  0.00    +0.000 C 
BRANCH  23  24
ATOM     24  O   UNL     1       7.559   5.456  20.397  0.00  0.00    +0.000 OA
ATOM     25  H   UNL     1       7.816   6.199  20.974  0.00  0.00    +0.000 HD
ENDBRANCH  23  24
ENDBRANCH   4  23
TORSDOF 6
ENDMDL
MODEL 4
REMARK VINA RESULT:      -6.2      1.731      2.438
REMARK  Name = 
REMARK  7 active torsions:
REMARK  status: ('A' for Active; 'I' for Inactive)
REMARK    1  A    between atoms: C_1  and  C_2
REMARK    2  A    between atoms: C_2  and  O_3
REMARK    3  A    between atoms: C_4  and  O_5
REMARK    4  A    between atoms: C_6  and  C_7
REMARK    5  A    between atoms: C_7  and  O_8
REMARK    6  A    between atoms: C_10  and  C_11
REMARK    7  A    between atoms: C_10  and  N_13
REMARK                            x       y       z     vdW  Elec       q    Type
REMARK                         _______ _______ _______ _____ _____    ______ ____
ROOT
ATOM      1  C   UNL     1       2.643   3.220  16.690  0.00  0.00    +0.000 C 
ATOM      2  C   UNL     1       3.014   3.350  18.170  0.00  0.00    +0.000 C 
ATOM      3  C   UNL     1       3.434   2.006  18.775  0.00  0.00    +0.000 C 
ATOM      4  C   UNL     1       4.188   2.453  20.019  0.00  0.00    +0.000 C 
ATOM      5  O   UNL     1       4.987   3.566  19.590  0.00  0.00    +0.000 OA
ATOM      6  C   UNL     1       4.270   4.267  18.509  0.00  0.00    +0.000 C 
ENDROOT
BRANCH   6   7
ATOM      7  N   UNL     1       5.230   4.402  17.369  0.00  0.00    +0.000 N 
ATOM      8  C   UNL     1       4.761   4.613  16.085  0.00  0.00    +0.000 A 
ATOM      9  C   UNL     1       5.567   4.947  15.081  0.00  0.00    +0.000 A 
ATOM     10  C   UNL     1       6.995   5.051  15.413  0.00  0.00    +0.000 A 
ATOM     11  N   UNL     1       7.885   5.373  14.429  0.00  0.00    +0.000 N 
ATOM     12  N   UNL     1       7.451   4.853  16.607  0.00  0.00    +0.000 NA
ATOM     13  C   UNL     1       6.594   4.577  17.646  0.00  0.00    +0.000 A 
ATOM     14  O   UNL     1       7.018   4.529  18.796  0.00  0.00    +0.000 OA
ATOM     15  H   UNL     1       7.641   5.185  13.467  0.00  0.00    +0.000 HD
ATOM     16  H   UNL     1       8.850   5.158  14.667  0.00  0.00    +0.000 HD
ENDBRANCH   6   7
BRANCH   2  17
ATOM     17  O   UNL     1       1.814   3.741  18.885  0.00  0.00    +0.000 OA
ATOM     18  H   UNL     1       1.048   3.563  18.307  0.00  0.00    +0.000 HD
ENDBRANCH   2  17
BRANCH   3  19
ATOM     19  O   UNL     1       2.312   1.181  19.082  0.00  0.00    +0.000 OA
ATOM     20  H   UNL     1       2.369   0.958  20.030  0.00  0.00    +0.000 HD
ENDBRANCH   3  19
BRANCH   6  21
ATOM     21  C   UNL     1       3.838   5.578  19.104  0.00  0.00    +0.000 C 
ATOM     22  N   UNL     1       3.437   6.590  19.507  0.00  0.00    +0.000 NA
ENDBRANCH   6  21
BRANCH   4  23
ATOM     23  C   UNL     1       5.075   1.374  20.636  0.00  0.00    +0.000 C 
BRANCH  23  24
ATOM     24  O   UNL     1       5.257   0.280  19.738  0.00  0.00    +0.000 OA
ATOM     25  H   UNL     1       6.153  -0.062  19.911  0.00  0.00    +0.000 HD
ENDBRANCH  23  24
ENDBRANCH   4  23
TORSDOF 6
ENDMDL
MODEL 5
REMARK VINA RESULT:      -6.1      3.027      5.528
REMARK  Name = 
REMARK  7 active torsions:
REMARK  status: ('A' for Active; 'I' for Inactive)
REMARK    1  A    between atoms: C_1  and  C_2
REMARK    2  A    between atoms: C_2  and  O_3
REMARK    3  A    between atoms: C_4  and  O_5
REMARK    4  A    between atoms: C_6  and  C_7
REMARK    5  A    between atoms: C_7  and  O_8
REMARK    6  A    between atoms: C_10  and  C_11
REMARK    7  A    between atoms: C_10  and  N_13
REMARK                            x       y       z     vdW  Elec       q    Type
REMARK                         _______ _______ _______ _____ _____    ______ ____
ROOT
ATOM      1  C   UNL     1       2.583   3.664  17.265  0.00  0.00    +0.000 C 
ATOM      2  C   UNL     1       4.063   3.501  17.624  0.00  0.00    +0.000 C 
ATOM      3  C   UNL     1       4.962   4.405  16.772  0.00  0.00    +0.000 C 
ATOM      4  C   UNL     1       6.236   4.438  17.602  0.00  0.00    +0.000 C 
ATOM      5  O   UNL     1       5.793   4.586  18.960  0.00  0.00    +0.000 OA
ATOM      6  C   UNL     1       4.486   3.917  19.100  0.00  0.00    +0.000 C 
ENDROOT
BRANCH   6   7
ATOM      7  N   UNL     1       3.557   4.910  19.724  0.00  0.00    +0.000 N 
ATOM      8  C   UNL     1       3.582   6.234  19.322  0.00  0.00    +0.000 A 
ATOM      9  C   UNL     1       2.644   7.104  19.687  0.00  0.00    +0.000 A 
ATOM     10  C   UNL     1       1.592   6.580  20.570  0.00  0.00    +0.000 A 
ATOM     11  N   UNL     1       0.605   7.420  21.001  0.00  0.00    +0.000 N 
ATOM     12  N   UNL     1       1.556   5.347  20.959  0.00  0.00    +0.000 NA
ATOM     13  C   UNL     1       2.495   4.446  20.514  0.00  0.00    +0.000 A 
ATOM     14  O   UNL     1       2.374   3.254  20.775  0.00  0.00    +0.000 OA
ATOM     15  H   UNL     1       0.784   8.414  21.025  0.00  0.00    +0.000 HD
ATOM     16  H   UNL     1       0.093   7.066  21.805  0.00  0.00    +0.000 HD
ENDBRANCH   6   7
BRANCH   2  17
ATOM     17  O   UNL     1       4.444   2.142  17.284  0.00  0.00    +0.000 OA
ATOM     18  H   UNL     1       4.314   2.025  16.324  0.00  0.00    +0.000 HD
ENDBRANCH   2  17
BRANCH   3  19
ATOM     19  O   UNL     1       5.172   3.876  15.465  0.00  0.00    +0.000 OA
ATOM     20  H   UNL     1       4.300   3.826  15.031  0.00  0.00    +0.000 HD
ENDBRANCH   3  19
BRANCH   6  21
ATOM     21  C   UNL     1       4.748   2.706  19.950  0.00  0.00    +0.000 C 
ATOM     22  N   UNL     1       5.008   1.743  20.545  0.00  0.00    +0.000 NA
ENDBRANCH   6  21
BRANCH   4  23
ATOM     23  C   UNL     1       7.195   5.569  17.235  0.00  0.00    +0.000 C 
BRANCH  23  24
ATOM     24  O   UNL     1       7.434   5.605  15.829  0.00  0.00    +0.000 OA
ATOM     25  H   UNL     1       6.637   5.231  15.411  0.00  0.00    +0.000 HD
ENDBRANCH  23  24
ENDBRANCH   4  23
TORSDOF 6
ENDMDL
MODEL 6
REMARK VINA RESULT:      -6.1      2.195      3.338
REMARK  Name = 
REMARK  7 active torsions:
REMARK  status: ('A' for Active; 'I' for Inactive)
REMARK    1  A    between atoms: C_1  and  C_2
REMARK    2  A    between atoms: C_2  and  O_3
REMARK    3  A    between atoms: C_4  and  O_5
REMARK    4  A    between atoms: C_6  and  C_7
REMARK    5  A    between atoms: C_7  and  O_8
REMARK    6  A    between atoms: C_10  and  C_11
REMARK    7  A    between atoms: C_10  and  N_13
REMARK                            x       y       z     vdW  Elec       q    Type
REMARK                         _______ _______ _______ _____ _____    ______ ____
ROOT
ATOM      1  C   UNL     1       2.557   3.837  16.820  0.00  0.00    +0.000 C 
ATOM      2  C   UNL     1       2.519   3.732  18.347  0.00  0.00    +0.000 C 
ATOM      3  C   UNL     1       3.122   2.414  18.846  0.00  0.00    +0.000 C 
ATOM      4  C   UNL     1       3.414   2.743  20.302  0.00  0.00    +0.000 C 
ATOM      5  O   UNL     1       3.970   4.067  20.281  0.00  0.00    +0.000 OA
ATOM      6  C   UNL     1       3.370   4.807  19.154  0.00  0.00    +0.000 C 
ENDROOT
BRANCH   6   7
ATOM      7  N   UNL     1       4.503   5.380  18.363  0.00  0.00    +0.000 N 
ATOM      8  C   UNL     1       4.300   6.487  17.559  0.00  0.00    +0.000 A 
ATOM      9  C   UNL     1       5.308   7.157  17.007  0.00  0.00    +0.000 A 
ATOM     10  C   UNL     1       6.653   6.631  17.279  0.00  0.00    +0.000 A 
ATOM     11  N   UNL     1       7.736   7.257  16.730  0.00  0.00    +0.000 N 
ATOM     12  N   UNL     1       6.861   5.595  18.023  0.00  0.00    +0.000 NA
ATOM     13  C   UNL     1       5.812   4.958  18.643  0.00  0.00    +0.000 A 
ATOM     14  O   UNL     1       6.028   4.065  19.456  0.00  0.00    +0.000 OA
ATOM     15  H   UNL     1       7.610   7.811  15.894  0.00  0.00    +0.000 HD
ATOM     16  H   UNL     1       8.579   6.689  16.734  0.00  0.00    +0.000 HD
ENDBRANCH   6   7
BRANCH   2  17
ATOM     17  O   UNL     1       1.123   3.696  18.744  0.00  0.00    +0.000 OA
ATOM     18  H   UNL     1       0.619   3.263  18.030  0.00  0.00    +0.000 HD
ENDBRANCH   2  17
BRANCH   3  19
ATOM     19  O   UNL     1       2.217   1.320  18.702  0.00  0.00    +0.000 OA
ATOM     20  H   UNL     1       1.324   1.699  18.594  0.00  0.00    +0.000 HD
ENDBRANCH   3  19
BRANCH   6  21
ATOM     21  C   UNL     1       2.480   5.839  19.786  0.00  0.00    +0.000 C 
ATOM     22  N   UNL     1       1.815   6.692  20.208  0.00  0.00    +0.000 NA
ENDBRANCH   6  21
BRANCH   4  23
ATOM     23  C   UNL     1       4.381   1.776  20.982  0.00  0.00    +0.000 C 
BRANCH  23  24
ATOM     24  O   UNL     1       5.265   1.180  20.035  0.00  0.00    +0.000 OA
ATOM     25  H   UNL     1       5.594   1.909  19.478  0.00  0.00    +0.000 HD
ENDBRANCH  23  24
ENDBRANCH   4  23
TORSDOF 6
ENDMDL
MODEL 7
REMARK VINA RESULT:      -6.1      2.740      5.149
REMARK  Name = 
REMARK  7 active torsions:
REMARK  status: ('A' for Active; 'I' for Inactive)
REMARK    1  A    between atoms: C_1  and  C_2
REMARK    2  A    between atoms: C_2  and  O_3
REMARK    3  A    between atoms: C_4  and  O_5
REMARK    4  A    between atoms: C_6  and  C_7
REMARK    5  A    between atoms: C_7  and  O_8
REMARK    6  A    between atoms: C_10  and  C_11
REMARK    7  A    between atoms: C_10  and  N_13
REMARK                            x       y       z     vdW  Elec       q    Type
REMARK                         _______ _______ _______ _____ _____    ______ ____
ROOT
ATOM      1  C   UNL     1       5.682   4.417  19.356  0.00  0.00    +0.000 C 
ATOM      2  C   UNL     1       5.823   5.215  18.057  0.00  0.00    +0.000 C 
ATOM      3  C   UNL     1       6.632   4.452  17.001  0.00  0.00    +0.000 C 
ATOM      4  C   UNL     1       6.229   5.176  15.725  0.00  0.00    +0.000 C 
ATOM      5  O   UNL     1       4.811   5.374  15.841  0.00  0.00    +0.000 OA
ATOM      6  C   UNL     1       4.477   5.533  17.269  0.00  0.00    +0.000 C 
ENDROOT
BRANCH   6   7
ATOM      7  N   UNL     1       3.375   4.566  17.565  0.00  0.00    +0.000 N 
ATOM      8  C   UNL     1       3.373   3.313  16.980  0.00  0.00    +0.000 A 
ATOM      9  C   UNL     1       2.542   2.349  17.368  0.00  0.00    +0.000 A 
ATOM     10  C   UNL     1       1.603   2.707  18.441  0.00  0.00    +0.000 A 
ATOM     11  N   UNL     1       0.707   1.774  18.880  0.00  0.00    +0.000 N 
ATOM     12  N   UNL     1       1.588   3.874  18.996  0.00  0.00    +0.000 NA
ATOM     13  C   UNL     1       2.502   4.834  18.630  0.00  0.00    +0.000 A 
ATOM     14  O   UNL     1       2.572   5.887  19.255  0.00  0.00    +0.000 OA
ATOM     15  H   UNL     1       0.447   1.017  18.262  0.00  0.00    +0.000 HD
ATOM     16  H   UNL     1      -0.066   2.169  19.407  0.00  0.00    +0.000 HD
ENDBRANCH   6   7
BRANCH   2  17
ATOM     17  O   UNL     1       6.600   6.402  18.360  0.00  0.00    +0.000 OA
ATOM     18  H   UNL     1       6.787   6.402  19.318  0.00  0.00    +0.000 HD
ENDBRANCH   2  17
BRANCH   3  19
ATOM     19  O   UNL     1       8.036   4.518  17.249  0.00  0.00    +0.000 OA
ATOM     20  H   UNL     1       8.292   3.678  17.674  0.00  0.00    +0.000 HD
ENDBRANCH   3  19
BRANCH   6  21
ATOM     21  C   UNL     1       4.086   6.975  17.427  0.00  0.00    +0.000 C 
ATOM     22  N   UNL     1       3.812   8.103  17.466  0.00  0.00    +0.000 NA
ENDBRANCH   6  21
BRANCH   4  23
ATOM     23  C   UNL     1       6.551   4.412  14.443  0.00  0.00    +0.000 C 
BRANCH  23  24
ATOM     24  O   UNL     1       7.381   5.186  13.577  0.00  0.00    +0.000 OA
ATOM     25  H   UNL     1       8.101   5.533  14.134  0.00  0.00    +0.000 HD
ENDBRANCH  23  24
ENDBRANCH   4  23
TORSDOF 6
ENDMDL
MODEL 8
REMARK VINA RESULT:      -6.0      2.700      5.288
REMARK  Name = 
REMARK  7 active torsions:
REMARK  status: ('A' for Active; 'I' for Inactive)
REMARK    1  A    between atoms: C_1  and  C_2
REMARK    2  A    between atoms: C_2  and  O_3
REMARK    3  A    between atoms: C_4  and  O_5
REMARK    4  A    between atoms: C_6  and  C_7
REMARK    5  A    between atoms: C_7  and  O_8
REMARK    6  A    between atoms: C_10  and  C_11
REMARK    7  A    between atoms: C_10  and  N_13
REMARK                            x       y       z     vdW  Elec       q    Type
REMARK                         _______ _______ _______ _____ _____    ______ ____
ROOT
ATOM      1  C   UNL     1       6.318   5.405  19.467  0.00  0.00    +0.000 C 
ATOM      2  C   UNL     1       5.844   5.640  18.030  0.00  0.00    +0.000 C 
ATOM      3  C   UNL     1       6.402   4.588  17.064  0.00  0.00    +0.000 C 
ATOM      4  C   UNL     1       5.453   4.723  15.883  0.00  0.00    +0.000 C 
ATOM      5  O   UNL     1       4.146   4.845  16.467  0.00  0.00    +0.000 OA
ATOM      6  C   UNL     1       4.279   5.524  17.770  0.00  0.00    +0.000 C 
ENDROOT
BRANCH   6   7
ATOM      7  N   UNL     1       3.573   4.670  18.776  0.00  0.00    +0.000 N 
ATOM      8  C   UNL     1       3.737   3.297  18.760  0.00  0.00    +0.000 A 
ATOM      9  C   UNL     1       3.307   2.520  19.750  0.00  0.00    +0.000 A 
ATOM     10  C   UNL     1       2.620   3.207  20.853  0.00  0.00    +0.000 A 
ATOM     11  N   UNL     1       2.136   2.471  21.897  0.00  0.00    +0.000 N 
ATOM     12  N   UNL     1       2.455   4.489  20.882  0.00  0.00    +0.000 NA
ATOM     13  C   UNL     1       2.968   5.283  19.883  0.00  0.00    +0.000 A 
ATOM     14  O   UNL     1       2.929   6.504  19.988  0.00  0.00    +0.000 OA
ATOM     15  H   UNL     1       1.925   1.494  21.750  0.00  0.00    +0.000 HD
ATOM     16  H   UNL     1       1.452   2.968  22.461  0.00  0.00    +0.000 HD
ENDBRANCH   6   7
BRANCH   2  17
ATOM     17  O   UNL     1       6.402   6.906  17.591  0.00  0.00    +0.000 OA
ATOM     18  H   UNL     1       6.214   7.571  18.279  0.00  0.00    +0.000 HD
ENDBRANCH   2  17
BRANCH   3  19
ATOM     19  O   UNL     1       7.759   4.850  16.709  0.00  0.00    +0.000 OA
ATOM     20  H   UNL     1       7.842   4.686  15.750  0.00  0.00    +0.000 HD
ENDBRANCH   3  19
BRANCH   6  21
ATOM     21  C   UNL     1       3.660   6.879  17.575  0.00  0.00    +0.000 C 
ATOM     22  N   UNL     1       3.254   7.949  17.378  0.00  0.00    +0.000 NA
ENDBRANCH   6  21
BRANCH   4  23
ATOM     23  C   UNL     1       5.488   3.545  14.912  0.00  0.00    +0.000 C 
BRANCH  23  24
ATOM     24  O   UNL     1       6.617   3.626  14.044  0.00  0.00    +0.000 OA
ATOM     25  H   UNL     1       7.393   3.407  14.591  0.00  0.00    +0.000 HD
ENDBRANCH  23  24
ENDBRANCH   4  23
TORSDOF 6
ENDMDL
MODEL 9
REMARK VINA RESULT:      -6.0      2.797      5.332
REMARK  Name = 
REMARK  7 active torsions:
REMARK  status: ('A' for Active; 'I' for Inactive)
REMARK    1  A    between atoms: C_1  and  C_2
REMARK    2  A    between atoms: C_2  and  O_3
REMARK    3  A    between atoms: C_4  and  O_5
REMARK    4  A    between atoms: C_6  and  C_7
REMARK    5  A    between atoms: C_7  and  O_8
REMARK    6  A    between atoms: C_10  and  C_11
REMARK    7  A    between atoms: C_10  and  N_13
REMARK                            x       y       z     vdW  Elec       q    Type
REMARK                         _______ _______ _______ _____ _____    ______ ____
ROOT
ATOM      1  C   UNL     1       6.559   5.473  19.380  0.00  0.00    +0.000 C 
ATOM      2  C   UNL     1       5.979   5.693  17.980  0.00  0.00    +0.000 C 
ATOM      3  C   UNL     1       6.461   4.629  16.986  0.00  0.00    +0.000 C 
ATOM      4  C   UNL     1       5.425   4.753  15.879  0.00  0.00    +0.000 C 
ATOM      5  O   UNL     1       4.167   4.884  16.559  0.00  0.00    +0.000 OA
ATOM      6  C   UNL     1       4.398   5.578  17.840  0.00  0.00    +0.000 C 
ENDROOT
BRANCH   6   7
ATOM      7  N   UNL     1       3.769   4.737  18.905  0.00  0.00    +0.000 N 
ATOM      8  C   UNL     1       3.146   5.335  19.986  0.00  0.00    +0.000 A 
ATOM      9  C   UNL     1       2.395   4.647  20.841  0.00  0.00    +0.000 A 
ATOM     10  C   UNL     1       2.290   3.203  20.586  0.00  0.00    +0.000 A 
ATOM     11  N   UNL     1       1.551   2.429  21.434  0.00  0.00    +0.000 N 
ATOM     12  N   UNL     1       2.870   2.628  19.584  0.00  0.00    +0.000 NA
ATOM     13  C   UNL     1       3.584   3.366  18.670  0.00  0.00    +0.000 A 
ATOM     14  O   UNL     1       4.012   2.836  17.650  0.00  0.00    +0.000 OA
ATOM     15  H   UNL     1       1.395   2.750  22.380  0.00  0.00    +0.000 HD
ATOM     16  H   UNL     1       1.750   1.435  21.355  0.00  0.00    +0.000 HD
ENDBRANCH   6   7
BRANCH   2  17
ATOM     17  O   UNL     1       6.504   6.953  17.486  0.00  0.00    +0.000 OA
ATOM     18  H   UNL     1       6.235   7.655  18.108  0.00  0.00    +0.000 HD
ENDBRANCH   2  17
BRANCH   3  19
ATOM     19  O   UNL     1       7.788   4.884  16.527  0.00  0.00    +0.000 OA
ATOM     20  H   UNL     1       7.752   4.920  15.553  0.00  0.00    +0.000 HD
ENDBRANCH   3  19
BRANCH   6  21
ATOM     21  C   UNL     1       3.769   6.932  17.677  0.00  0.00    +0.000 C 
ATOM     22  N   UNL     1       3.252   7.971  17.634  0.00  0.00    +0.000 NA
ENDBRANCH   6  21
BRANCH   4  23
ATOM     23  C   UNL     1       5.386   3.565  14.921  0.00  0.00    +0.000 C 
BRANCH  23  24
ATOM     24  O   UNL     1       6.514   3.568  14.048  0.00  0.00    +0.000 OA
ATOM     25  H   UNL     1       6.799   4.498  13.981  0.00  0.00    +0.000 HD
ENDBRANCH  23  24
ENDBRANCH   4  23
TORSDOF 6
ENDMDL
