MODEL 1
REMARK VINA RESULT:      -8.4      0.000      0.000
REMARK  Name = 
REMARK  7 active torsions:
REMARK  status: ('A' for Active; 'I' for Inactive)
REMARK    1  A    between atoms: C_2  and  C_3
REMARK    2  A    between atoms: C_3  and  C_4
REMARK    3  A    between atoms: C_4  and  N_5
REMARK    4  A    between atoms: N_5  and  S_6
REMARK    5  A    between atoms: S_6  and  C_9
REMARK    6  A    between atoms: C_18  and  C_20
REMARK    7  A    between atoms: N_23  and  C_24
REMARK                            x       y       z     vdW  Elec       q    Type
REMARK                         _______ _______ _______ _____ _____    ______ ____
ROOT
ATOM      1  S   UNL     1       3.856   3.455  18.782  0.00  0.00    +0.000 S 
ATOM      2  O   UNL     1       3.332   2.953  17.531  0.00  0.00    +0.000 OA
ATOM      3  O   UNL     1       3.803   2.665  19.992  0.00  0.00    +0.000 OA
ENDROOT
BRANCH   1   4
ATOM      4  C   UNL     1       3.090   5.029  19.097  0.00  0.00    +0.000 A 
ATOM      5  C   UNL     1       2.810   5.399  20.422  0.00  0.00    +0.000 A 
ATOM      6  C   UNL     1       2.310   6.677  20.718  0.00  0.00    +0.000 A 
ATOM      7  C   UNL     1       2.078   7.563  19.681  0.00  0.00    +0.000 A 
ATOM      8  C   UNL     1       2.411   7.200  18.367  0.00  0.00    +0.000 A 
ATOM      9  C   UNL     1       2.909   5.939  18.052  0.00  0.00    +0.000 A 
ATOM     10  C   UNL     1       2.148   8.319  17.408  0.00  0.00    +0.000 C 
ATOM     11  C   UNL     1       1.785   9.460  18.357  0.00  0.00    +0.000 C 
ATOM     12  N   UNL     1       1.574   8.876  19.689  0.00  0.00    +0.000 N 
ATOM     13  C   UNL     1       0.987   9.665  20.667  0.00  0.00    +0.000 C 
ATOM     14  O   UNL     1       0.755  10.857  20.464  0.00  0.00    +0.000 OA
BRANCH  13  15
ATOM     15  C   UNL     1       0.569   9.077  21.976  0.00  0.00    +0.000 C 
ATOM     16  C   UNL     1      -0.369   9.858  22.875  0.00  0.00    +0.000 C 
ATOM     17  C   UNL     1      -0.868   8.632  22.170  0.00  0.00    +0.000 C 
ENDBRANCH  13  15
ENDBRANCH   1   4
BRANCH   1  18
ATOM     18  N   UNL     1       5.475   3.857  18.461  0.00  0.00    +0.000 NA
ATOM     19  H   UNL     1       6.017   2.995  18.391  0.00  0.00    +0.000 HD
BRANCH  18  20
ATOM     20  C   UNL     1       6.041   4.937  19.291  0.00  0.00    +0.000 C 
BRANCH  20  21
ATOM     21  C   UNL     1       6.969   5.845  18.483  0.00  0.00    +0.000 C 
BRANCH  21  23
ATOM     22  O   UNL     1       8.140   4.199  17.195  0.00  0.00    +0.000 OA
ATOM     23  C   UNL     1       7.340   5.129  17.197  0.00  0.00    +0.000 C 
ATOM     24  N   UNL     1       6.710   5.626  16.072  0.00  0.00    +0.000 N 
ATOM     25  H   UNL     1       6.236   6.521  16.140  0.00  0.00    +0.000 HD
BRANCH  24  26
ATOM     26  C   UNL     1       6.830   5.091  14.765  0.00  0.00    +0.000 A 
ATOM     27  C   UNL     1       7.797   5.505  13.842  0.00  0.00    +0.000 A 
ATOM     28  C   UNL     1       7.828   4.959  12.555  0.00  0.00    +0.000 A 
ATOM     29  C   UNL     1       6.897   3.994  12.193  0.00  0.00    +0.000 A 
ATOM     30  F   UNL     1       6.917   3.493  10.951  0.00  0.00    +0.000 F 
ATOM     31  C   UNL     1       5.948   3.544  13.099  0.00  0.00    +0.000 A 
ATOM     32  C   UNL     1       5.929   4.088  14.380  0.00  0.00    +0.000 A 
ATOM     33  F   UNL     1       5.007   3.660  15.255  0.00  0.00    +0.000 F 
ENDBRANCH  24  26
ENDBRANCH  21  23
ENDBRANCH  20  21
ENDBRANCH  18  20
ENDBRANCH   1  18
TORSDOF 7
ENDMDL
MODEL 2
REMARK VINA RESULT:      -8.3      3.796      9.236
REMARK  Name = 
REMARK  7 active torsions:
REMARK  status: ('A' for Active; 'I' for Inactive)
REMARK    1  A    between atoms: C_2  and  C_3
REMARK    2  A    between atoms: C_3  and  C_4
REMARK    3  A    between atoms: C_4  and  N_5
REMARK    4  A    between atoms: N_5  and  S_6
REMARK    5  A    between atoms: S_6  and  C_9
REMARK    6  A    between atoms: C_18  and  C_20
REMARK    7  A    between atoms: N_23  and  C_24
REMARK                            x       y       z     vdW  Elec       q    Type
REMARK                         _______ _______ _______ _____ _____    ______ ____
ROOT
ATOM      1  S   UNL     1       2.418   3.680  20.234  0.00  0.00    +0.000 S 
ATOM      2  O   UNL     1       2.924   2.641  21.104  0.00  0.00    +0.000 OA
ATOM      3  O   UNL     1       1.134   3.557  19.581  0.00  0.00    +0.000 OA
ENDROOT
BRANCH   1   4
ATOM      4  C   UNL     1       3.655   4.000  18.996  0.00  0.00    +0.000 A 
ATOM      5  C   UNL     1       3.432   3.568  17.679  0.00  0.00    +0.000 A 
ATOM      6  C   UNL     1       4.332   3.900  16.655  0.00  0.00    +0.000 A 
ATOM      7  C   UNL     1       5.456   4.645  16.964  0.00  0.00    +0.000 A 
ATOM      8  C   UNL     1       5.641   5.115  18.273  0.00  0.00    +0.000 A 
ATOM      9  C   UNL     1       4.760   4.799  19.304  0.00  0.00    +0.000 A 
ATOM     10  C   UNL     1       6.875   5.955  18.382  0.00  0.00    +0.000 C 
ATOM     11  C   UNL     1       7.300   6.071  16.919  0.00  0.00    +0.000 C 
ATOM     12  N   UNL     1       6.512   5.096  16.152  0.00  0.00    +0.000 N 
ATOM     13  C   UNL     1       6.891   4.828  14.845  0.00  0.00    +0.000 C 
ATOM     14  O   UNL     1       7.790   5.469  14.302  0.00  0.00    +0.000 OA
BRANCH  13  15
ATOM     15  C   UNL     1       6.256   3.713  14.078  0.00  0.00    +0.000 C 
ATOM     16  C   UNL     1       5.148   4.025  13.093  0.00  0.00    +0.000 C 
ATOM     17  C   UNL     1       6.494   3.604  12.584  0.00  0.00    +0.000 C 
ENDBRANCH  13  15
ENDBRANCH   1   4
BRANCH   1  18
ATOM     18  N   UNL     1       2.422   5.094  21.175  0.00  0.00    +0.000 NA
ATOM     19  H   UNL     1       2.375   4.830  22.160  0.00  0.00    +0.000 HD
BRANCH  18  20
ATOM     20  C   UNL     1       1.510   6.163  20.725  0.00  0.00    +0.000 C 
BRANCH  20  21
ATOM     21  C   UNL     1       2.227   7.185  19.842  0.00  0.00    +0.000 C 
BRANCH  21  23
ATOM     22  O   UNL     1       1.543   9.332  19.027  0.00  0.00    +0.000 OA
ATOM     23  C   UNL     1       1.479   8.504  19.930  0.00  0.00    +0.000 C 
ATOM     24  N   UNL     1       0.756   8.665  21.096  0.00  0.00    +0.000 N 
ATOM     25  H   UNL     1       0.932   8.028  21.866  0.00  0.00    +0.000 HD
BRANCH  24  26
ATOM     26  C   UNL     1      -0.081   9.771  21.391  0.00  0.00    +0.000 A 
ATOM     27  C   UNL     1      -0.584  10.645  20.423  0.00  0.00    +0.000 A 
ATOM     28  C   UNL     1      -1.372  11.739  20.795  0.00  0.00    +0.000 A 
ATOM     29  C   UNL     1      -1.663  11.954  22.136  0.00  0.00    +0.000 A 
ATOM     30  F   UNL     1      -2.398  13.017  22.489  0.00  0.00    +0.000 F 
ATOM     31  C   UNL     1      -1.202  11.084  23.113  0.00  0.00    +0.000 A 
ATOM     32  C   UNL     1      -0.425   9.994  22.732  0.00  0.00    +0.000 A 
ATOM     33  F   UNL     1       0.028   9.156  23.677  0.00  0.00    +0.000 F 
ENDBRANCH  24  26
ENDBRANCH  21  23
ENDBRANCH  20  21
ENDBRANCH  18  20
ENDBRANCH   1  18
TORSDOF 7
ENDMDL
MODEL 3
REMARK VINA RESULT:      -8.0      4.147      9.000
REMARK  Name = 
REMARK  7 active torsions:
REMARK  status: ('A' for Active; 'I' for Inactive)
REMARK    1  A    between atoms: C_2  and  C_3
REMARK    2  A    between atoms: C_3  and  C_4
REMARK    3  A    between atoms: C_4  and  N_5
REMARK    4  A    between atoms: N_5  and  S_6
REMARK    5  A    between atoms: S_6  and  C_9
REMARK    6  A    between atoms: C_18  and  C_20
REMARK    7  A    between atoms: N_23  and  C_24
REMARK                            x       y       z     vdW  Elec       q    Type
REMARK                         _______ _______ _______ _____ _____    ______ ____
ROOT
ATOM      1  S   UNL     1       0.786   9.005  21.409  0.00  0.00    +0.000 S 
ATOM      2  O   UNL     1       1.739   9.405  22.420  0.00  0.00    +0.000 OA
ATOM      3  O   UNL     1      -0.599   8.753  21.737  0.00  0.00    +0.000 OA
ENDROOT
BRANCH   1   4
ATOM      4  C   UNL     1       1.442   7.575  20.580  0.00  0.00    +0.000 A 
ATOM      5  C   UNL     1       2.309   7.754  19.490  0.00  0.00    +0.000 A 
ATOM      6  C   UNL     1       2.934   6.654  18.884  0.00  0.00    +0.000 A 
ATOM      7  C   UNL     1       2.670   5.383  19.364  0.00  0.00    +0.000 A 
ATOM      8  C   UNL     1       1.843   5.221  20.486  0.00  0.00    +0.000 A 
ATOM      9  C   UNL     1       1.215   6.299  21.103  0.00  0.00    +0.000 A 
ATOM     10  C   UNL     1       1.741   3.782  20.886  0.00  0.00    +0.000 C 
ATOM     11  C   UNL     1       2.766   3.131  19.958  0.00  0.00    +0.000 C 
ATOM     12  N   UNL     1       3.136   4.126  18.941  0.00  0.00    +0.000 N 
ATOM     13  C   UNL     1       3.856   3.699  17.836  0.00  0.00    +0.000 C 
ATOM     14  O   UNL     1       4.275   2.543  17.761  0.00  0.00    +0.000 OA
BRANCH  13  15
ATOM     15  C   UNL     1       4.096   4.613  16.679  0.00  0.00    +0.000 C 
ATOM     16  C   UNL     1       5.373   5.428  16.628  0.00  0.00    +0.000 C 
ATOM     17  C   UNL     1       5.188   4.283  15.678  0.00  0.00    +0.000 C 
ENDBRANCH  13  15
ENDBRANCH   1   4
BRANCH   1  18
ATOM     18  N   UNL     1       0.856  10.219  20.222  0.00  0.00    +0.000 NA
ATOM     19  H   UNL     1       1.491   9.916  19.483  0.00  0.00    +0.000 HD
BRANCH  18  20
ATOM     20  C   UNL     1       1.024  11.595  20.726  0.00  0.00    +0.000 C 
BRANCH  20  21
ATOM     21  C   UNL     1      -0.310  12.338  20.800  0.00  0.00    +0.000 C 
BRANCH  21  23
ATOM     22  O   UNL     1      -0.667  13.200  18.592  0.00  0.00    +0.000 OA
ATOM     23  C   UNL     1      -0.939  12.334  19.417  0.00  0.00    +0.000 C 
ATOM     24  N   UNL     1      -1.823  11.293  19.204  0.00  0.00    +0.000 N 
ATOM     25  H   UNL     1      -2.142  10.758  20.005  0.00  0.00    +0.000 HD
BRANCH  24  26
ATOM     26  C   UNL     1      -2.488  11.024  17.981  0.00  0.00    +0.000 A 
ATOM     27  C   UNL     1      -3.722  11.579  17.629  0.00  0.00    +0.000 A 
ATOM     28  C   UNL     1      -4.336  11.235  16.420  0.00  0.00    +0.000 A 
ATOM     29  C   UNL     1      -3.711  10.340  15.561  0.00  0.00    +0.000 A 
ATOM     30  F   UNL     1      -4.316   9.995  14.416  0.00  0.00    +0.000 F 
ATOM     31  C   UNL     1      -2.473   9.800  15.872  0.00  0.00    +0.000 A 
ATOM     32  C   UNL     1      -1.866  10.154  17.074  0.00  0.00    +0.000 A 
ATOM     33  F   UNL     1      -0.671   9.626  17.380  0.00  0.00    +0.000 F 
ENDBRANCH  24  26
ENDBRANCH  21  23
ENDBRANCH  20  21
ENDBRANCH  18  20
ENDBRANCH   1  18
TORSDOF 7
ENDMDL
MODEL 4
REMARK VINA RESULT:      -8.0      1.449      2.537
REMARK  Name = 
REMARK  7 active torsions:
REMARK  status: ('A' for Active; 'I' for Inactive)
REMARK    1  A    between atoms: C_2  and  C_3
REMARK    2  A    between atoms: C_3  and  C_4
REMARK    3  A    between atoms: C_4  and  N_5
REMARK    4  A    between atoms: N_5  and  S_6
REMARK    5  A    between atoms: S_6  and  C_9
REMARK    6  A    between atoms: C_18  and  C_20
REMARK    7  A    between atoms: N_23  and  C_24
REMARK                            x       y       z     vdW  Elec       q    Type
REMARK                         _______ _______ _______ _____ _____    ______ ____
ROOT
ATOM      1  S   UNL     1       3.256   5.046  18.615  0.00  0.00    +0.000 S 
ATOM      2  O   UNL     1       2.466   4.528  17.520  0.00  0.00    +0.000 OA
ATOM      3  O   UNL     1       3.456   4.283  19.826  0.00  0.00    +0.000 OA
ENDROOT
BRANCH   1   4
ATOM      4  C   UNL     1       2.598   6.640  19.050  0.00  0.00    +0.000 A 
ATOM      5  C   UNL     1       2.446   7.613  18.049  0.00  0.00    +0.000 A 
ATOM      6  C   UNL     1       1.828   8.841  18.332  0.00  0.00    +0.000 A 
ATOM      7  C   UNL     1       1.386   9.089  19.619  0.00  0.00    +0.000 A 
ATOM      8  C   UNL     1       1.496   8.089  20.598  0.00  0.00    +0.000 A 
ATOM      9  C   UNL     1       2.105   6.864  20.338  0.00  0.00    +0.000 A 
ATOM     10  C   UNL     1       0.899   8.530  21.898  0.00  0.00    +0.000 C 
ATOM     11  C   UNL     1       0.256   9.859  21.507  0.00  0.00    +0.000 C 
ATOM     12  N   UNL     1       0.759  10.219  20.174  0.00  0.00    +0.000 N 
ATOM     13  C   UNL     1       0.524  11.503  19.707  0.00  0.00    +0.000 C 
ATOM     14  O   UNL     1      -0.186  12.286  20.339  0.00  0.00    +0.000 OA
BRANCH  13  15
ATOM     15  C   UNL     1       1.171  11.992  18.452  0.00  0.00    +0.000 C 
ATOM     16  C   UNL     1       1.366  13.481  18.248  0.00  0.00    +0.000 C 
ATOM     17  C   UNL     1       2.555  12.608  18.516  0.00  0.00    +0.000 C 
ENDBRANCH  13  15
ENDBRANCH   1   4
BRANCH   1  18
ATOM     18  N   UNL     1       4.772   5.411  17.941  0.00  0.00    +0.000 NA
ATOM     19  H   UNL     1       5.035   4.659  17.304  0.00  0.00    +0.000 HD
BRANCH  18  20
ATOM     20  C   UNL     1       5.800   5.871  18.893  0.00  0.00    +0.000 C 
BRANCH  20  21
ATOM     21  C   UNL     1       7.088   6.284  18.180  0.00  0.00    +0.000 C 
BRANCH  21  23
ATOM     22  O   UNL     1       7.936   4.312  17.116  0.00  0.00    +0.000 OA
ATOM     23  C   UNL     1       7.301   5.355  16.998  0.00  0.00    +0.000 C 
ATOM     24  N   UNL     1       6.732   5.801  15.821  0.00  0.00    +0.000 N 
ATOM     25  H   UNL     1       6.414   6.764  15.772  0.00  0.00    +0.000 HD
BRANCH  24  26
ATOM     26  C   UNL     1       6.726   5.089  14.595  0.00  0.00    +0.000 A 
ATOM     27  C   UNL     1       7.678   5.272  13.586  0.00  0.00    +0.000 A 
ATOM     28  C   UNL     1       7.585   4.561  12.385  0.00  0.00    +0.000 A 
ATOM     29  C   UNL     1       6.543   3.661  12.197  0.00  0.00    +0.000 A 
ATOM     30  F   UNL     1       6.446   3.001  11.035  0.00  0.00    +0.000 F 
ATOM     31  C   UNL     1       5.605   3.438  13.194  0.00  0.00    +0.000 A 
ATOM     32  C   UNL     1       5.710   4.145  14.388  0.00  0.00    +0.000 A 
ATOM     33  F   UNL     1       4.799   3.936  15.350  0.00  0.00    +0.000 F 
ENDBRANCH  24  26
ENDBRANCH  21  23
ENDBRANCH  20  21
ENDBRANCH  18  20
ENDBRANCH   1  18
TORSDOF 7
ENDMDL
MODEL 5
REMARK VINA RESULT:      -7.8      4.728      7.362
REMARK  Name = 
REMARK  7 active torsions:
REMARK  status: ('A' for Active; 'I' for Inactive)
REMARK    1  A    between atoms: C_2  and  C_3
REMARK    2  A    between atoms: C_3  and  C_4
REMARK    3  A    between atoms: C_4  and  N_5
REMARK    4  A    between atoms: N_5  and  S_6
REMARK    5  A    between atoms: S_6  and  C_9
REMARK    6  A    between atoms: C_18  and  C_20
REMARK    7  A    between atoms: N_23  and  C_24
REMARK                            x       y       z     vdW  Elec       q    Type
REMARK                         _______ _______ _______ _____ _____    ______ ____
ROOT
ATOM      1  S   UNL     1       1.021  10.289  19.308  0.00  0.00    +0.000 S 
ATOM      2  O   UNL     1       1.015   9.034  20.027  0.00  0.00    +0.000 OA
ATOM      3  O   UNL     1       1.622  11.477  19.871  0.00  0.00    +0.000 OA
ENDROOT
BRANCH   1   4
ATOM      4  C   UNL     1      -0.658  10.662  18.856  0.00  0.00    +0.000 A 
ATOM      5  C   UNL     1      -1.390  11.572  19.636  0.00  0.00    +0.000 A 
ATOM      6  C   UNL     1      -2.677  11.975  19.248  0.00  0.00    +0.000 A 
ATOM      7  C   UNL     1      -3.224  11.449  18.091  0.00  0.00    +0.000 A 
ATOM      8  C   UNL     1      -2.463  10.582  17.292  0.00  0.00    +0.000 A 
ATOM      9  C   UNL     1      -1.185  10.170  17.659  0.00  0.00    +0.000 A 
ATOM     10  C   UNL     1      -3.209  10.182  16.057  0.00  0.00    +0.000 C 
ATOM     11  C   UNL     1      -4.446  11.075  16.141  0.00  0.00    +0.000 C 
ATOM     12  N   UNL     1      -4.477  11.662  17.488  0.00  0.00    +0.000 N 
ATOM     13  C   UNL     1      -5.635  12.306  17.897  0.00  0.00    +0.000 C 
ATOM     14  O   UNL     1      -6.570  12.484  17.117  0.00  0.00    +0.000 OA
BRANCH  13  15
ATOM     15  C   UNL     1      -5.802  12.751  19.314  0.00  0.00    +0.000 C 
ATOM     16  C   UNL     1      -7.198  12.922  19.879  0.00  0.00    +0.000 C 
ATOM     17  C   UNL     1      -6.347  11.779  20.344  0.00  0.00    +0.000 C 
ENDBRANCH  13  15
ENDBRANCH   1   4
BRANCH   1  18
ATOM     18  N   UNL     1       1.767   9.950  17.821  0.00  0.00    +0.000 NA
ATOM     19  H   UNL     1       1.368  10.562  17.108  0.00  0.00    +0.000 HD
BRANCH  18  20
ATOM     20  C   UNL     1       1.892   8.520  17.479  0.00  0.00    +0.000 C 
BRANCH  20  21
ATOM     21  C   UNL     1       3.348   8.055  17.511  0.00  0.00    +0.000 C 
BRANCH  21  23
ATOM     22  O   UNL     1       4.441   6.056  18.255  0.00  0.00    +0.000 OA
ATOM     23  C   UNL     1       3.409   6.718  18.231  0.00  0.00    +0.000 C 
ATOM     24  N   UNL     1       2.219   6.342  18.823  0.00  0.00    +0.000 N 
ATOM     25  H   UNL     1       1.374   6.845  18.572  0.00  0.00    +0.000 HD
BRANCH  24  26
ATOM     26  C   UNL     1       2.030   5.179  19.611  0.00  0.00    +0.000 A 
ATOM     27  C   UNL     1       2.390   5.087  20.959  0.00  0.00    +0.000 A 
ATOM     28  C   UNL     1       2.210   3.891  21.662  0.00  0.00    +0.000 A 
ATOM     29  C   UNL     1       1.662   2.789  21.017  0.00  0.00    +0.000 A 
ATOM     30  F   UNL     1       1.515   1.639  21.688  0.00  0.00    +0.000 F 
ATOM     31  C   UNL     1       1.268   2.864  19.689  0.00  0.00    +0.000 A 
ATOM     32  C   UNL     1       1.445   4.060  19.001  0.00  0.00    +0.000 A 
ATOM     33  F   UNL     1       1.071   4.132  17.714  0.00  0.00    +0.000 F 
ENDBRANCH  24  26
ENDBRANCH  21  23
ENDBRANCH  20  21
ENDBRANCH  18  20
ENDBRANCH   1  18
TORSDOF 7
ENDMDL
MODEL 6
REMARK VINA RESULT:      -7.8      3.361      8.583
REMARK  Name = 
REMARK  7 active torsions:
REMARK  status: ('A' for Active; 'I' for Inactive)
REMARK    1  A    between atoms: C_2  and  C_3
REMARK    2  A    between atoms: C_3  and  C_4
REMARK    3  A    between atoms: C_4  and  N_5
REMARK    4  A    between atoms: N_5  and  S_6
REMARK    5  A    between atoms: S_6  and  C_9
REMARK    6  A    between atoms: C_18  and  C_20
REMARK    7  A    between atoms: N_23  and  C_24
REMARK                            x       y       z     vdW  Elec       q    Type
REMARK                         _______ _______ _______ _____ _____    ______ ____
ROOT
ATOM      1  S   UNL     1       2.136   3.215  20.109  0.00  0.00    +0.000 S 
ATOM      2  O   UNL     1       2.693   3.213  21.444  0.00  0.00    +0.000 OA
ATOM      3  O   UNL     1       1.407   2.077  19.595  0.00  0.00    +0.000 OA
ENDROOT
BRANCH   1   4
ATOM      4  C   UNL     1       3.449   3.608  18.975  0.00  0.00    +0.000 A 
ATOM      5  C   UNL     1       3.281   3.325  17.610  0.00  0.00    +0.000 A 
ATOM      6  C   UNL     1       4.246   3.721  16.673  0.00  0.00    +0.000 A 
ATOM      7  C   UNL     1       5.379   4.382  17.114  0.00  0.00    +0.000 A 
ATOM      8  C   UNL     1       5.511   4.705  18.473  0.00  0.00    +0.000 A 
ATOM      9  C   UNL     1       4.565   4.322  19.420  0.00  0.00    +0.000 A 
ATOM     10  C   UNL     1       6.769   5.475  18.732  0.00  0.00    +0.000 C 
ATOM     11  C   UNL     1       7.276   5.723  17.312  0.00  0.00    +0.000 C 
ATOM     12  N   UNL     1       6.493   4.868  16.408  0.00  0.00    +0.000 N 
ATOM     13  C   UNL     1       6.932   4.720  15.100  0.00  0.00    +0.000 C 
ATOM     14  O   UNL     1       7.882   5.375  14.674  0.00  0.00    +0.000 OA
BRANCH  13  15
ATOM     15  C   UNL     1       6.298   3.719  14.189  0.00  0.00    +0.000 C 
ATOM     16  C   UNL     1       5.199   4.164  13.246  0.00  0.00    +0.000 C 
ATOM     17  C   UNL     1       6.546   3.805  12.696  0.00  0.00    +0.000 C 
ENDBRANCH  13  15
ENDBRANCH   1   4
BRANCH   1  18
ATOM     18  N   UNL     1       1.132   4.583  20.044  0.00  0.00    +0.000 NA
ATOM     19  H   UNL     1       0.879   4.757  19.071  0.00  0.00    +0.000 HD
BRANCH  18  20
ATOM     20  C   UNL     1       1.583   5.745  20.834  0.00  0.00    +0.000 C 
BRANCH  20  21
ATOM     21  C   UNL     1       2.195   6.830  19.948  0.00  0.00    +0.000 C 
BRANCH  21  23
ATOM     22  O   UNL     1       1.499   8.502  21.517  0.00  0.00    +0.000 OA
ATOM     23  C   UNL     1       1.591   8.167  20.340  0.00  0.00    +0.000 C 
ATOM     24  N   UNL     1       1.166   8.929  19.269  0.00  0.00    +0.000 N 
ATOM     25  H   UNL     1       1.089   8.485  18.360  0.00  0.00    +0.000 HD
BRANCH  24  26
ATOM     26  C   UNL     1       0.633  10.240  19.360  0.00  0.00    +0.000 A 
ATOM     27  C   UNL     1      -0.539  10.556  20.054  0.00  0.00    +0.000 A 
ATOM     28  C   UNL     1      -1.025  11.867  20.066  0.00  0.00    +0.000 A 
ATOM     29  C   UNL     1      -0.334  12.865  19.389  0.00  0.00    +0.000 A 
ATOM     30  F   UNL     1      -0.818  14.113  19.383  0.00  0.00    +0.000 F 
ATOM     31  C   UNL     1       0.847  12.583  18.719  0.00  0.00    +0.000 A 
ATOM     32  C   UNL     1       1.327  11.277  18.719  0.00  0.00    +0.000 A 
ATOM     33  F   UNL     1       2.466  11.002  18.064  0.00  0.00    +0.000 F 
ENDBRANCH  24  26
ENDBRANCH  21  23
ENDBRANCH  20  21
ENDBRANCH  18  20
ENDBRANCH   1  18
TORSDOF 7
ENDMDL
MODEL 7
REMARK VINA RESULT:      -7.8      1.974      3.080
REMARK  Name = 
REMARK  7 active torsions:
REMARK  status: ('A' for Active; 'I' for Inactive)
REMARK    1  A    between atoms: C_2  and  C_3
REMARK    2  A    between atoms: C_3  and  C_4
REMARK    3  A    between atoms: C_4  and  N_5
REMARK    4  A    between atoms: N_5  and  S_6
REMARK    5  A    between atoms: S_6  and  C_9
REMARK    6  A    between atoms: C_18  and  C_20
REMARK    7  A    between atoms: N_23  and  C_24
REMARK                            x       y       z     vdW  Elec       q    Type
REMARK                         _______ _______ _______ _____ _____    ______ ____
ROOT
ATOM      1  S   UNL     1       3.502   5.832  18.472  0.00  0.00    +0.000 S 
ATOM      2  O   UNL     1       2.565   4.898  17.888  0.00  0.00    +0.000 OA
ATOM      3  O   UNL     1       4.377   5.444  19.555  0.00  0.00    +0.000 OA
ENDROOT
BRANCH   1   4
ATOM      4  C   UNL     1       2.590   7.276  18.968  0.00  0.00    +0.000 A 
ATOM      5  C   UNL     1       2.255   8.239  18.002  0.00  0.00    +0.000 A 
ATOM      6  C   UNL     1       1.442   9.333  18.334  0.00  0.00    +0.000 A 
ATOM      7  C   UNL     1       0.987   9.461  19.634  0.00  0.00    +0.000 A 
ATOM      8  C   UNL     1       1.285   8.466  20.577  0.00  0.00    +0.000 A 
ATOM      9  C   UNL     1       2.088   7.372  20.269  0.00  0.00    +0.000 A 
ATOM     10  C   UNL     1       0.645   8.757  21.899  0.00  0.00    +0.000 C 
ATOM     11  C   UNL     1      -0.224   9.968  21.561  0.00  0.00    +0.000 C 
ATOM     12  N   UNL     1       0.187  10.450  20.234  0.00  0.00    +0.000 N 
ATOM     13  C   UNL     1      -0.274  11.688  19.814  0.00  0.00    +0.000 C 
ATOM     14  O   UNL     1      -1.095  12.318  20.480  0.00  0.00    +0.000 OA
BRANCH  13  15
ATOM     15  C   UNL     1       0.258  12.320  18.568  0.00  0.00    +0.000 C 
ATOM     16  C   UNL     1       0.293  13.830  18.457  0.00  0.00    +0.000 C 
ATOM     17  C   UNL     1       1.575  13.070  18.613  0.00  0.00    +0.000 C 
ENDBRANCH  13  15
ENDBRANCH   1   4
BRANCH   1  18
ATOM     18  N   UNL     1       4.449   6.387  17.175  0.00  0.00    +0.000 NA
ATOM     19  H   UNL     1       4.706   5.588  16.594  0.00  0.00    +0.000 HD
BRANCH  18  20
ATOM     20  C   UNL     1       5.528   7.329  17.529  0.00  0.00    +0.000 C 
BRANCH  20  21
ATOM     21  C   UNL     1       6.898   6.650  17.522  0.00  0.00    +0.000 C 
BRANCH  21  23
ATOM     22  O   UNL     1       6.996   4.325  16.950  0.00  0.00    +0.000 OA
ATOM     23  C   UNL     1       6.848   5.478  16.557  0.00  0.00    +0.000 C 
ATOM     24  N   UNL     1       6.635   5.840  15.241  0.00  0.00    +0.000 N 
ATOM     25  H   UNL     1       6.737   6.817  14.986  0.00  0.00    +0.000 HD
BRANCH  24  26
ATOM     26  C   UNL     1       6.478   4.936  14.160  0.00  0.00    +0.000 A 
ATOM     27  C   UNL     1       5.387   4.071  14.023  0.00  0.00    +0.000 A 
ATOM     28  C   UNL     1       5.321   3.178  12.949  0.00  0.00    +0.000 A 
ATOM     29  C   UNL     1       6.343   3.154  12.008  0.00  0.00    +0.000 A 
ATOM     30  F   UNL     1       6.285   2.279  10.996  0.00  0.00    +0.000 F 
ATOM     31  C   UNL     1       7.419   4.023  12.105  0.00  0.00    +0.000 A 
ATOM     32  C   UNL     1       7.473   4.914  13.173  0.00  0.00    +0.000 A 
ATOM     33  F   UNL     1       8.519   5.749  13.271  0.00  0.00    +0.000 F 
ENDBRANCH  24  26
ENDBRANCH  21  23
ENDBRANCH  20  21
ENDBRANCH  18  20
ENDBRANCH   1  18
TORSDOF 7
ENDMDL
MODEL 8
REMARK VINA RESULT:      -7.8      3.684      9.078
REMARK  Name = 
REMARK  7 active torsions:
REMARK  status: ('A' for Active; 'I' for Inactive)
REMARK    1  A    between atoms: C_2  and  C_3
REMARK    2  A    between atoms: C_3  and  C_4
REMARK    3  A    between atoms: C_4  and  N_5
REMARK    4  A    between atoms: N_5  and  S_6
REMARK    5  A    between atoms: S_6  and  C_9
REMARK    6  A    between atoms: C_18  and  C_20
REMARK    7  A    between atoms: N_23  and  C_24
REMARK                            x       y       z     vdW  Elec       q    Type
REMARK                         _______ _______ _______ _____ _____    ______ ____
ROOT
ATOM      1  S   UNL     1       2.212   4.103  20.216  0.00  0.00    +0.000 S 
ATOM      2  O   UNL     1       2.714   3.223  21.247  0.00  0.00    +0.000 OA
ATOM      3  O   UNL     1       0.974   3.823  19.524  0.00  0.00    +0.000 OA
ENDROOT
BRANCH   1   4
ATOM      4  C   UNL     1       3.502   4.315  19.009  0.00  0.00    +0.000 A 
ATOM      5  C   UNL     1       3.288   3.868  17.695  0.00  0.00    +0.000 A 
ATOM      6  C   UNL     1       4.236   4.118  16.692  0.00  0.00    +0.000 A 
ATOM      7  C   UNL     1       5.397   4.797  17.018  0.00  0.00    +0.000 A 
ATOM      8  C   UNL     1       5.575   5.283  18.322  0.00  0.00    +0.000 A 
ATOM      9  C   UNL     1       4.646   5.048  19.332  0.00  0.00    +0.000 A 
ATOM     10  C   UNL     1       6.857   6.045  18.451  0.00  0.00    +0.000 C 
ATOM     11  C   UNL     1       7.330   6.099  16.998  0.00  0.00    +0.000 C 
ATOM     12  N   UNL     1       6.502   5.160  16.229  0.00  0.00    +0.000 N 
ATOM     13  C   UNL     1       6.900   4.838  14.940  0.00  0.00    +0.000 C 
ATOM     14  O   UNL     1       7.854   5.408  14.411  0.00  0.00    +0.000 OA
BRANCH  13  15
ATOM     15  C   UNL     1       6.217   3.748  14.178  0.00  0.00    +0.000 C 
ATOM     16  C   UNL     1       5.159   4.109  13.154  0.00  0.00    +0.000 C 
ATOM     17  C   UNL     1       6.489   3.590  12.694  0.00  0.00    +0.000 C 
ENDBRANCH  13  15
ENDBRANCH   1   4
BRANCH   1  18
ATOM     18  N   UNL     1       2.097   5.632  20.947  0.00  0.00    +0.000 NA
ATOM     19  H   UNL     1       1.503   5.553  21.774  0.00  0.00    +0.000 HD
BRANCH  18  20
ATOM     20  C   UNL     1       1.826   6.759  20.035  0.00  0.00    +0.000 C 
BRANCH  20  21
ATOM     21  C   UNL     1       1.907   8.104  20.756  0.00  0.00    +0.000 C 
BRANCH  21  23
ATOM     22  O   UNL     1      -0.384   8.320  21.424  0.00  0.00    +0.000 OA
ATOM     23  C   UNL     1       0.532   8.747  20.728  0.00  0.00    +0.000 C 
ATOM     24  N   UNL     1       0.428   9.817  19.860  0.00  0.00    +0.000 N 
ATOM     25  H   UNL     1       1.165   9.961  19.179  0.00  0.00    +0.000 HD
BRANCH  24  26
ATOM     26  C   UNL     1      -0.724  10.630  19.700  0.00  0.00    +0.000 A 
ATOM     27  C   UNL     1      -1.176  11.535  20.666  0.00  0.00    +0.000 A 
ATOM     28  C   UNL     1      -2.344  12.274  20.453  0.00  0.00    +0.000 A 
ATOM     29  C   UNL     1      -3.055  12.113  19.271  0.00  0.00    +0.000 A 
ATOM     30  F   UNL     1      -4.186  12.806  19.083  0.00  0.00    +0.000 F 
ATOM     31  C   UNL     1      -2.611  11.245  18.284  0.00  0.00    +0.000 A 
ATOM     32  C   UNL     1      -1.443  10.519  18.502  0.00  0.00    +0.000 A 
ATOM     33  F   UNL     1      -1.017   9.674  17.552  0.00  0.00    +0.000 F 
ENDBRANCH  24  26
ENDBRANCH  21  23
ENDBRANCH  20  21
ENDBRANCH  18  20
ENDBRANCH   1  18
TORSDOF 7
ENDMDL
MODEL 9
REMARK VINA RESULT:      -7.8      2.428      3.860
REMARK  Name = 
REMARK  7 active torsions:
REMARK  status: ('A' for Active; 'I' for Inactive)
REMARK    1  A    between atoms: C_2  and  C_3
REMARK    2  A    between atoms: C_3  and  C_4
REMARK    3  A    between atoms: C_4  and  N_5
REMARK    4  A    between atoms: N_5  and  S_6
REMARK    5  A    between atoms: S_6  and  C_9
REMARK    6  A    between atoms: C_18  and  C_20
REMARK    7  A    between atoms: N_23  and  C_24
REMARK                            x       y       z     vdW  Elec       q    Type
REMARK                         _______ _______ _______ _____ _____    ______ ____
ROOT
ATOM      1  S   UNL     1       2.835   6.438  18.700  0.00  0.00    +0.000 S 
ATOM      2  O   UNL     1       4.068   6.844  18.062  0.00  0.00    +0.000 OA
ATOM      3  O   UNL     1       1.832   5.681  17.986  0.00  0.00    +0.000 OA
ENDROOT
BRANCH   1   4
ATOM      4  C   UNL     1       2.071   7.894  19.378  0.00  0.00    +0.000 A 
ATOM      5  C   UNL     1       1.814   8.987  18.535  0.00  0.00    +0.000 A 
ATOM      6  C   UNL     1       1.114  10.106  19.008  0.00  0.00    +0.000 A 
ATOM      7  C   UNL     1       0.694  10.128  20.327  0.00  0.00    +0.000 A 
ATOM      8  C   UNL     1       0.910   9.008  21.144  0.00  0.00    +0.000 A 
ATOM      9  C   UNL     1       1.602   7.887  20.694  0.00  0.00    +0.000 A 
ATOM     10  C   UNL     1       0.322   9.205  22.507  0.00  0.00    +0.000 C 
ATOM     11  C   UNL     1      -0.433  10.522  22.329  0.00  0.00    +0.000 C 
ATOM     12  N   UNL     1       0.001  11.111  21.054  0.00  0.00    +0.000 N 
ATOM     13  C   UNL     1      -0.346  12.427  20.787  0.00  0.00    +0.000 C 
ATOM     14  O   UNL     1      -1.094  13.050  21.541  0.00  0.00    +0.000 OA
BRANCH  13  15
ATOM     15  C   UNL     1       0.223  13.144  19.606  0.00  0.00    +0.000 C 
ATOM     16  C   UNL     1      -0.552  13.163  18.304  0.00  0.00    +0.000 C 
ATOM     17  C   UNL     1      -0.438  14.418  19.115  0.00  0.00    +0.000 C 
ENDBRANCH  13  15
ENDBRANCH   1   4
BRANCH   1  18
ATOM     18  N   UNL     1       3.309   5.559  20.074  0.00  0.00    +0.000 NA
ATOM     19  H   UNL     1       4.318   5.657  20.192  0.00  0.00    +0.000 HD
BRANCH  18  20
ATOM     20  C   UNL     1       2.752   4.198  20.186  0.00  0.00    +0.000 C 
BRANCH  20  21
ATOM     21  C   UNL     1       3.822   3.128  19.966  0.00  0.00    +0.000 C 
BRANCH  21  23
ATOM     22  O   UNL     1       3.641   2.378  17.698  0.00  0.00    +0.000 OA
ATOM     23  C   UNL     1       4.200   3.123  18.495  0.00  0.00    +0.000 C 
ATOM     24  N   UNL     1       5.210   4.008  18.170  0.00  0.00    +0.000 N 
ATOM     25  H   UNL     1       5.751   4.422  18.922  0.00  0.00    +0.000 HD
BRANCH  24  26
ATOM     26  C   UNL     1       5.697   4.246  16.860  0.00  0.00    +0.000 A 
ATOM     27  C   UNL     1       4.911   4.142  15.708  0.00  0.00    +0.000 A 
ATOM     28  C   UNL     1       5.472   4.353  14.444  0.00  0.00    +0.000 A 
ATOM     29  C   UNL     1       6.819   4.674  14.334  0.00  0.00    +0.000 A 
ATOM     30  F   UNL     1       7.356   4.851  13.120  0.00  0.00    +0.000 F 
ATOM     31  C   UNL     1       7.613   4.814  15.463  0.00  0.00    +0.000 A 
ATOM     32  C   UNL     1       7.043   4.610  16.716  0.00  0.00    +0.000 A 
ATOM     33  F   UNL     1       7.813   4.737  17.808  0.00  0.00    +0.000 F 
ENDBRANCH  24  26
ENDBRANCH  21  23
ENDBRANCH  20  21
ENDBRANCH  18  20
ENDBRANCH   1  18
TORSDOF 7
ENDMDL
