MODEL 1
REMARK VINA RESULT:      -7.2      0.000      0.000
REMARK  Name = 
REMARK  9 active torsions:
REMARK  status: ('A' for Active; 'I' for Inactive)
REMARK    1  A    between atoms: C_1  and  C_2
REMARK    2  A    between atoms: C_2  and  C_3
REMARK    3  A    between atoms: C_2  and  N_4
REMARK    4  A    between atoms: N_4  and  C_5
REMARK    5  A    between atoms: N_4  and  C_6
REMARK    6  A    between atoms: C_6  and  C_7
REMARK    7  A    between atoms: C_8  and  C_9
REMARK    8  A    between atoms: N_11  and  C_12
REMARK    9  A    between atoms: N_20  and  C_21
REMARK                            x       y       z     vdW  Elec       q    Type
REMARK                         _______ _______ _______ _____ _____    ______ ____
ROOT
ATOM      1  C   UNL     1       1.110   8.914  20.726  0.00  0.00    +0.000 A 
ATOM      2  C   UNL     1       0.316   8.368  21.729  0.00  0.00    +0.000 A 
ATOM      3  C   UNL     1      -0.506   9.200  22.501  0.00  0.00    +0.000 A 
ATOM      4  C   UNL     1      -0.599  10.565  22.270  0.00  0.00    +0.000 A 
ATOM      5  N   UNL     1      -1.413  11.295  23.036  0.00  0.00    +0.000 NA
ATOM      6  C   UNL     1      -1.485  12.600  22.757  0.00  0.00    +0.000 A 
ATOM      7  N   UNL     1      -0.846  13.228  21.769  0.00  0.00    +0.000 NA
ATOM      8  C   UNL     1      -0.035  12.484  20.995  0.00  0.00    +0.000 A 
ATOM      9  N   UNL     1       0.585  13.100  19.866  0.00  0.00    +0.000 N 
ATOM     10  C   UNL     1       0.164  11.115  21.232  0.00  0.00    +0.000 A 
ATOM     11  C   UNL     1       1.058  10.292  20.504  0.00  0.00    +0.000 A 
ATOM     12  H   UNL     1       0.256  12.626  19.030  0.00  0.00    +0.000 HD
ENDROOT
BRANCH   9  13
ATOM     13  C   UNL     1       0.638  14.504  19.690  0.00  0.00    +0.000 A 
ATOM     14  C   UNL     1      -0.292  15.140  18.853  0.00  0.00    +0.000 A 
ATOM     15  C   UNL     1      -0.199  16.501  18.573  0.00  0.00    +0.000 A 
ATOM     16  C   UNL     1       0.820  17.254  19.146  0.00  0.00    +0.000 A 
ATOM     17  C   UNL     1       1.716  16.644  20.023  0.00  0.00    +0.000 A 
ATOM     18 BR   UNL     1       3.103  17.675  20.795  0.00  0.00    +0.000 Br
ATOM     19  C   UNL     1       1.622  15.280  20.313  0.00  0.00    +0.000 A 
ENDBRANCH   9  13
BRANCH   1  22
ATOM     20  C   UNL     1       2.075   8.224  18.535  0.00  0.00    +0.000 C 
ATOM     21  O   UNL     1       1.488   8.972  17.769  0.00  0.00    +0.000 OA
ATOM     22  N   UNL     1       1.970   8.166  19.907  0.00  0.00    +0.000 N 
ATOM     23  H   UNL     1       2.653   7.580  20.371  0.00  0.00    +0.000 HD
BRANCH  20  25
ATOM     24  C   UNL     1       3.796   6.484  17.521  0.00  0.00    +0.000 C 
ATOM     25  C   UNL     1       3.047   7.288  18.002  0.00  0.00    +0.000 C 
BRANCH  24  26
ATOM     26  C   UNL     1       4.662   5.475  16.892  0.00  0.00    +0.000 C 
BRANCH  26  27
ATOM     27  N   UNL     1       6.051   5.909  16.654  0.00  0.00    +0.000 NA
ATOM     28  C   UNL     1       6.814   4.842  16.000  0.00  0.00    +0.000 C 
BRANCH  27  30
ATOM     29  C   UNL     1       7.647   5.421  18.513  0.00  0.00    +0.000 C 
ATOM     30  C   UNL     1       6.737   6.467  17.844  0.00  0.00    +0.000 C 
ATOM     31  C   UNL     1       7.620   7.679  17.502  0.00  0.00    +0.000 C 
ENDBRANCH  27  30
ENDBRANCH  26  27
ENDBRANCH  24  26
ENDBRANCH  20  25
ENDBRANCH   1  22
TORSDOF 6
ENDMDL
MODEL 2
REMARK VINA RESULT:      -7.2      1.092      1.409
REMARK  Name = 
REMARK  9 active torsions:
REMARK  status: ('A' for Active; 'I' for Inactive)
REMARK    1  A    between atoms: C_1  and  C_2
REMARK    2  A    between atoms: C_2  and  C_3
REMARK    3  A    between atoms: C_2  and  N_4
REMARK    4  A    between atoms: N_4  and  C_5
REMARK    5  A    between atoms: N_4  and  C_6
REMARK    6  A    between atoms: C_6  and  C_7
REMARK    7  A    between atoms: C_8  and  C_9
REMARK    8  A    between atoms: N_11  and  C_12
REMARK    9  A    between atoms: N_20  and  C_21
REMARK                            x       y       z     vdW  Elec       q    Type
REMARK                         _______ _______ _______ _____ _____    ______ ____
ROOT
ATOM      1  C   UNL     1       0.992   9.054  20.885  0.00  0.00    +0.000 A 
ATOM      2  C   UNL     1       0.164   8.635  21.920  0.00  0.00    +0.000 A 
ATOM      3  C   UNL     1      -0.536   9.580  22.682  0.00  0.00    +0.000 A 
ATOM      4  C   UNL     1      -0.472  10.939  22.411  0.00  0.00    +0.000 A 
ATOM      5  N   UNL     1      -1.176  11.783  23.170  0.00  0.00    +0.000 NA
ATOM      6  C   UNL     1      -1.100  13.078  22.854  0.00  0.00    +0.000 A 
ATOM      7  N   UNL     1      -0.415  13.597  21.833  0.00  0.00    +0.000 NA
ATOM      8  C   UNL     1       0.284  12.741  21.066  0.00  0.00    +0.000 A 
ATOM      9  N   UNL     1       0.944  13.247  19.906  0.00  0.00    +0.000 N 
ATOM     10  C   UNL     1       0.325  11.365  21.341  0.00  0.00    +0.000 A 
ATOM     11  C   UNL     1       1.098  10.421  20.621  0.00  0.00    +0.000 A 
ATOM     12  H   UNL     1       0.542  12.792  19.092  0.00  0.00    +0.000 HD
ENDROOT
BRANCH   9  13
ATOM     13  C   UNL     1       1.158  14.629  19.685  0.00  0.00    +0.000 A 
ATOM     14  C   UNL     1       2.291  15.256  20.225  0.00  0.00    +0.000 A 
ATOM     15  C   UNL     1       2.474  16.633  20.118  0.00  0.00    +0.000 A 
ATOM     16  C   UNL     1       1.530  17.403  19.448  0.00  0.00    +0.000 A 
ATOM     17  C   UNL     1       0.429  16.783  18.861  0.00  0.00    +0.000 A 
ATOM     18 BR   UNL     1      -0.856  17.839  17.955  0.00  0.00    +0.000 Br
ATOM     19  C   UNL     1       0.244  15.401  18.958  0.00  0.00    +0.000 A 
ENDBRANCH   9  13
BRANCH   1  22
ATOM     20  C   UNL     1       1.972   8.305  18.720  0.00  0.00    +0.000 C 
ATOM     21  O   UNL     1       1.630   9.211  17.976  0.00  0.00    +0.000 OA
ATOM     22  N   UNL     1       1.737   8.186  20.072  0.00  0.00    +0.000 N 
ATOM     23  H   UNL     1       2.234   7.435  20.535  0.00  0.00    +0.000 HD
BRANCH  20  25
ATOM     24  C   UNL     1       3.391   6.266  17.797  0.00  0.00    +0.000 C 
ATOM     25  C   UNL     1       2.761   7.211  18.184  0.00  0.00    +0.000 C 
BRANCH  24  26
ATOM     26  C   UNL     1       4.136   5.070  17.376  0.00  0.00    +0.000 C 
BRANCH  26  27
ATOM     27  N   UNL     1       5.448   5.340  16.761  0.00  0.00    +0.000 NA
ATOM     28  C   UNL     1       5.814   4.257  15.844  0.00  0.00    +0.000 C 
BRANCH  27  30
ATOM     29  C   UNL     1       7.647   4.619  17.705  0.00  0.00    +0.000 C 
ATOM     30  C   UNL     1       6.526   5.674  17.723  0.00  0.00    +0.000 C 
ATOM     31  C   UNL     1       7.182   7.033  17.425  0.00  0.00    +0.000 C 
ENDBRANCH  27  30
ENDBRANCH  26  27
ENDBRANCH  24  26
ENDBRANCH  20  25
ENDBRANCH   1  22
TORSDOF 6
ENDMDL
MODEL 3
REMARK VINA RESULT:      -7.2      3.946     10.325
REMARK  Name = 
REMARK  9 active torsions:
REMARK  status: ('A' for Active; 'I' for Inactive)
REMARK    1  A    between atoms: C_1  and  C_2
REMARK    2  A    between atoms: C_2  and  C_3
REMARK    3  A    between atoms: C_2  and  N_4
REMARK    4  A    between atoms: N_4  and  C_5
REMARK    5  A    between atoms: N_4  and  C_6
REMARK    6  A    between atoms: C_6  and  C_7
REMARK    7  A    between atoms: C_8  and  C_9
REMARK    8  A    between atoms: N_11  and  C_12
REMARK    9  A    between atoms: N_20  and  C_21
REMARK                            x       y       z     vdW  Elec       q    Type
REMARK                         _______ _______ _______ _____ _____    ______ ____
ROOT
ATOM      1  C   UNL     1       1.981   6.492  20.018  0.00  0.00    +0.000 A 
ATOM      2  C   UNL     1       1.419   5.496  20.809  0.00  0.00    +0.000 A 
ATOM      3  C   UNL     1       1.667   4.148  20.517  0.00  0.00    +0.000 A 
ATOM      4  C   UNL     1       2.504   3.761  19.480  0.00  0.00    +0.000 A 
ATOM      5  N   UNL     1       2.707   2.458  19.266  0.00  0.00    +0.000 NA
ATOM      6  C   UNL     1       3.539   2.137  18.273  0.00  0.00    +0.000 A 
ATOM      7  N   UNL     1       4.208   2.996  17.501  0.00  0.00    +0.000 NA
ATOM      8  C   UNL     1       4.007   4.307  17.728  0.00  0.00    +0.000 A 
ATOM      9  N   UNL     1       4.782   5.253  16.992  0.00  0.00    +0.000 N 
ATOM     10  C   UNL     1       3.109   4.760  18.707  0.00  0.00    +0.000 A 
ATOM     11  C   UNL     1       2.796   6.120  18.947  0.00  0.00    +0.000 A 
ATOM     12  H   UNL     1       5.342   5.783  17.654  0.00  0.00    +0.000 HD
ENDROOT
BRANCH   9  13
ATOM     13  C   UNL     1       5.522   4.908  15.835  0.00  0.00    +0.000 A 
ATOM     14  C   UNL     1       6.895   5.186  15.774  0.00  0.00    +0.000 A 
ATOM     15  C   UNL     1       7.628   4.958  14.611  0.00  0.00    +0.000 A 
ATOM     16  C   UNL     1       6.995   4.427  13.492  0.00  0.00    +0.000 A 
ATOM     17  C   UNL     1       5.643   4.095  13.560  0.00  0.00    +0.000 A 
ATOM     18 BR   UNL     1       4.787   3.378  12.031  0.00  0.00    +0.000 Br
ATOM     19  C   UNL     1       4.906   4.315  14.727  0.00  0.00    +0.000 A 
ENDBRANCH   9  13
BRANCH   1  22
ATOM     20  C   UNL     1       0.754   8.467  20.915  0.00  0.00    +0.000 C 
ATOM     21  O   UNL     1      -0.155   7.926  21.526  0.00  0.00    +0.000 OA
ATOM     22  N   UNL     1       1.785   7.867  20.226  0.00  0.00    +0.000 N 
ATOM     23  H   UNL     1       2.521   8.488  19.916  0.00  0.00    +0.000 HD
BRANCH  20  25
ATOM     24  C   UNL     1       0.836  11.115  20.906  0.00  0.00    +0.000 C 
ATOM     25  C   UNL     1       0.839   9.915  20.913  0.00  0.00    +0.000 C 
BRANCH  24  26
ATOM     26  C   UNL     1       0.762  12.584  20.898  0.00  0.00    +0.000 C 
BRANCH  26  27
ATOM     27  N   UNL     1      -0.540  13.143  21.307  0.00  0.00    +0.000 NA
ATOM     28  C   UNL     1      -0.631  14.554  20.925  0.00  0.00    +0.000 C 
BRANCH  27  30
ATOM     29  C   UNL     1      -1.163  14.220  23.474  0.00  0.00    +0.000 C 
ATOM     30  C   UNL     1      -0.898  12.901  22.725  0.00  0.00    +0.000 C 
ATOM     31  C   UNL     1      -2.161  12.036  22.876  0.00  0.00    +0.000 C 
ENDBRANCH  27  30
ENDBRANCH  26  27
ENDBRANCH  24  26
ENDBRANCH  20  25
ENDBRANCH   1  22
TORSDOF 6
ENDMDL
MODEL 4
REMARK VINA RESULT:      -7.2      6.631      8.384
REMARK  Name = 
REMARK  9 active torsions:
REMARK  status: ('A' for Active; 'I' for Inactive)
REMARK    1  A    between atoms: C_1  and  C_2
REMARK    2  A    between atoms: C_2  and  C_3
REMARK    3  A    between atoms: C_2  and  N_4
REMARK    4  A    between atoms: N_4  and  C_5
REMARK    5  A    between atoms: N_4  and  C_6
REMARK    6  A    between atoms: C_6  and  C_7
REMARK    7  A    between atoms: C_8  and  C_9
REMARK    8  A    between atoms: N_11  and  C_12
REMARK    9  A    between atoms: N_20  and  C_21
REMARK                            x       y       z     vdW  Elec       q    Type
REMARK                         _______ _______ _______ _____ _____    ______ ____
ROOT
ATOM      1  C   UNL     1       9.649  10.727  19.523  0.00  0.00    +0.000 A 
ATOM      2  C   UNL     1      10.599  11.441  18.801  0.00  0.00    +0.000 A 
ATOM      3  C   UNL     1      10.974  12.725  19.218  0.00  0.00    +0.000 A 
ATOM      4  C   UNL     1      10.461  13.305  20.369  0.00  0.00    +0.000 A 
ATOM      5  N   UNL     1      10.873  14.528  20.715  0.00  0.00    +0.000 NA
ATOM      6  C   UNL     1      10.368  15.032  21.843  0.00  0.00    +0.000 A 
ATOM      7  N   UNL     1       9.520  14.416  22.668  0.00  0.00    +0.000 NA
ATOM      8  C   UNL     1       9.117  13.180  22.320  0.00  0.00    +0.000 A 
ATOM      9  N   UNL     1       8.292  12.450  23.228  0.00  0.00    +0.000 N 
ATOM     10  C   UNL     1       9.536  12.574  21.125  0.00  0.00    +0.000 A 
ATOM     11  C   UNL     1       9.093  11.311  20.663  0.00  0.00    +0.000 A 
ATOM     12  H   UNL     1       8.796  11.613  23.507  0.00  0.00    +0.000 HD
ENDROOT
BRANCH   9  13
ATOM     13  C   UNL     1       7.631  13.057  24.323  0.00  0.00    +0.000 A 
ATOM     14  C   UNL     1       6.343  13.587  24.156  0.00  0.00    +0.000 A 
ATOM     15  C   UNL     1       5.711  14.285  25.182  0.00  0.00    +0.000 A 
ATOM     16  C   UNL     1       6.355  14.446  26.404  0.00  0.00    +0.000 A 
ATOM     17  C   UNL     1       7.612  13.876  26.599  0.00  0.00    +0.000 A 
ATOM     18 BR   UNL     1       8.485  14.104  28.264  0.00  0.00    +0.000 Br
ATOM     19  C   UNL     1       8.247  13.168  25.575  0.00  0.00    +0.000 A 
ENDBRANCH   9  13
BRANCH   1  22
ATOM     20  C   UNL     1       8.284   9.107  18.211  0.00  0.00    +0.000 C 
ATOM     21  O   UNL     1       7.720   9.852  17.424  0.00  0.00    +0.000 OA
ATOM     22  N   UNL     1       9.204   9.440  19.180  0.00  0.00    +0.000 N 
ATOM     23  H   UNL     1       9.666   8.659  19.627  0.00  0.00    +0.000 HD
BRANCH  20  25
ATOM     24  C   UNL     1       7.801   6.502  18.151  0.00  0.00    +0.000 C 
ATOM     25  C   UNL     1       8.029   7.680  18.139  0.00  0.00    +0.000 C 
BRANCH  24  26
ATOM     26  C   UNL     1       7.504   5.064  18.234  0.00  0.00    +0.000 C 
BRANCH  26  27
ATOM     27  N   UNL     1       6.568   4.564  17.211  0.00  0.00    +0.000 NA
ATOM     28  C   UNL     1       7.154   4.696  15.874  0.00  0.00    +0.000 C 
BRANCH  27  30
ATOM     29  C   UNL     1       4.944   6.175  16.205  0.00  0.00    +0.000 C 
ATOM     30  C   UNL     1       5.197   5.123  17.300  0.00  0.00    +0.000 C 
ATOM     31  C   UNL     1       4.109   4.046  17.150  0.00  0.00    +0.000 C 
ENDBRANCH  27  30
ENDBRANCH  26  27
ENDBRANCH  24  26
ENDBRANCH  20  25
ENDBRANCH   1  22
TORSDOF 6
ENDMDL
MODEL 5
REMARK VINA RESULT:      -7.1      4.015      9.777
REMARK  Name = 
REMARK  9 active torsions:
REMARK  status: ('A' for Active; 'I' for Inactive)
REMARK    1  A    between atoms: C_1  and  C_2
REMARK    2  A    between atoms: C_2  and  C_3
REMARK    3  A    between atoms: C_2  and  N_4
REMARK    4  A    between atoms: N_4  and  C_5
REMARK    5  A    between atoms: N_4  and  C_6
REMARK    6  A    between atoms: C_6  and  C_7
REMARK    7  A    between atoms: C_8  and  C_9
REMARK    8  A    between atoms: N_11  and  C_12
REMARK    9  A    between atoms: N_20  and  C_21
REMARK                            x       y       z     vdW  Elec       q    Type
REMARK                         _______ _______ _______ _____ _____    ______ ____
ROOT
ATOM      1  C   UNL     1       2.041   6.491  20.076  0.00  0.00    +0.000 A 
ATOM      2  C   UNL     1       1.476   5.493  20.862  0.00  0.00    +0.000 A 
ATOM      3  C   UNL     1       1.710   4.146  20.556  0.00  0.00    +0.000 A 
ATOM      4  C   UNL     1       2.536   3.760  19.509  0.00  0.00    +0.000 A 
ATOM      5  N   UNL     1       2.725   2.458  19.282  0.00  0.00    +0.000 NA
ATOM      6  C   UNL     1       3.547   2.139  18.279  0.00  0.00    +0.000 A 
ATOM      7  N   UNL     1       4.218   2.999  17.511  0.00  0.00    +0.000 NA
ATOM      8  C   UNL     1       4.031   4.309  17.751  0.00  0.00    +0.000 A 
ATOM      9  N   UNL     1       4.809   5.255  17.018  0.00  0.00    +0.000 N 
ATOM     10  C   UNL     1       3.144   4.761  18.741  0.00  0.00    +0.000 A 
ATOM     11  C   UNL     1       2.844   6.122  18.995  0.00  0.00    +0.000 A 
ATOM     12  H   UNL     1       5.377   5.774  17.681  0.00  0.00    +0.000 HD
ENDROOT
BRANCH   9  13
ATOM     13  C   UNL     1       5.537   4.913  15.853  0.00  0.00    +0.000 A 
ATOM     14  C   UNL     1       6.903   5.218  15.768  0.00  0.00    +0.000 A 
ATOM     15  C   UNL     1       7.621   4.994  14.595  0.00  0.00    +0.000 A 
ATOM     16  C   UNL     1       6.982   4.440  13.491  0.00  0.00    +0.000 A 
ATOM     17  C   UNL     1       5.638   4.083  13.583  0.00  0.00    +0.000 A 
ATOM     18 BR   UNL     1       4.773   3.335  12.075  0.00  0.00    +0.000 Br
ATOM     19  C   UNL     1       4.915   4.298  14.760  0.00  0.00    +0.000 A 
ENDBRANCH   9  13
BRANCH   1  22
ATOM     20  C   UNL     1       0.811   8.472  20.955  0.00  0.00    +0.000 C 
ATOM     21  O   UNL     1      -0.129   7.937  21.522  0.00  0.00    +0.000 OA
ATOM     22  N   UNL     1       1.859   7.865  20.298  0.00  0.00    +0.000 N 
ATOM     23  H   UNL     1       2.616   8.480  20.027  0.00  0.00    +0.000 HD
BRANCH  20  25
ATOM     24  C   UNL     1       0.946  11.118  20.959  0.00  0.00    +0.000 C 
ATOM     25  C   UNL     1       0.919   9.919  20.979  0.00  0.00    +0.000 C 
BRANCH  24  26
ATOM     26  C   UNL     1       0.919  12.588  20.901  0.00  0.00    +0.000 C 
BRANCH  26  27
ATOM     27  N   UNL     1       0.692  13.151  19.558  0.00  0.00    +0.000 NA
ATOM     28  C   UNL     1      -0.172  12.266  18.772  0.00  0.00    +0.000 C 
BRANCH  27  30
ATOM     29  C   UNL     1       3.015  14.039  19.806  0.00  0.00    +0.000 C 
ATOM     30  C   UNL     1       1.926  13.546  18.836  0.00  0.00    +0.000 C 
ATOM     31  C   UNL     1       2.535  12.387  18.029  0.00  0.00    +0.000 C 
ENDBRANCH  27  30
ENDBRANCH  26  27
ENDBRANCH  24  26
ENDBRANCH  20  25
ENDBRANCH   1  22
TORSDOF 6
ENDMDL
MODEL 6
REMARK VINA RESULT:      -7.1      1.888      2.672
REMARK  Name = 
REMARK  9 active torsions:
REMARK  status: ('A' for Active; 'I' for Inactive)
REMARK    1  A    between atoms: C_1  and  C_2
REMARK    2  A    between atoms: C_2  and  C_3
REMARK    3  A    between atoms: C_2  and  N_4
REMARK    4  A    between atoms: N_4  and  C_5
REMARK    5  A    between atoms: N_4  and  C_6
REMARK    6  A    between atoms: C_6  and  C_7
REMARK    7  A    between atoms: C_8  and  C_9
REMARK    8  A    between atoms: N_11  and  C_12
REMARK    9  A    between atoms: N_20  and  C_21
REMARK                            x       y       z     vdW  Elec       q    Type
REMARK                         _______ _______ _______ _____ _____    ______ ____
ROOT
ATOM      1  C   UNL     1       0.802   9.420  21.062  0.00  0.00    +0.000 A 
ATOM      2  C   UNL     1      -0.021   9.031  22.113  0.00  0.00    +0.000 A 
ATOM      3  C   UNL     1      -0.700   9.998  22.865  0.00  0.00    +0.000 A 
ATOM      4  C   UNL     1      -0.620  11.352  22.569  0.00  0.00    +0.000 A 
ATOM      5  N   UNL     1      -1.305  12.218  23.320  0.00  0.00    +0.000 NA
ATOM      6  C   UNL     1      -1.215  13.506  22.979  0.00  0.00    +0.000 A 
ATOM      7  N   UNL     1      -0.533  13.998  21.943  0.00  0.00    +0.000 NA
ATOM      8  C   UNL     1       0.146  13.119  21.185  0.00  0.00    +0.000 A 
ATOM      9  N   UNL     1       0.801  13.595  20.009  0.00  0.00    +0.000 N 
ATOM     10  C   UNL     1       0.172  11.748  21.483  0.00  0.00    +0.000 A 
ATOM     11  C   UNL     1       0.924  10.781  20.773  0.00  0.00    +0.000 A 
ATOM     12  H   UNL     1       0.385  13.131  19.208  0.00  0.00    +0.000 HD
ENDROOT
BRANCH   9  13
ATOM     13  C   UNL     1       1.032  14.970  19.762  0.00  0.00    +0.000 A 
ATOM     14  C   UNL     1       2.098  15.625  20.395  0.00  0.00    +0.000 A 
ATOM     15  C   UNL     1       2.286  16.999  20.258  0.00  0.00    +0.000 A 
ATOM     16  C   UNL     1       1.415  17.737  19.464  0.00  0.00    +0.000 A 
ATOM     17  C   UNL     1       0.385  17.087  18.786  0.00  0.00    +0.000 A 
ATOM     18 BR   UNL     1      -0.800  18.099  17.711  0.00  0.00    +0.000 Br
ATOM     19  C   UNL     1       0.197  15.708  18.914  0.00  0.00    +0.000 A 
ENDBRANCH   9  13
BRANCH   1  22
ATOM     20  C   UNL     1       1.703   8.589  18.893  0.00  0.00    +0.000 C 
ATOM     21  O   UNL     1       1.314   9.455  18.125  0.00  0.00    +0.000 OA
ATOM     22  N   UNL     1       1.528   8.528  20.258  0.00  0.00    +0.000 N 
ATOM     23  H   UNL     1       2.057   7.807  20.732  0.00  0.00    +0.000 HD
BRANCH  20  25
ATOM     24  C   UNL     1       3.091   6.525  17.977  0.00  0.00    +0.000 C 
ATOM     25  C   UNL     1       2.488   7.484  18.373  0.00  0.00    +0.000 C 
BRANCH  24  26
ATOM     26  C   UNL     1       3.782   5.309  17.524  0.00  0.00    +0.000 C 
BRANCH  26  27
ATOM     27  N   UNL     1       3.648   4.147  18.422  0.00  0.00    +0.000 NA
ATOM     28  C   UNL     1       4.966   3.710  18.889  0.00  0.00    +0.000 C 
BRANCH  27  30
ATOM     29  C   UNL     1       3.340   1.668  18.361  0.00  0.00    +0.000 C 
ATOM     30  C   UNL     1       2.828   3.037  17.879  0.00  0.00    +0.000 C 
ATOM     31  C   UNL     1       1.351   3.137  18.297  0.00  0.00    +0.000 C 
ENDBRANCH  27  30
ENDBRANCH  26  27
ENDBRANCH  24  26
ENDBRANCH  20  25
ENDBRANCH   1  22
TORSDOF 6
ENDMDL
MODEL 7
REMARK VINA RESULT:      -7.1      1.385      1.650
REMARK  Name = 
REMARK  9 active torsions:
REMARK  status: ('A' for Active; 'I' for Inactive)
REMARK    1  A    between atoms: C_1  and  C_2
REMARK    2  A    between atoms: C_2  and  C_3
REMARK    3  A    between atoms: C_2  and  N_4
REMARK    4  A    between atoms: N_4  and  C_5
REMARK    5  A    between atoms: N_4  and  C_6
REMARK    6  A    between atoms: C_6  and  C_7
REMARK    7  A    between atoms: C_8  and  C_9
REMARK    8  A    between atoms: N_11  and  C_12
REMARK    9  A    between atoms: N_20  and  C_21
REMARK                            x       y       z     vdW  Elec       q    Type
REMARK                         _______ _______ _______ _____ _____    ______ ____
ROOT
ATOM      1  C   UNL     1       1.156   8.765  20.652  0.00  0.00    +0.000 A 
ATOM      2  C   UNL     1       0.338   8.266  21.660  0.00  0.00    +0.000 A 
ATOM      3  C   UNL     1      -0.384   9.147  22.475  0.00  0.00    +0.000 A 
ATOM      4  C   UNL     1      -0.353  10.522  22.284  0.00  0.00    +0.000 A 
ATOM      5  N   UNL     1      -1.077  11.302  23.091  0.00  0.00    +0.000 NA
ATOM      6  C   UNL     1      -1.031  12.615  22.851  0.00  0.00    +0.000 A 
ATOM      7  N   UNL     1      -0.359  13.210  21.864  0.00  0.00    +0.000 NA
ATOM      8  C   UNL     1       0.360  12.417  21.049  0.00  0.00    +0.000 A 
ATOM      9  N   UNL     1       1.009  13.005  19.922  0.00  0.00    +0.000 N 
ATOM     10  C   UNL     1       0.435  11.028  21.242  0.00  0.00    +0.000 A 
ATOM     11  C   UNL     1       1.230  10.147  20.470  0.00  0.00    +0.000 A 
ATOM     12  H   UNL     1       0.618  12.590  19.082  0.00  0.00    +0.000 HD
ENDROOT
BRANCH   9  13
ATOM     13  C   UNL     1       1.190  14.403  19.783  0.00  0.00    +0.000 A 
ATOM     14  C   UNL     1       2.237  15.043  20.462  0.00  0.00    +0.000 A 
ATOM     15  C   UNL     1       2.376  16.429  20.434  0.00  0.00    +0.000 A 
ATOM     16  C   UNL     1       1.475  17.196  19.703  0.00  0.00    +0.000 A 
ATOM     17  C   UNL     1       0.464  16.566  18.979  0.00  0.00    +0.000 A 
ATOM     18 BR   UNL     1      -0.762  17.618  17.992  0.00  0.00    +0.000 Br
ATOM     19  C   UNL     1       0.325  15.175  18.999  0.00  0.00    +0.000 A 
ENDBRANCH   9  13
BRANCH   1  22
ATOM     20  C   UNL     1       2.203   6.623  19.930  0.00  0.00    +0.000 C 
ATOM     21  O   UNL     1       1.798   5.857  20.791  0.00  0.00    +0.000 OA
ATOM     22  N   UNL     1       1.922   7.964  19.791  0.00  0.00    +0.000 N 
ATOM     23  H   UNL     1       2.234   8.385  18.926  0.00  0.00    +0.000 HD
BRANCH  20  25
ATOM     24  C   UNL     1       3.697   5.685  17.953  0.00  0.00    +0.000 C 
ATOM     25  C   UNL     1       3.053   6.109  18.872  0.00  0.00    +0.000 C 
BRANCH  24  26
ATOM     26  C   UNL     1       4.429   5.169  16.786  0.00  0.00    +0.000 C 
BRANCH  26  27
ATOM     27  N   UNL     1       5.707   5.849  16.505  0.00  0.00    +0.000 NA
ATOM     28  C   UNL     1       6.389   5.206  15.378  0.00  0.00    +0.000 C 
BRANCH  27  30
ATOM     29  C   UNL     1       7.544   4.839  17.866  0.00  0.00    +0.000 C 
ATOM     30  C   UNL     1       6.585   6.030  17.686  0.00  0.00    +0.000 C 
ATOM     31  C   UNL     1       7.453   7.296  17.588  0.00  0.00    +0.000 C 
ENDBRANCH  27  30
ENDBRANCH  26  27
ENDBRANCH  24  26
ENDBRANCH  20  25
ENDBRANCH   1  22
TORSDOF 6
ENDMDL
MODEL 8
REMARK VINA RESULT:      -7.1      2.332      2.991
REMARK  Name = 
REMARK  9 active torsions:
REMARK  status: ('A' for Active; 'I' for Inactive)
REMARK    1  A    between atoms: C_1  and  C_2
REMARK    2  A    between atoms: C_2  and  C_3
REMARK    3  A    between atoms: C_2  and  N_4
REMARK    4  A    between atoms: N_4  and  C_5
REMARK    5  A    between atoms: N_4  and  C_6
REMARK    6  A    between atoms: C_6  and  C_7
REMARK    7  A    between atoms: C_8  and  C_9
REMARK    8  A    between atoms: N_11  and  C_12
REMARK    9  A    between atoms: N_20  and  C_21
REMARK                            x       y       z     vdW  Elec       q    Type
REMARK                         _______ _______ _______ _____ _____    ______ ____
ROOT
ATOM      1  C   UNL     1       0.853   9.046  21.647  0.00  0.00    +0.000 A 
ATOM      2  C   UNL     1      -0.122   8.852  22.621  0.00  0.00    +0.000 A 
ATOM      3  C   UNL     1      -0.826   9.949  23.134  0.00  0.00    +0.000 A 
ATOM      4  C   UNL     1      -0.620  11.240  22.668  0.00  0.00    +0.000 A 
ATOM      5  N   UNL     1      -1.336  12.237  23.193  0.00  0.00    +0.000 NA
ATOM      6  C   UNL     1      -1.118  13.457  22.695  0.00  0.00    +0.000 A 
ATOM      7  N   UNL     1      -0.279  13.761  21.703  0.00  0.00    +0.000 NA
ATOM      8  C   UNL     1       0.431  12.750  21.171  0.00  0.00    +0.000 A 
ATOM      9  N   UNL     1       1.261  13.019  20.041  0.00  0.00    +0.000 N 
ATOM     10  C   UNL     1       0.328  11.437  21.656  0.00  0.00    +0.000 A 
ATOM     11  C   UNL     1       1.100  10.343  21.194  0.00  0.00    +0.000 A 
ATOM     12  H   UNL     1       0.920  12.465  19.262  0.00  0.00    +0.000 HD
ENDROOT
BRANCH   9  13
ATOM     13  C   UNL     1       1.612  14.332  19.641  0.00  0.00    +0.000 A 
ATOM     14  C   UNL     1       0.677  15.130  18.965  0.00  0.00    +0.000 A 
ATOM     15  C   UNL     1       1.025  16.382  18.463  0.00  0.00    +0.000 A 
ATOM     16  C   UNL     1       2.317  16.863  18.648  0.00  0.00    +0.000 A 
ATOM     17  C   UNL     1       3.238  16.102  19.366  0.00  0.00    +0.000 A 
ATOM     18 BR   UNL     1       4.995  16.762  19.609  0.00  0.00    +0.000 Br
ATOM     19  C   UNL     1       2.891  14.848  19.879  0.00  0.00    +0.000 A 
ENDBRANCH   9  13
BRANCH   1  22
ATOM     20  C   UNL     1       1.919   7.837  19.747  0.00  0.00    +0.000 C 
ATOM     21  O   UNL     1       1.640   8.570  18.811  0.00  0.00    +0.000 OA
ATOM     22  N   UNL     1       1.614   8.013  21.079  0.00  0.00    +0.000 N 
ATOM     23  H   UNL     1       2.067   7.370  21.717  0.00  0.00    +0.000 HD
BRANCH  20  25
ATOM     24  C   UNL     1       3.320   5.623  19.350  0.00  0.00    +0.000 C 
ATOM     25  C   UNL     1       2.705   6.643  19.499  0.00  0.00    +0.000 C 
BRANCH  24  26
ATOM     26  C   UNL     1       4.037   4.346  19.221  0.00  0.00    +0.000 C 
BRANCH  26  27
ATOM     27  N   UNL     1       3.256   3.154  19.597  0.00  0.00    +0.000 NA
ATOM     28  C   UNL     1       3.262   2.175  18.507  0.00  0.00    +0.000 C 
BRANCH  27  30
ATOM     29  C   UNL     1       0.811   2.774  19.243  0.00  0.00    +0.000 C 
ATOM     30  C   UNL     1       1.894   3.443  20.108  0.00  0.00    +0.000 C 
ATOM     31  C   UNL     1       1.687   2.948  21.550  0.00  0.00    +0.000 C 
ENDBRANCH  27  30
ENDBRANCH  26  27
ENDBRANCH  24  26
ENDBRANCH  20  25
ENDBRANCH   1  22
TORSDOF 6
ENDMDL
MODEL 9
REMARK VINA RESULT:      -7.1      2.395      3.122
REMARK  Name = 
REMARK  9 active torsions:
REMARK  status: ('A' for Active; 'I' for Inactive)
REMARK    1  A    between atoms: C_1  and  C_2
REMARK    2  A    between atoms: C_2  and  C_3
REMARK    3  A    between atoms: C_2  and  N_4
REMARK    4  A    between atoms: N_4  and  C_5
REMARK    5  A    between atoms: N_4  and  C_6
REMARK    6  A    between atoms: C_6  and  C_7
REMARK    7  A    between atoms: C_8  and  C_9
REMARK    8  A    between atoms: N_11  and  C_12
REMARK    9  A    between atoms: N_20  and  C_21
REMARK                            x       y       z     vdW  Elec       q    Type
REMARK                         _______ _______ _______ _____ _____    ______ ____
ROOT
ATOM      1  C   UNL     1       0.849   9.007  21.574  0.00  0.00    +0.000 A 
ATOM      2  C   UNL     1      -0.012   8.851  22.655  0.00  0.00    +0.000 A 
ATOM      3  C   UNL     1      -0.686   9.962  23.178  0.00  0.00    +0.000 A 
ATOM      4  C   UNL     1      -0.564  11.228  22.621  0.00  0.00    +0.000 A 
ATOM      5  N   UNL     1      -1.246  12.240  23.163  0.00  0.00    +0.000 NA
ATOM      6  C   UNL     1      -1.113  13.432  22.577  0.00  0.00    +0.000 A 
ATOM      7  N   UNL     1      -0.392  13.694  21.486  0.00  0.00    +0.000 NA
ATOM      8  C   UNL     1       0.285  12.668  20.939  0.00  0.00    +0.000 A 
ATOM      9  N   UNL     1       0.984  12.888  19.714  0.00  0.00    +0.000 N 
ATOM     10  C   UNL     1       0.267  11.384  21.505  0.00  0.00    +0.000 A 
ATOM     11  C   UNL     1       1.014  10.280  21.025  0.00  0.00    +0.000 A 
ATOM     12  H   UNL     1       0.577  12.282  19.007  0.00  0.00    +0.000 HD
ENDROOT
BRANCH   9  13
ATOM     13  C   UNL     1       1.257  14.181  19.205  0.00  0.00    +0.000 A 
ATOM     14  C   UNL     1       2.585  14.602  19.042  0.00  0.00    +0.000 A 
ATOM     15  C   UNL     1       2.886  15.904  18.649  0.00  0.00    +0.000 A 
ATOM     16  C   UNL     1       1.855  16.802  18.392  0.00  0.00    +0.000 A 
ATOM     17  C   UNL     1       0.532  16.378  18.498  0.00  0.00    +0.000 A 
ATOM     18 BR   UNL     1      -0.866  17.607  18.153  0.00  0.00    +0.000 Br
ATOM     19  C   UNL     1       0.224  15.070  18.885  0.00  0.00    +0.000 A 
ENDBRANCH   9  13
BRANCH   1  22
ATOM     20  C   UNL     1       1.975   7.855  19.673  0.00  0.00    +0.000 C 
ATOM     21  O   UNL     1       1.834   8.675  18.779  0.00  0.00    +0.000 OA
ATOM     22  N   UNL     1       1.573   7.958  20.986  0.00  0.00    +0.000 N 
ATOM     23  H   UNL     1       1.919   7.235  21.604  0.00  0.00    +0.000 HD
BRANCH  20  25
ATOM     24  C   UNL     1       3.225   5.566  19.210  0.00  0.00    +0.000 C 
ATOM     25  C   UNL     1       2.683   6.620  19.392  0.00  0.00    +0.000 C 
BRANCH  24  26
ATOM     26  C   UNL     1       3.846   4.244  19.032  0.00  0.00    +0.000 C 
BRANCH  26  27
ATOM     27  N   UNL     1       3.278   3.173  19.871  0.00  0.00    +0.000 NA
ATOM     28  C   UNL     1       4.345   2.331  20.416  0.00  0.00    +0.000 C 
BRANCH  27  30
ATOM     29  C   UNL     1       0.806   2.962  19.565  0.00  0.00    +0.000 C 
ATOM     30  C   UNL     1       2.195   2.391  19.226  0.00  0.00    +0.000 C 
ATOM     31  C   UNL     1       2.312   2.374  17.693  0.00  0.00    +0.000 C 
ENDBRANCH  27  30
ENDBRANCH  26  27
ENDBRANCH  24  26
ENDBRANCH  20  25
ENDBRANCH   1  22
TORSDOF 6
ENDMDL
