MODEL 1
REMARK VINA RESULT:      -7.5      0.000      0.000
REMARK  Name = 
REMARK  8 active torsions:
REMARK  status: ('A' for Active; 'I' for Inactive)
REMARK    1  A    between atoms: C_1  and  O_2
REMARK    2  A    between atoms: O_2  and  N_3
REMARK    3  A    between atoms: C_4  and  C_5
REMARK    4  A    between atoms: C_4  and  C_10
REMARK    5  A    between atoms: N_7  and  C_8
REMARK    6  A    between atoms: N_7  and  C_9
REMARK    7  A    between atoms: C_15  and  O_16
REMARK    8  A    between atoms: O_16  and  C_17
REMARK                            x       y       z     vdW  Elec       q    Type
REMARK                         _______ _______ _______ _____ _____    ______ ____
ROOT
ATOM      1  C   UNL     1       4.897   5.079  17.904  0.00  0.00    +0.000 A 
ATOM      2  C   UNL     1       5.562   5.475  19.082  0.00  0.00    +0.000 A 
ATOM      3  C   UNL     1       6.956   5.425  19.188  0.00  0.00    +0.000 A 
ATOM      4  C   UNL     1       7.712   4.909  18.145  0.00  0.00    +0.000 A 
ATOM      5  C   UNL     1       7.079   4.510  16.971  0.00  0.00    +0.000 A 
ATOM      6  C   UNL     1       5.690   4.674  16.802  0.00  0.00    +0.000 A 
ENDROOT
BRANCH   1   8
ATOM      7  N   UNL     1       2.624   6.195  17.855  0.00  0.00    +0.000 NA
ATOM      8  C   UNL     1       3.378   5.135  17.910  0.00  0.00    +0.000 C 
BRANCH   8   9
ATOM      9  C   UNL     1       2.625   3.782  17.972  0.00  0.00    +0.000 C 
ATOM     10  O   UNL     1       2.347   3.252  16.896  0.00  0.00    +0.000 OA
ATOM     11  N   UNL     1       2.203   3.254  19.208  0.00  0.00    +0.000 N 
ATOM     12  C   UNL     1       2.629   3.681  20.536  0.00  0.00    +0.000 C 
ATOM     13  C   UNL     1       1.342   2.081  19.201  0.00  0.00    +0.000 C 
ENDBRANCH   8   9
BRANCH   7  15
ATOM     14  C   UNL     1       2.524   8.487  17.850  0.00  0.00    +0.000 C 
ATOM     15  O   UNL     1       3.330   7.358  17.546  0.00  0.00    +0.000 OA
ENDBRANCH   7  15
ENDBRANCH   1   8
BRANCH   6  16
ATOM     16  O   UNL     1       5.092   4.437  15.574  0.00  0.00    +0.000 OA
BRANCH  16  17
ATOM     17  C   UNL     1       5.847   4.370  14.420  0.00  0.00    +0.000 A 
ATOM     18  C   UNL     1       5.407   3.497  13.423  0.00  0.00    +0.000 A 
ATOM     19  C   UNL     1       6.104   3.401  12.215  0.00  0.00    +0.000 A 
ATOM     20  C   UNL     1       7.245   4.178  12.001  0.00  0.00    +0.000 A 
ATOM     21  C   UNL     1       7.681   5.060  12.986  0.00  0.00    +0.000 A 
ATOM     22  C   UNL     1       6.968   5.178  14.183  0.00  0.00    +0.000 A 
ENDBRANCH  16  17
ENDBRANCH   6  16
TORSDOF 5
ENDMDL
MODEL 2
REMARK VINA RESULT:      -7.3      0.099      1.032
REMARK  Name = 
REMARK  8 active torsions:
REMARK  status: ('A' for Active; 'I' for Inactive)
REMARK    1  A    between atoms: C_1  and  O_2
REMARK    2  A    between atoms: O_2  and  N_3
REMARK    3  A    between atoms: C_4  and  C_5
REMARK    4  A    between atoms: C_4  and  C_10
REMARK    5  A    between atoms: N_7  and  C_8
REMARK    6  A    between atoms: N_7  and  C_9
REMARK    7  A    between atoms: C_15  and  O_16
REMARK    8  A    between atoms: O_16  and  C_17
REMARK                            x       y       z     vdW  Elec       q    Type
REMARK                         _______ _______ _______ _____ _____    ______ ____
ROOT
ATOM      1  C   UNL     1       4.880   5.052  17.867  0.00  0.00    +0.000 A 
ATOM      2  C   UNL     1       5.571   5.469  19.024  0.00  0.00    +0.000 A 
ATOM      3  C   UNL     1       6.966   5.410  19.103  0.00  0.00    +0.000 A 
ATOM      4  C   UNL     1       7.699   4.867  18.058  0.00  0.00    +0.000 A 
ATOM      5  C   UNL     1       7.040   4.446  16.906  0.00  0.00    +0.000 A 
ATOM      6  C   UNL     1       5.650   4.617  16.759  0.00  0.00    +0.000 A 
ENDROOT
BRANCH   1   8
ATOM      7  N   UNL     1       2.615   6.184  17.853  0.00  0.00    +0.000 NA
ATOM      8  C   UNL     1       3.362   5.118  17.901  0.00  0.00    +0.000 C 
BRANCH   8   9
ATOM      9  C   UNL     1       2.601   3.772  17.986  0.00  0.00    +0.000 C 
ATOM     10  O   UNL     1       2.309   3.231  16.919  0.00  0.00    +0.000 OA
ATOM     11  N   UNL     1       2.186   3.262  19.232  0.00  0.00    +0.000 N 
ATOM     12  C   UNL     1       2.626   3.702  20.552  0.00  0.00    +0.000 C 
ATOM     13  C   UNL     1       1.317   2.095  19.247  0.00  0.00    +0.000 C 
ENDBRANCH   8   9
BRANCH   7  15
ATOM     14  C   UNL     1       2.561   8.477  17.898  0.00  0.00    +0.000 C 
ATOM     15  O   UNL     1       3.324   7.340  17.524  0.00  0.00    +0.000 OA
ENDBRANCH   7  15
ENDBRANCH   1   8
BRANCH   6  16
ATOM     16  O   UNL     1       5.026   4.357  15.550  0.00  0.00    +0.000 OA
BRANCH  16  17
ATOM     17  C   UNL     1       5.749   4.323  14.374  0.00  0.00    +0.000 A 
ATOM     18  C   UNL     1       6.863   5.163  14.290  0.00  0.00    +0.000 A 
ATOM     19  C   UNL     1       7.661   5.159  13.142  0.00  0.00    +0.000 A 
ATOM     20  C   UNL     1       7.347   4.314  12.074  0.00  0.00    +0.000 A 
ATOM     21  C   UNL     1       6.248   3.466  12.158  0.00  0.00    +0.000 A 
ATOM     22  C   UNL     1       5.465   3.448  13.316  0.00  0.00    +0.000 A 
ENDBRANCH  16  17
ENDBRANCH   6  16
TORSDOF 5
ENDMDL
MODEL 3
REMARK VINA RESULT:      -7.2      1.045      2.516
REMARK  Name = 
REMARK  8 active torsions:
REMARK  status: ('A' for Active; 'I' for Inactive)
REMARK    1  A    between atoms: C_1  and  O_2
REMARK    2  A    between atoms: O_2  and  N_3
REMARK    3  A    between atoms: C_4  and  C_5
REMARK    4  A    between atoms: C_4  and  C_10
REMARK    5  A    between atoms: N_7  and  C_8
REMARK    6  A    between atoms: N_7  and  C_9
REMARK    7  A    between atoms: C_15  and  O_16
REMARK    8  A    between atoms: O_16  and  C_17
REMARK                            x       y       z     vdW  Elec       q    Type
REMARK                         _______ _______ _______ _____ _____    ______ ____
ROOT
ATOM      1  C   UNL     1       4.990   5.008  17.933  0.00  0.00    +0.000 A 
ATOM      2  C   UNL     1       5.677   5.300  19.130  0.00  0.00    +0.000 A 
ATOM      3  C   UNL     1       7.073   5.264  19.199  0.00  0.00    +0.000 A 
ATOM      4  C   UNL     1       7.813   4.864  18.095  0.00  0.00    +0.000 A 
ATOM      5  C   UNL     1       7.159   4.569  16.903  0.00  0.00    +0.000 A 
ATOM      6  C   UNL     1       5.764   4.725  16.780  0.00  0.00    +0.000 A 
ENDROOT
BRANCH   1   8
ATOM      7  N   UNL     1       2.652   4.074  17.663  0.00  0.00    +0.000 NA
ATOM      8  C   UNL     1       3.471   5.036  17.978  0.00  0.00    +0.000 C 
BRANCH   8   9
ATOM      9  C   UNL     1       2.806   6.347  18.469  0.00  0.00    +0.000 C 
ATOM     10  O   UNL     1       2.861   7.315  17.711  0.00  0.00    +0.000 OA
ATOM     11  N   UNL     1       2.260   6.429  19.765  0.00  0.00    +0.000 N 
ATOM     12  C   UNL     1       1.969   5.321  20.668  0.00  0.00    +0.000 C 
ATOM     13  C   UNL     1       1.815   7.729  20.246  0.00  0.00    +0.000 C 
ENDBRANCH   8   9
BRANCH   7  15
ATOM     14  C   UNL     1       2.928   1.968  18.530  0.00  0.00    +0.000 C 
ATOM     15  O   UNL     1       3.289   2.847  17.475  0.00  0.00    +0.000 OA
ENDBRANCH   7  15
ENDBRANCH   1   8
BRANCH   6  16
ATOM     16  O   UNL     1       5.140   4.596  15.549  0.00  0.00    +0.000 OA
BRANCH  16  17
ATOM     17  C   UNL     1       5.882   4.452  14.393  0.00  0.00    +0.000 A 
ATOM     18  C   UNL     1       5.406   3.546  13.442  0.00  0.00    +0.000 A 
ATOM     19  C   UNL     1       6.088   3.373  12.234  0.00  0.00    +0.000 A 
ATOM     20  C   UNL     1       7.248   4.105  11.973  0.00  0.00    +0.000 A 
ATOM     21  C   UNL     1       7.719   5.019  12.911  0.00  0.00    +0.000 A 
ATOM     22  C   UNL     1       7.023   5.215  14.108  0.00  0.00    +0.000 A 
ENDBRANCH  16  17
ENDBRANCH   6  16
TORSDOF 5
ENDMDL
MODEL 4
REMARK VINA RESULT:      -7.1      1.966      5.099
REMARK  Name = 
REMARK  8 active torsions:
REMARK  status: ('A' for Active; 'I' for Inactive)
REMARK    1  A    between atoms: C_1  and  O_2
REMARK    2  A    between atoms: O_2  and  N_3
REMARK    3  A    between atoms: C_4  and  C_5
REMARK    4  A    between atoms: C_4  and  C_10
REMARK    5  A    between atoms: N_7  and  C_8
REMARK    6  A    between atoms: N_7  and  C_9
REMARK    7  A    between atoms: C_15  and  O_16
REMARK    8  A    between atoms: O_16  and  C_17
REMARK                            x       y       z     vdW  Elec       q    Type
REMARK                         _______ _______ _______ _____ _____    ______ ____
ROOT
ATOM      1  C   UNL     1       5.961   5.376  17.630  0.00  0.00    +0.000 A 
ATOM      2  C   UNL     1       7.282   5.340  18.123  0.00  0.00    +0.000 A 
ATOM      3  C   UNL     1       8.027   6.509  18.304  0.00  0.00    +0.000 A 
ATOM      4  C   UNL     1       7.497   7.735  17.929  0.00  0.00    +0.000 A 
ATOM      5  C   UNL     1       6.197   7.798  17.438  0.00  0.00    +0.000 A 
ATOM      6  C   UNL     1       5.388   6.646  17.370  0.00  0.00    +0.000 A 
ENDROOT
BRANCH   1   8
ATOM      7  N   UNL     1       5.256   3.299  16.364  0.00  0.00    +0.000 NA
ATOM      8  C   UNL     1       5.255   4.045  17.432  0.00  0.00    +0.000 C 
BRANCH   8   9
ATOM      9  C   UNL     1       4.452   3.489  18.635  0.00  0.00    +0.000 C 
ATOM     10  O   UNL     1       5.094   3.193  19.642  0.00  0.00    +0.000 OA
ATOM     11  N   UNL     1       3.068   3.249  18.521  0.00  0.00    +0.000 N 
ATOM     12  C   UNL     1       2.178   3.724  17.468  0.00  0.00    +0.000 C 
ATOM     13  C   UNL     1       2.396   2.556  19.609  0.00  0.00    +0.000 C 
ENDBRANCH   8   9
BRANCH   7  15
ATOM     14  C   UNL     1       5.499   4.235  14.283  0.00  0.00    +0.000 C 
ATOM     15  O   UNL     1       6.187   3.707  15.408  0.00  0.00    +0.000 OA
ENDBRANCH   7  15
ENDBRANCH   1   8
BRANCH   6  16
ATOM     16  O   UNL     1       4.044   6.740  17.045  0.00  0.00    +0.000 OA
BRANCH  16  17
ATOM     17  C   UNL     1       3.154   7.367  17.894  0.00  0.00    +0.000 A 
ATOM     18  C   UNL     1       2.962   6.791  19.152  0.00  0.00    +0.000 A 
ATOM     19  C   UNL     1       2.099   7.389  20.075  0.00  0.00    +0.000 A 
ATOM     20  C   UNL     1       1.426   8.566  19.742  0.00  0.00    +0.000 A 
ATOM     21  C   UNL     1       1.622   9.153  18.496  0.00  0.00    +0.000 A 
ATOM     22  C   UNL     1       2.507   8.571  17.582  0.00  0.00    +0.000 A 
ENDBRANCH  16  17
ENDBRANCH   6  16
TORSDOF 5
ENDMDL
MODEL 5
REMARK VINA RESULT:      -7.1      1.957      5.134
REMARK  Name = 
REMARK  8 active torsions:
REMARK  status: ('A' for Active; 'I' for Inactive)
REMARK    1  A    between atoms: C_1  and  O_2
REMARK    2  A    between atoms: O_2  and  N_3
REMARK    3  A    between atoms: C_4  and  C_5
REMARK    4  A    between atoms: C_4  and  C_10
REMARK    5  A    between atoms: N_7  and  C_8
REMARK    6  A    between atoms: N_7  and  C_9
REMARK    7  A    between atoms: C_15  and  O_16
REMARK    8  A    between atoms: O_16  and  C_17
REMARK                            x       y       z     vdW  Elec       q    Type
REMARK                         _______ _______ _______ _____ _____    ______ ____
ROOT
ATOM      1  C   UNL     1       5.934   5.372  17.624  0.00  0.00    +0.000 A 
ATOM      2  C   UNL     1       7.271   5.318  18.071  0.00  0.00    +0.000 A 
ATOM      3  C   UNL     1       8.036   6.478  18.230  0.00  0.00    +0.000 A 
ATOM      4  C   UNL     1       7.508   7.712  17.877  0.00  0.00    +0.000 A 
ATOM      5  C   UNL     1       6.192   7.791  17.432  0.00  0.00    +0.000 A 
ATOM      6  C   UNL     1       5.368   6.650  17.389  0.00  0.00    +0.000 A 
ENDROOT
BRANCH   1   8
ATOM      7  N   UNL     1       5.187   3.293  16.387  0.00  0.00    +0.000 NA
ATOM      8  C   UNL     1       5.206   4.050  17.447  0.00  0.00    +0.000 C 
BRANCH   8   9
ATOM      9  C   UNL     1       4.404   3.520  18.662  0.00  0.00    +0.000 C 
ATOM     10  O   UNL     1       5.050   3.222  19.666  0.00  0.00    +0.000 OA
ATOM     11  N   UNL     1       3.015   3.304  18.562  0.00  0.00    +0.000 N 
ATOM     12  C   UNL     1       2.124   3.786  17.513  0.00  0.00    +0.000 C 
ATOM     13  C   UNL     1       2.340   2.633  19.663  0.00  0.00    +0.000 C 
ENDBRANCH   8   9
BRANCH   7  15
ATOM     14  C   UNL     1       5.433   4.274  14.328  0.00  0.00    +0.000 C 
ATOM     15  O   UNL     1       6.117   3.676  15.419  0.00  0.00    +0.000 OA
ENDBRANCH   7  15
ENDBRANCH   1   8
BRANCH   6  16
ATOM     16  O   UNL     1       4.015   6.760  17.110  0.00  0.00    +0.000 OA
BRANCH  16  17
ATOM     17  C   UNL     1       3.157   7.373  18.003  0.00  0.00    +0.000 A 
ATOM     18  C   UNL     1       2.515   8.536  17.571  0.00  0.00    +0.000 A 
ATOM     19  C   UNL     1       1.609   9.192  18.409  0.00  0.00    +0.000 A 
ATOM     20  C   UNL     1       1.343   8.686  19.683  0.00  0.00    +0.000 A 
ATOM     21  C   UNL     1       1.968   7.520  20.115  0.00  0.00    +0.000 A 
ATOM     22  C   UNL     1       2.854   6.847  19.266  0.00  0.00    +0.000 A 
ENDBRANCH  16  17
ENDBRANCH   6  16
TORSDOF 5
ENDMDL
MODEL 6
REMARK VINA RESULT:      -7.0      2.530      6.409
REMARK  Name = 
REMARK  8 active torsions:
REMARK  status: ('A' for Active; 'I' for Inactive)
REMARK    1  A    between atoms: C_1  and  O_2
REMARK    2  A    between atoms: O_2  and  N_3
REMARK    3  A    between atoms: C_4  and  C_5
REMARK    4  A    between atoms: C_4  and  C_10
REMARK    5  A    between atoms: N_7  and  C_8
REMARK    6  A    between atoms: N_7  and  C_9
REMARK    7  A    between atoms: C_15  and  O_16
REMARK    8  A    between atoms: O_16  and  C_17
REMARK                            x       y       z     vdW  Elec       q    Type
REMARK                         _______ _______ _______ _____ _____    ______ ____
ROOT
ATOM      1  C   UNL     1       2.964   3.418  19.163  0.00  0.00    +0.000 A 
ATOM      2  C   UNL     1       2.249   2.313  18.656  0.00  0.00    +0.000 A 
ATOM      3  C   UNL     1       0.868   2.188  18.839  0.00  0.00    +0.000 A 
ATOM      4  C   UNL     1       0.181   3.127  19.595  0.00  0.00    +0.000 A 
ATOM      5  C   UNL     1       0.864   4.226  20.109  0.00  0.00    +0.000 A 
ATOM      6  C   UNL     1       2.228   4.432  19.824  0.00  0.00    +0.000 A 
ENDROOT
BRANCH   1   8
ATOM      7  N   UNL     1       5.386   2.916  19.708  0.00  0.00    +0.000 NA
ATOM      8  C   UNL     1       4.468   3.434  18.943  0.00  0.00    +0.000 C 
BRANCH   8   9
ATOM      9  C   UNL     1       4.983   4.128  17.657  0.00  0.00    +0.000 C 
ATOM     10  O   UNL     1       4.485   3.763  16.592  0.00  0.00    +0.000 OA
ATOM     11  N   UNL     1       6.040   5.057  17.720  0.00  0.00    +0.000 N 
ATOM     12  C   UNL     1       6.573   5.701  18.916  0.00  0.00    +0.000 C 
ATOM     13  C   UNL     1       6.611   5.541  16.472  0.00  0.00    +0.000 C 
ENDBRANCH   8   9
BRANCH   7  15
ATOM     14  C   UNL     1       5.188   0.740  20.408  0.00  0.00    +0.000 C 
ATOM     15  O   UNL     1       4.868   2.091  20.707  0.00  0.00    +0.000 OA
ENDBRANCH   7  15
ENDBRANCH   1   8
BRANCH   6  16
ATOM     16  O   UNL     1       2.860   5.610  20.192  0.00  0.00    +0.000 OA
BRANCH  16  17
ATOM     17  C   UNL     1       2.467   6.820  19.654  0.00  0.00    +0.000 A 
ATOM     18  C   UNL     1       2.793   7.056  18.316  0.00  0.00    +0.000 A 
ATOM     19  C   UNL     1       2.400   8.246  17.696  0.00  0.00    +0.000 A 
ATOM     20  C   UNL     1       1.679   9.203  18.413  0.00  0.00    +0.000 A 
ATOM     21  C   UNL     1       1.340   8.969  19.742  0.00  0.00    +0.000 A 
ATOM     22  C   UNL     1       1.708   7.767  20.355  0.00  0.00    +0.000 A 
ENDBRANCH  16  17
ENDBRANCH   6  16
TORSDOF 5
ENDMDL
MODEL 7
REMARK VINA RESULT:      -6.9      2.117      6.303
REMARK  Name = 
REMARK  8 active torsions:
REMARK  status: ('A' for Active; 'I' for Inactive)
REMARK    1  A    between atoms: C_1  and  O_2
REMARK    2  A    between atoms: O_2  and  N_3
REMARK    3  A    between atoms: C_4  and  C_5
REMARK    4  A    between atoms: C_4  and  C_10
REMARK    5  A    between atoms: N_7  and  C_8
REMARK    6  A    between atoms: N_7  and  C_9
REMARK    7  A    between atoms: C_15  and  O_16
REMARK    8  A    between atoms: O_16  and  C_17
REMARK                            x       y       z     vdW  Elec       q    Type
REMARK                         _______ _______ _______ _____ _____    ______ ____
ROOT
ATOM      1  C   UNL     1       3.843   3.944  17.560  0.00  0.00    +0.000 A 
ATOM      2  C   UNL     1       3.461   2.587  17.581  0.00  0.00    +0.000 A 
ATOM      3  C   UNL     1       2.158   2.199  17.909  0.00  0.00    +0.000 A 
ATOM      4  C   UNL     1       1.227   3.153  18.296  0.00  0.00    +0.000 A 
ATOM      5  C   UNL     1       1.580   4.499  18.285  0.00  0.00    +0.000 A 
ATOM      6  C   UNL     1       2.848   4.915  17.834  0.00  0.00    +0.000 A 
ENDROOT
BRANCH   1   8
ATOM      7  N   UNL     1       5.856   4.255  16.054  0.00  0.00    +0.000 NA
ATOM      8  C   UNL     1       5.294   4.253  17.229  0.00  0.00    +0.000 C 
BRANCH   8   9
ATOM      9  C   UNL     1       6.221   4.626  18.414  0.00  0.00    +0.000 C 
ATOM     10  O   UNL     1       6.116   3.948  19.436  0.00  0.00    +0.000 OA
ATOM     11  N   UNL     1       7.062   5.754  18.335  0.00  0.00    +0.000 N 
ATOM     12  C   UNL     1       7.410   6.508  17.136  0.00  0.00    +0.000 C 
ATOM     13  C   UNL     1       7.773   6.170  19.535  0.00  0.00    +0.000 C 
ENDBRANCH   8   9
BRANCH   7  15
ATOM     14  C   UNL     1       5.644   4.117  13.774  0.00  0.00    +0.000 C 
ATOM     15  O   UNL     1       4.939   4.166  15.005  0.00  0.00    +0.000 OA
ENDBRANCH   7  15
ENDBRANCH   1   8
BRANCH   6  16
ATOM     16  O   UNL     1       3.135   6.260  17.663  0.00  0.00    +0.000 OA
BRANCH  16  17
ATOM     17  C   UNL     1       2.506   7.220  18.431  0.00  0.00    +0.000 A 
ATOM     18  C   UNL     1       2.020   8.348  17.766  0.00  0.00    +0.000 A 
ATOM     19  C   UNL     1       1.345   9.346  18.475  0.00  0.00    +0.000 A 
ATOM     20  C   UNL     1       1.154   9.218  19.852  0.00  0.00    +0.000 A 
ATOM     21  C   UNL     1       1.624   8.091  20.519  0.00  0.00    +0.000 A 
ATOM     22  C   UNL     1       2.275   7.078  19.806  0.00  0.00    +0.000 A 
ENDBRANCH  16  17
ENDBRANCH   6  16
TORSDOF 5
ENDMDL
MODEL 8
REMARK VINA RESULT:      -6.9      1.032      2.729
REMARK  Name = 
REMARK  8 active torsions:
REMARK  status: ('A' for Active; 'I' for Inactive)
REMARK    1  A    between atoms: C_1  and  O_2
REMARK    2  A    between atoms: O_2  and  N_3
REMARK    3  A    between atoms: C_4  and  C_5
REMARK    4  A    between atoms: C_4  and  C_10
REMARK    5  A    between atoms: N_7  and  C_8
REMARK    6  A    between atoms: N_7  and  C_9
REMARK    7  A    between atoms: C_15  and  O_16
REMARK    8  A    between atoms: O_16  and  C_17
REMARK                            x       y       z     vdW  Elec       q    Type
REMARK                         _______ _______ _______ _____ _____    ______ ____
ROOT
ATOM      1  C   UNL     1       4.958   4.976  17.905  0.00  0.00    +0.000 A 
ATOM      2  C   UNL     1       5.675   5.252  19.088  0.00  0.00    +0.000 A 
ATOM      3  C   UNL     1       7.072   5.194  19.126  0.00  0.00    +0.000 A 
ATOM      4  C   UNL     1       7.781   4.787  18.005  0.00  0.00    +0.000 A 
ATOM      5  C   UNL     1       7.096   4.507  16.826  0.00  0.00    +0.000 A 
ATOM      6  C   UNL     1       5.702   4.685  16.735  0.00  0.00    +0.000 A 
ENDROOT
BRANCH   1   8
ATOM      7  N   UNL     1       2.601   4.071  17.705  0.00  0.00    +0.000 NA
ATOM      8  C   UNL     1       3.441   5.027  17.984  0.00  0.00    +0.000 C 
BRANCH   8   9
ATOM      9  C   UNL     1       2.806   6.357  18.464  0.00  0.00    +0.000 C 
ATOM     10  O   UNL     1       2.895   7.320  17.704  0.00  0.00    +0.000 OA
ATOM     11  N   UNL     1       2.250   6.458  19.754  0.00  0.00    +0.000 N 
ATOM     12  C   UNL     1       1.921   5.360  20.657  0.00  0.00    +0.000 C 
ATOM     13  C   UNL     1       1.835   7.770  20.227  0.00  0.00    +0.000 C 
ENDBRANCH   8   9
BRANCH   7  15
ATOM     14  C   UNL     1       2.812   1.957  18.569  0.00  0.00    +0.000 C 
ATOM     15  O   UNL     1       3.216   2.832  17.526  0.00  0.00    +0.000 OA
ENDBRANCH   7  15
ENDBRANCH   1   8
BRANCH   6  16
ATOM     16  O   UNL     1       5.050   4.571  15.517  0.00  0.00    +0.000 OA
BRANCH  16  17
ATOM     17  C   UNL     1       5.763   4.430  14.343  0.00  0.00    +0.000 A 
ATOM     18  C   UNL     1       6.911   5.213  14.200  0.00  0.00    +0.000 A 
ATOM     19  C   UNL     1       7.701   5.099  13.052  0.00  0.00    +0.000 A 
ATOM     20  C   UNL     1       7.344   4.201  12.043  0.00  0.00    +0.000 A 
ATOM     21  C   UNL     1       6.210   3.409  12.186  0.00  0.00    +0.000 A 
ATOM     22  C   UNL     1       5.435   3.501  13.347  0.00  0.00    +0.000 A 
ENDBRANCH  16  17
ENDBRANCH   6  16
TORSDOF 5
ENDMDL
MODEL 9
REMARK VINA RESULT:      -6.9      2.125      6.315
REMARK  Name = 
REMARK  8 active torsions:
REMARK  status: ('A' for Active; 'I' for Inactive)
REMARK    1  A    between atoms: C_1  and  O_2
REMARK    2  A    between atoms: O_2  and  N_3
REMARK    3  A    between atoms: C_4  and  C_5
REMARK    4  A    between atoms: C_4  and  C_10
REMARK    5  A    between atoms: N_7  and  C_8
REMARK    6  A    between atoms: N_7  and  C_9
REMARK    7  A    between atoms: C_15  and  O_16
REMARK    8  A    between atoms: O_16  and  C_17
REMARK                            x       y       z     vdW  Elec       q    Type
REMARK                         _______ _______ _______ _____ _____    ______ ____
ROOT
ATOM      1  C   UNL     1       4.079   4.229  17.336  0.00  0.00    +0.000 A 
ATOM      2  C   UNL     1       3.679   2.880  17.247  0.00  0.00    +0.000 A 
ATOM      3  C   UNL     1       2.381   2.478  17.577  0.00  0.00    +0.000 A 
ATOM      4  C   UNL     1       1.473   3.403  18.073  0.00  0.00    +0.000 A 
ATOM      5  C   UNL     1       1.844   4.740  18.173  0.00  0.00    +0.000 A 
ATOM      6  C   UNL     1       3.104   5.182  17.723  0.00  0.00    +0.000 A 
ENDROOT
BRANCH   1   8
ATOM      7  N   UNL     1       6.058   4.629  15.807  0.00  0.00    +0.000 NA
ATOM      8  C   UNL     1       5.524   4.551  16.993  0.00  0.00    +0.000 C 
BRANCH   8   9
ATOM      9  C   UNL     1       6.481   4.839  18.178  0.00  0.00    +0.000 C 
ATOM     10  O   UNL     1       6.485   4.021  19.098  0.00  0.00    +0.000 OA
ATOM     11  N   UNL     1       7.224   6.035  18.222  0.00  0.00    +0.000 N 
ATOM     12  C   UNL     1       7.445   6.973  17.127  0.00  0.00    +0.000 C 
ATOM     13  C   UNL     1       7.962   6.344  19.437  0.00  0.00    +0.000 C 
ENDBRANCH   8   9
BRANCH   7  15
ATOM     14  C   UNL     1       5.682   3.981  13.639  0.00  0.00    +0.000 C 
ATOM     15  O   UNL     1       5.117   4.616  14.777  0.00  0.00    +0.000 OA
ENDBRANCH   7  15
ENDBRANCH   1   8
BRANCH   6  16
ATOM     16  O   UNL     1       3.403   6.534  17.665  0.00  0.00    +0.000 OA
BRANCH  16  17
ATOM     17  C   UNL     1       2.606   7.463  18.303  0.00  0.00    +0.000 A 
ATOM     18  C   UNL     1       2.389   7.280  19.671  0.00  0.00    +0.000 A 
ATOM     19  C   UNL     1       1.618   8.199  20.390  0.00  0.00    +0.000 A 
ATOM     20  C   UNL     1       1.062   9.304  19.741  0.00  0.00    +0.000 A 
ATOM     21  C   UNL     1       1.285   9.499  18.382  0.00  0.00    +0.000 A 
ATOM     22  C   UNL     1       2.079   8.596  17.667  0.00  0.00    +0.000 A 
ENDBRANCH  16  17
ENDBRANCH   6  16
TORSDOF 5
ENDMDL
