MODEL 1
REMARK VINA RESULT:      -7.7      0.000      0.000
REMARK  Name = 
REMARK  7 active torsions:
REMARK  status: ('A' for Active; 'I' for Inactive)
REMARK    1  A    between atoms: C_1  and  S_2
REMARK    2  A    between atoms: S_2  and  C_3
REMARK    3  A    between atoms: C_8  and  C_9
REMARK    4  A    between atoms: C_9  and  C_11
REMARK    5  A    between atoms: N_15  and  C_16
REMARK    6  A    between atoms: C_16  and  C_17
REMARK    7  A    between atoms: N_20  and  C_21
REMARK                            x       y       z     vdW  Elec       q    Type
REMARK                         _______ _______ _______ _____ _____    ______ ____
ROOT
ATOM      1  C   UNL     1       3.544   4.464  19.764  0.00  0.00    +0.000 C 
ATOM      2  C   UNL     1       2.148   3.848  19.710  0.00  0.00    +0.000 C 
ATOM      3  C   UNL     1       1.243   4.261  18.552  0.00  0.00    +0.000 C 
ATOM      4  C   UNL     1       1.566   5.541  17.781  0.00  0.00    +0.000 C 
ATOM      5  N   UNL     1       2.871   6.149  17.971  0.00  0.00    +0.000 NA
ATOM      6  C   UNL     1       3.586   5.893  19.211  0.00  0.00    +0.000 C 
ENDROOT
BRANCH   1   7
ATOM      7  C   UNL     1       4.736   3.603  19.299  0.00  0.00    +0.000 C 
ATOM      8  O   UNL     1       5.097   2.588  19.901  0.00  0.00    +0.000 OA
BRANCH   7  14
ATOM      9  C   UNL     1       6.642   4.628  17.909  0.00  0.00    +0.000 A 
ATOM     10  C   UNL     1       7.301   4.670  16.668  0.00  0.00    +0.000 A 
ATOM     11  C   UNL     1       6.702   4.149  15.519  0.00  0.00    +0.000 A 
ATOM     12  C   UNL     1       5.430   3.593  15.599  0.00  0.00    +0.000 A 
ATOM     13  C   UNL     1       4.820   3.444  16.845  0.00  0.00    +0.000 A 
ATOM     14  C   UNL     1       5.450   3.893  18.021  0.00  0.00    +0.000 A 
BRANCH   9  16
ATOM     15  C   UNL     1       7.839   7.134  18.134  0.00  0.00    +0.000 C 
ATOM     16  S   UNL     1       7.321   5.718  19.168  0.00  0.00    +0.000 S 
ENDBRANCH   9  16
ENDBRANCH   7  14
ENDBRANCH   1   7
BRANCH   5  17
ATOM     17  C   UNL     1       2.954   7.554  17.521  0.00  0.00    +0.000 C 
BRANCH  17  18
ATOM     18  C   UNL     1       1.989   8.480  18.199  0.00  0.00    +0.000 A 
ATOM     19  C   UNL     1       1.031   9.326  17.592  0.00  0.00    +0.000 A 
ATOM     20  N   UNL     1       0.286   9.997  18.472  0.00  0.00    +0.000 NA
ATOM     21  N   UNL     1       0.742   9.596  19.686  0.00  0.00    +0.000 N 
ATOM     22  C   UNL     1       1.832   8.761  19.543  0.00  0.00    +0.000 A 
BRANCH  21  23
ATOM     23  C   UNL     1       0.124  10.009  20.897  0.00  0.00    +0.000 A 
ATOM     24  C   UNL     1      -0.698  11.150  20.907  0.00  0.00    +0.000 A 
ATOM     25  C   UNL     1      -1.364  11.531  22.075  0.00  0.00    +0.000 A 
ATOM     26  C   UNL     1      -1.199  10.794  23.240  0.00  0.00    +0.000 A 
ATOM     27  C   UNL     1      -0.374   9.666  23.250  0.00  0.00    +0.000 A 
ATOM     28  C   UNL     1       0.284   9.273  22.083  0.00  0.00    +0.000 A 
ENDBRANCH  21  23
ENDBRANCH  17  18
ENDBRANCH   5  17
TORSDOF 6
ENDMDL
MODEL 2
REMARK VINA RESULT:      -7.5      1.724      2.532
REMARK  Name = 
REMARK  7 active torsions:
REMARK  status: ('A' for Active; 'I' for Inactive)
REMARK    1  A    between atoms: C_1  and  S_2
REMARK    2  A    between atoms: S_2  and  C_3
REMARK    3  A    between atoms: C_8  and  C_9
REMARK    4  A    between atoms: C_9  and  C_11
REMARK    5  A    between atoms: N_15  and  C_16
REMARK    6  A    between atoms: C_16  and  C_17
REMARK    7  A    between atoms: N_20  and  C_21
REMARK                            x       y       z     vdW  Elec       q    Type
REMARK                         _______ _______ _______ _____ _____    ______ ____
ROOT
ATOM      1  C   UNL     1       3.482   4.462  19.618  0.00  0.00    +0.000 C 
ATOM      2  C   UNL     1       2.153   3.820  19.227  0.00  0.00    +0.000 C 
ATOM      3  C   UNL     1       1.402   4.423  18.042  0.00  0.00    +0.000 C 
ATOM      4  C   UNL     1       1.749   5.843  17.593  0.00  0.00    +0.000 C 
ATOM      5  N   UNL     1       2.969   6.446  18.099  0.00  0.00    +0.000 NA
ATOM      6  C   UNL     1       3.510   5.974  19.363  0.00  0.00    +0.000 C 
ENDROOT
BRANCH   1   7
ATOM      7  C   UNL     1       4.784   3.756  19.188  0.00  0.00    +0.000 C 
ATOM      8  O   UNL     1       5.269   2.814  19.821  0.00  0.00    +0.000 OA
BRANCH   7  14
ATOM      9  C   UNL     1       6.701   4.776  17.810  0.00  0.00    +0.000 A 
ATOM     10  C   UNL     1       7.318   4.879  16.551  0.00  0.00    +0.000 A 
ATOM     11  C   UNL     1       6.651   4.487  15.389  0.00  0.00    +0.000 A 
ATOM     12  C   UNL     1       5.350   4.002  15.474  0.00  0.00    +0.000 A 
ATOM     13  C   UNL     1       4.775   3.789  16.728  0.00  0.00    +0.000 A 
ATOM     14  C   UNL     1       5.471   4.105  17.910  0.00  0.00    +0.000 A 
BRANCH   9  16
ATOM     15  C   UNL     1       7.934   7.241  18.212  0.00  0.00    +0.000 C 
ATOM     16  S   UNL     1       7.487   5.720  19.123  0.00  0.00    +0.000 S 
ENDBRANCH   9  16
ENDBRANCH   7  14
ENDBRANCH   1   7
BRANCH   5  17
ATOM     17  C   UNL     1       3.023   7.916  17.946  0.00  0.00    +0.000 C 
BRANCH  17  18
ATOM     18  C   UNL     1       1.775   8.629  18.372  0.00  0.00    +0.000 A 
ATOM     19  C   UNL     1       1.491   9.192  19.639  0.00  0.00    +0.000 A 
ATOM     20  N   UNL     1       0.306   9.803  19.692  0.00  0.00    +0.000 NA
ATOM     21  N   UNL     1      -0.213   9.657  18.446  0.00  0.00    +0.000 N 
ATOM     22  C   UNL     1       0.610   8.868  17.667  0.00  0.00    +0.000 A 
BRANCH  21  23
ATOM     23  C   UNL     1      -1.435  10.271  18.062  0.00  0.00    +0.000 A 
ATOM     24  C   UNL     1      -2.026  11.233  18.901  0.00  0.00    +0.000 A 
ATOM     25  C   UNL     1      -3.194  11.893  18.506  0.00  0.00    +0.000 A 
ATOM     26  C   UNL     1      -3.787  11.585  17.289  0.00  0.00    +0.000 A 
ATOM     27  C   UNL     1      -3.219  10.622  16.452  0.00  0.00    +0.000 A 
ATOM     28  C   UNL     1      -2.047   9.968  16.834  0.00  0.00    +0.000 A 
ENDBRANCH  21  23
ENDBRANCH  17  18
ENDBRANCH   5  17
TORSDOF 6
ENDMDL
MODEL 3
REMARK VINA RESULT:      -7.5      2.079      3.101
REMARK  Name = 
REMARK  7 active torsions:
REMARK  status: ('A' for Active; 'I' for Inactive)
REMARK    1  A    between atoms: C_1  and  S_2
REMARK    2  A    between atoms: S_2  and  C_3
REMARK    3  A    between atoms: C_8  and  C_9
REMARK    4  A    between atoms: C_9  and  C_11
REMARK    5  A    between atoms: N_15  and  C_16
REMARK    6  A    between atoms: C_16  and  C_17
REMARK    7  A    between atoms: N_20  and  C_21
REMARK                            x       y       z     vdW  Elec       q    Type
REMARK                         _______ _______ _______ _____ _____    ______ ____
ROOT
ATOM      1  C   UNL     1       4.136   3.476  19.265  0.00  0.00    +0.000 C 
ATOM      2  C   UNL     1       3.106   2.352  19.188  0.00  0.00    +0.000 C 
ATOM      3  C   UNL     1       1.635   2.752  19.104  0.00  0.00    +0.000 C 
ATOM      4  C   UNL     1       1.227   4.163  19.529  0.00  0.00    +0.000 C 
ATOM      5  N   UNL     1       2.269   5.158  19.704  0.00  0.00    +0.000 NA
ATOM      6  C   UNL     1       3.617   4.710  20.013  0.00  0.00    +0.000 C 
ENDROOT
BRANCH   1   7
ATOM      7  C   UNL     1       4.915   3.834  17.983  0.00  0.00    +0.000 C 
ATOM      8  O   UNL     1       4.663   3.325  16.888  0.00  0.00    +0.000 OA
BRANCH   7  14
ATOM      9  C   UNL     1       6.123   5.863  16.962  0.00  0.00    +0.000 A 
ATOM     10  C   UNL     1       7.019   6.926  17.173  0.00  0.00    +0.000 A 
ATOM     11  C   UNL     1       7.860   6.948  18.288  0.00  0.00    +0.000 A 
ATOM     12  C   UNL     1       7.822   5.895  19.196  0.00  0.00    +0.000 A 
ATOM     13  C   UNL     1       6.857   4.897  19.056  0.00  0.00    +0.000 A 
ATOM     14  C   UNL     1       5.951   4.909  17.979  0.00  0.00    +0.000 A 
BRANCH   9  16
ATOM     15  C   UNL     1       6.799   4.828  14.466  0.00  0.00    +0.000 C 
ATOM     16  S   UNL     1       5.456   5.749  15.297  0.00  0.00    +0.000 S 
ENDBRANCH   9  16
ENDBRANCH   7  14
ENDBRANCH   1   7
BRANCH   5  17
ATOM     17  C   UNL     1       1.848   6.342  20.482  0.00  0.00    +0.000 C 
BRANCH  17  18
ATOM     18  C   UNL     1       1.830   7.622  19.700  0.00  0.00    +0.000 A 
ATOM     19  C   UNL     1       2.409   7.868  18.433  0.00  0.00    +0.000 A 
ATOM     20  N   UNL     1       2.181   9.102  17.978  0.00  0.00    +0.000 NA
ATOM     21  N   UNL     1       1.435   9.693  18.947  0.00  0.00    +0.000 N 
ATOM     22  C   UNL     1       1.299   8.853  20.035  0.00  0.00    +0.000 A 
BRANCH  21  23
ATOM     23  C   UNL     1       0.891  10.995  18.789  0.00  0.00    +0.000 A 
ATOM     24  C   UNL     1      -0.501  11.184  18.856  0.00  0.00    +0.000 A 
ATOM     25  C   UNL     1      -1.046  12.468  18.767  0.00  0.00    +0.000 A 
ATOM     26  C   UNL     1      -0.213  13.564  18.591  0.00  0.00    +0.000 A 
ATOM     27  C   UNL     1       1.172  13.392  18.507  0.00  0.00    +0.000 A 
ATOM     28  C   UNL     1       1.723  12.113  18.608  0.00  0.00    +0.000 A 
ENDBRANCH  21  23
ENDBRANCH  17  18
ENDBRANCH   5  17
TORSDOF 6
ENDMDL
MODEL 4
REMARK VINA RESULT:      -7.4      2.843      8.457
REMARK  Name = 
REMARK  7 active torsions:
REMARK  status: ('A' for Active; 'I' for Inactive)
REMARK    1  A    between atoms: C_1  and  S_2
REMARK    2  A    between atoms: S_2  and  C_3
REMARK    3  A    between atoms: C_8  and  C_9
REMARK    4  A    between atoms: C_9  and  C_11
REMARK    5  A    between atoms: N_15  and  C_16
REMARK    6  A    between atoms: C_16  and  C_17
REMARK    7  A    between atoms: N_20  and  C_21
REMARK                            x       y       z     vdW  Elec       q    Type
REMARK                         _______ _______ _______ _____ _____    ______ ____
ROOT
ATOM      1  C   UNL     1       2.279   6.129  18.957  0.00  0.00    +0.000 C 
ATOM      2  C   UNL     1       1.607   4.758  18.940  0.00  0.00    +0.000 C 
ATOM      3  C   UNL     1       2.390   3.584  19.523  0.00  0.00    +0.000 C 
ATOM      4  C   UNL     1       3.905   3.713  19.682  0.00  0.00    +0.000 C 
ATOM      5  N   UNL     1       4.501   5.032  19.564  0.00  0.00    +0.000 NA
ATOM      6  C   UNL     1       3.802   6.047  18.794  0.00  0.00    +0.000 C 
ENDROOT
BRANCH   1   7
ATOM      7  C   UNL     1       1.844   7.137  20.040  0.00  0.00    +0.000 C 
ATOM      8  O   UNL     1       1.798   6.847  21.238  0.00  0.00    +0.000 OA
BRANCH   7  14
ATOM      9  C   UNL     1       1.020   9.512  20.588  0.00  0.00    +0.000 A 
ATOM     10  C   UNL     1       0.973  10.860  20.192  0.00  0.00    +0.000 A 
ATOM     11  C   UNL     1       1.283  11.237  18.884  0.00  0.00    +0.000 A 
ATOM     12  C   UNL     1       1.630  10.263  17.953  0.00  0.00    +0.000 A 
ATOM     13  C   UNL     1       1.791   8.940  18.366  0.00  0.00    +0.000 A 
ATOM     14  C   UNL     1       1.559   8.563  19.702  0.00  0.00    +0.000 A 
BRANCH   9  16
ATOM     15  C   UNL     1      -0.857  10.639  22.309  0.00  0.00    +0.000 C 
ATOM     16  S   UNL     1       0.175   9.141  22.130  0.00  0.00    +0.000 S 
ENDBRANCH   9  16
ENDBRANCH   7  14
ENDBRANCH   1   7
BRANCH   5  17
ATOM     17  C   UNL     1       5.961   5.017  19.334  0.00  0.00    +0.000 C 
BRANCH  17  18
ATOM     18  C   UNL     1       6.367   5.311  17.920  0.00  0.00    +0.000 A 
ATOM     19  C   UNL     1       7.160   6.387  17.456  0.00  0.00    +0.000 A 
ATOM     20  N   UNL     1       7.385   6.348  16.141  0.00  0.00    +0.000 NA
ATOM     21  N   UNL     1       6.742   5.230  15.714  0.00  0.00    +0.000 N 
ATOM     22  C   UNL     1       6.041   4.648  16.752  0.00  0.00    +0.000 A 
BRANCH  21  23
ATOM     23  C   UNL     1       6.833   4.775  14.372  0.00  0.00    +0.000 A 
ATOM     24  C   UNL     1       5.962   3.770  13.915  0.00  0.00    +0.000 A 
ATOM     25  C   UNL     1       5.996   3.358  12.580  0.00  0.00    +0.000 A 
ATOM     26  C   UNL     1       6.909   3.926  11.702  0.00  0.00    +0.000 A 
ATOM     27  C   UNL     1       7.792   4.915  12.144  0.00  0.00    +0.000 A 
ATOM     28  C   UNL     1       7.754   5.340  13.474  0.00  0.00    +0.000 A 
ENDBRANCH  21  23
ENDBRANCH  17  18
ENDBRANCH   5  17
TORSDOF 6
ENDMDL
MODEL 5
REMARK VINA RESULT:      -7.4      1.365      2.452
REMARK  Name = 
REMARK  7 active torsions:
REMARK  status: ('A' for Active; 'I' for Inactive)
REMARK    1  A    between atoms: C_1  and  S_2
REMARK    2  A    between atoms: S_2  and  C_3
REMARK    3  A    between atoms: C_8  and  C_9
REMARK    4  A    between atoms: C_9  and  C_11
REMARK    5  A    between atoms: N_15  and  C_16
REMARK    6  A    between atoms: C_16  and  C_17
REMARK    7  A    between atoms: N_20  and  C_21
REMARK                            x       y       z     vdW  Elec       q    Type
REMARK                         _______ _______ _______ _____ _____    ______ ____
ROOT
ATOM      1  C   UNL     1       3.523   4.431  19.761  0.00  0.00    +0.000 C 
ATOM      2  C   UNL     1       2.343   3.620  19.231  0.00  0.00    +0.000 C 
ATOM      3  C   UNL     1       1.567   4.199  18.050  0.00  0.00    +0.000 C 
ATOM      4  C   UNL     1       1.697   5.690  17.741  0.00  0.00    +0.000 C 
ATOM      5  N   UNL     1       2.770   6.435  18.374  0.00  0.00    +0.000 NA
ATOM      6  C   UNL     1       3.313   5.944  19.630  0.00  0.00    +0.000 C 
ENDROOT
BRANCH   1   7
ATOM      7  C   UNL     1       4.945   3.985  19.365  0.00  0.00    +0.000 C 
ATOM      8  O   UNL     1       5.353   2.833  19.540  0.00  0.00    +0.000 OA
BRANCH   7  14
ATOM      9  C   UNL     1       5.813   5.197  17.270  0.00  0.00    +0.000 A 
ATOM     10  C   UNL     1       6.635   6.216  16.757  0.00  0.00    +0.000 A 
ATOM     11  C   UNL     1       7.624   6.807  17.546  0.00  0.00    +0.000 A 
ATOM     12  C   UNL     1       7.810   6.372  18.853  0.00  0.00    +0.000 A 
ATOM     13  C   UNL     1       6.925   5.445  19.405  0.00  0.00    +0.000 A 
ATOM     14  C   UNL     1       5.873   4.902  18.642  0.00  0.00    +0.000 A 
BRANCH   9  16
ATOM     15  C   UNL     1       6.247   3.980  14.802  0.00  0.00    +0.000 C 
ATOM     16  S   UNL     1       4.922   4.243  16.033  0.00  0.00    +0.000 S 
ENDBRANCH   9  16
ENDBRANCH   7  14
ENDBRANCH   1   7
BRANCH   5  17
ATOM     17  C   UNL     1       2.587   7.902  18.343  0.00  0.00    +0.000 C 
BRANCH  17  18
ATOM     18  C   UNL     1       1.691   8.437  19.420  0.00  0.00    +0.000 A 
ATOM     19  C   UNL     1       1.520   7.934  20.731  0.00  0.00    +0.000 A 
ATOM     20  N   UNL     1       0.681   8.662  21.471  0.00  0.00    +0.000 NA
ATOM     21  N   UNL     1       0.285   9.670  20.652  0.00  0.00    +0.000 N 
ATOM     22  C   UNL     1       0.803   9.496  19.383  0.00  0.00    +0.000 A 
BRANCH  21  23
ATOM     23  C   UNL     1      -0.539  10.732  21.109  0.00  0.00    +0.000 A 
ATOM     24  C   UNL     1      -0.699  10.947  22.490  0.00  0.00    +0.000 A 
ATOM     25  C   UNL     1      -1.454  12.028  22.955  0.00  0.00    +0.000 A 
ATOM     26  C   UNL     1      -2.068  12.884  22.051  0.00  0.00    +0.000 A 
ATOM     27  C   UNL     1      -1.931  12.675  20.676  0.00  0.00    +0.000 A 
ATOM     28  C   UNL     1      -1.168  11.605  20.206  0.00  0.00    +0.000 A 
ENDBRANCH  21  23
ENDBRANCH  17  18
ENDBRANCH   5  17
TORSDOF 6
ENDMDL
MODEL 6
REMARK VINA RESULT:      -7.4      3.460      7.019
REMARK  Name = 
REMARK  7 active torsions:
REMARK  status: ('A' for Active; 'I' for Inactive)
REMARK    1  A    between atoms: C_1  and  S_2
REMARK    2  A    between atoms: S_2  and  C_3
REMARK    3  A    between atoms: C_8  and  C_9
REMARK    4  A    between atoms: C_9  and  C_11
REMARK    5  A    between atoms: N_15  and  C_16
REMARK    6  A    between atoms: C_16  and  C_17
REMARK    7  A    between atoms: N_20  and  C_21
REMARK                            x       y       z     vdW  Elec       q    Type
REMARK                         _______ _______ _______ _____ _____    ______ ____
ROOT
ATOM      1  C   UNL     1       4.379   4.712  16.903  0.00  0.00    +0.000 C 
ATOM      2  C   UNL     1       4.970   4.416  15.526  0.00  0.00    +0.000 C 
ATOM      3  C   UNL     1       6.453   4.060  15.460  0.00  0.00    +0.000 C 
ATOM      4  C   UNL     1       7.354   4.430  16.639  0.00  0.00    +0.000 C 
ATOM      5  N   UNL     1       6.728   4.822  17.888  0.00  0.00    +0.000 NA
ATOM      6  C   UNL     1       5.384   5.373  17.853  0.00  0.00    +0.000 C 
ENDROOT
BRANCH   1   7
ATOM      7  C   UNL     1       3.541   3.610  17.584  0.00  0.00    +0.000 C 
ATOM      8  O   UNL     1       3.323   2.518  17.054  0.00  0.00    +0.000 OA
BRANCH   7  14
ATOM      9  C   UNL     1       2.309   4.869  19.459  0.00  0.00    +0.000 A 
ATOM     10  C   UNL     1       1.746   4.805  20.745  0.00  0.00    +0.000 A 
ATOM     11  C   UNL     1       2.050   3.752  21.611  0.00  0.00    +0.000 A 
ATOM     12  C   UNL     1       2.934   2.759  21.201  0.00  0.00    +0.000 A 
ATOM     13  C   UNL     1       3.405   2.755  19.887  0.00  0.00    +0.000 A 
ATOM     14  C   UNL     1       3.041   3.769  18.981  0.00  0.00    +0.000 A 
BRANCH   9  16
ATOM     15  C   UNL     1       1.963   7.555  20.111  0.00  0.00    +0.000 C 
ATOM     16  S   UNL     1       2.189   6.473  18.655  0.00  0.00    +0.000 S 
ENDBRANCH   9  16
ENDBRANCH   7  14
ENDBRANCH   1   7
BRANCH   5  17
ATOM     17  C   UNL     1       7.632   5.530  18.820  0.00  0.00    +0.000 C 
BRANCH  17  18
ATOM     18  C   UNL     1       7.892   6.963  18.462  0.00  0.00    +0.000 A 
ATOM     19  C   UNL     1       7.369   7.687  17.364  0.00  0.00    +0.000 A 
ATOM     20  N   UNL     1       7.754   8.965  17.343  0.00  0.00    +0.000 NA
ATOM     21  N   UNL     1       8.539   9.106  18.441  0.00  0.00    +0.000 N 
ATOM     22  C   UNL     1       8.716   7.890  19.071  0.00  0.00    +0.000 A 
BRANCH  21  23
ATOM     23  C   UNL     1       9.063  10.366  18.836  0.00  0.00    +0.000 A 
ATOM     24  C   UNL     1       9.533  10.547  20.149  0.00  0.00    +0.000 A 
ATOM     25  C   UNL     1      10.110  11.761  20.533  0.00  0.00    +0.000 A 
ATOM     26  C   UNL     1      10.204  12.803  19.621  0.00  0.00    +0.000 A 
ATOM     27  C   UNL     1       9.729  12.644  18.316  0.00  0.00    +0.000 A 
ATOM     28  C   UNL     1       9.162  11.430  17.923  0.00  0.00    +0.000 A 
ENDBRANCH  21  23
ENDBRANCH  17  18
ENDBRANCH   5  17
TORSDOF 6
ENDMDL
MODEL 7
REMARK VINA RESULT:      -7.3      1.759      2.385
REMARK  Name = 
REMARK  7 active torsions:
REMARK  status: ('A' for Active; 'I' for Inactive)
REMARK    1  A    between atoms: C_1  and  S_2
REMARK    2  A    between atoms: S_2  and  C_3
REMARK    3  A    between atoms: C_8  and  C_9
REMARK    4  A    between atoms: C_9  and  C_11
REMARK    5  A    between atoms: N_15  and  C_16
REMARK    6  A    between atoms: C_16  and  C_17
REMARK    7  A    between atoms: N_20  and  C_21
REMARK                            x       y       z     vdW  Elec       q    Type
REMARK                         _______ _______ _______ _____ _____    ______ ____
ROOT
ATOM      1  C   UNL     1       4.034   4.472  18.380  0.00  0.00    +0.000 C 
ATOM      2  C   UNL     1       3.331   3.156  18.059  0.00  0.00    +0.000 C 
ATOM      3  C   UNL     1       1.848   3.049  18.405  0.00  0.00    +0.000 C 
ATOM      4  C   UNL     1       1.251   4.032  19.413  0.00  0.00    +0.000 C 
ATOM      5  N   UNL     1       2.025   5.206  19.771  0.00  0.00    +0.000 NA
ATOM      6  C   UNL     1       3.471   5.158  19.631  0.00  0.00    +0.000 C 
ENDROOT
BRANCH   1   7
ATOM      7  C   UNL     1       4.297   5.456  17.222  0.00  0.00    +0.000 C 
ATOM      8  O   UNL     1       3.740   6.554  17.144  0.00  0.00    +0.000 OA
BRANCH   7  14
ATOM      9  C   UNL     1       6.683   5.551  16.265  0.00  0.00    +0.000 A 
ATOM     10  C   UNL     1       7.584   5.064  15.302  0.00  0.00    +0.000 A 
ATOM     11  C   UNL     1       7.129   4.366  14.181  0.00  0.00    +0.000 A 
ATOM     12  C   UNL     1       5.764   4.164  14.005  0.00  0.00    +0.000 A 
ATOM     13  C   UNL     1       4.875   4.542  15.012  0.00  0.00    +0.000 A 
ATOM     14  C   UNL     1       5.332   5.174  16.184  0.00  0.00    +0.000 A 
BRANCH   9  16
ATOM     15  C   UNL     1       7.672   5.764  18.861  0.00  0.00    +0.000 C 
ATOM     16  S   UNL     1       7.357   6.790  17.381  0.00  0.00    +0.000 S 
ENDBRANCH   9  16
ENDBRANCH   7  14
ENDBRANCH   1   7
BRANCH   5  17
ATOM     17  C   UNL     1       1.574   5.872  21.011  0.00  0.00    +0.000 C 
BRANCH  17  18
ATOM     18  C   UNL     1       1.237   7.324  20.847  0.00  0.00    +0.000 A 
ATOM     19  C   UNL     1       1.708   8.213  19.852  0.00  0.00    +0.000 A 
ATOM     20  N   UNL     1       1.186   9.437  19.948  0.00  0.00    +0.000 NA
ATOM     21  N   UNL     1       0.350   9.373  21.015  0.00  0.00    +0.000 N 
ATOM     22  C   UNL     1       0.442   8.140  21.630  0.00  0.00    +0.000 A 
BRANCH  21  23
ATOM     23  C   UNL     1      -0.487  10.460  21.383  0.00  0.00    +0.000 A 
ATOM     24  C   UNL     1      -0.771  10.695  22.740  0.00  0.00    +0.000 A 
ATOM     25  C   UNL     1      -1.539  11.798  23.122  0.00  0.00    +0.000 A 
ATOM     26  C   UNL     1      -2.044  12.659  22.156  0.00  0.00    +0.000 A 
ATOM     27  C   UNL     1      -1.784  12.430  20.802  0.00  0.00    +0.000 A 
ATOM     28  C   UNL     1      -1.007  11.337  20.416  0.00  0.00    +0.000 A 
ENDBRANCH  21  23
ENDBRANCH  17  18
ENDBRANCH   5  17
TORSDOF 6
ENDMDL
MODEL 8
REMARK VINA RESULT:      -7.3      4.051      9.412
REMARK  Name = 
REMARK  7 active torsions:
REMARK  status: ('A' for Active; 'I' for Inactive)
REMARK    1  A    between atoms: C_1  and  S_2
REMARK    2  A    between atoms: S_2  and  C_3
REMARK    3  A    between atoms: C_8  and  C_9
REMARK    4  A    between atoms: C_9  and  C_11
REMARK    5  A    between atoms: N_15  and  C_16
REMARK    6  A    between atoms: C_16  and  C_17
REMARK    7  A    between atoms: N_20  and  C_21
REMARK                            x       y       z     vdW  Elec       q    Type
REMARK                         _______ _______ _______ _____ _____    ______ ____
ROOT
ATOM      1  C   UNL     1       0.478  12.739  19.357  0.00  0.00    +0.000 C 
ATOM      2  C   UNL     1      -0.934  12.601  18.792  0.00  0.00    +0.000 C 
ATOM      3  C   UNL     1      -1.389  11.205  18.373  0.00  0.00    +0.000 C 
ATOM      4  C   UNL     1      -0.333  10.129  18.119  0.00  0.00    +0.000 C 
ATOM      5  N   UNL     1       1.024  10.374  18.573  0.00  0.00    +0.000 NA
ATOM      6  C   UNL     1       1.468  11.749  18.734  0.00  0.00    +0.000 C 
ENDROOT
BRANCH   1   7
ATOM      7  C   UNL     1       0.638  12.869  20.885  0.00  0.00    +0.000 C 
ATOM      8  O   UNL     1       1.718  13.135  21.419  0.00  0.00    +0.000 OA
BRANCH   7  14
ATOM      9  C   UNL     1      -1.400  13.855  22.105  0.00  0.00    +0.000 A 
ATOM     10  C   UNL     1      -2.572  13.594  22.836  0.00  0.00    +0.000 A 
ATOM     11  C   UNL     1      -2.798  12.340  23.408  0.00  0.00    +0.000 A 
ATOM     12  C   UNL     1      -1.844  11.339  23.266  0.00  0.00    +0.000 A 
ATOM     13  C   UNL     1      -0.735  11.554  22.446  0.00  0.00    +0.000 A 
ATOM     14  C   UNL     1      -0.539  12.788  21.799  0.00  0.00    +0.000 A 
BRANCH   9  16
ATOM     15  C   UNL     1      -2.683  16.326  22.193  0.00  0.00    +0.000 C 
ATOM     16  S   UNL     1      -1.047  15.596  21.829  0.00  0.00    +0.000 S 
ENDBRANCH   9  16
ENDBRANCH   7  14
ENDBRANCH   1   7
BRANCH   5  17
ATOM     17  C   UNL     1       2.037   9.495  17.951  0.00  0.00    +0.000 C 
BRANCH  17  18
ATOM     18  C   UNL     1       2.175   8.152  18.605  0.00  0.00    +0.000 A 
ATOM     19  C   UNL     1       1.895   7.813  19.949  0.00  0.00    +0.000 A 
ATOM     20  N   UNL     1       2.075   6.517  20.216  0.00  0.00    +0.000 NA
ATOM     21  N   UNL     1       2.476   5.976  19.037  0.00  0.00    +0.000 N 
ATOM     22  C   UNL     1       2.639   6.960  18.081  0.00  0.00    +0.000 A 
BRANCH  21  23
ATOM     23  C   UNL     1       2.669   4.578  18.878  0.00  0.00    +0.000 A 
ATOM     24  C   UNL     1       2.309   3.956  17.668  0.00  0.00    +0.000 A 
ATOM     25  C   UNL     1       2.553   2.594  17.473  0.00  0.00    +0.000 A 
ATOM     26  C   UNL     1       3.136   1.842  18.484  0.00  0.00    +0.000 A 
ATOM     27  C   UNL     1       3.486   2.442  19.697  0.00  0.00    +0.000 A 
ATOM     28  C   UNL     1       3.256   3.804  19.893  0.00  0.00    +0.000 A 
ENDBRANCH  21  23
ENDBRANCH  17  18
ENDBRANCH   5  17
TORSDOF 6
ENDMDL
MODEL 9
REMARK VINA RESULT:      -7.3      3.862      9.667
REMARK  Name = 
REMARK  7 active torsions:
REMARK  status: ('A' for Active; 'I' for Inactive)
REMARK    1  A    between atoms: C_1  and  S_2
REMARK    2  A    between atoms: S_2  and  C_3
REMARK    3  A    between atoms: C_8  and  C_9
REMARK    4  A    between atoms: C_9  and  C_11
REMARK    5  A    between atoms: N_15  and  C_16
REMARK    6  A    between atoms: C_16  and  C_17
REMARK    7  A    between atoms: N_20  and  C_21
REMARK                            x       y       z     vdW  Elec       q    Type
REMARK                         _______ _______ _______ _____ _____    ______ ____
ROOT
ATOM      1  C   UNL     1       0.081  12.377  19.753  0.00  0.00    +0.000 C 
ATOM      2  C   UNL     1      -1.264  12.308  19.034  0.00  0.00    +0.000 C 
ATOM      3  C   UNL     1      -1.631  10.992  18.354  0.00  0.00    +0.000 C 
ATOM      4  C   UNL     1      -0.521   9.988  18.039  0.00  0.00    +0.000 C 
ATOM      5  N   UNL     1       0.777  10.179  18.661  0.00  0.00    +0.000 NA
ATOM      6  C   UNL     1       1.159  11.517  19.083  0.00  0.00    +0.000 C 
ENDROOT
BRANCH   1   7
ATOM      7  C   UNL     1       0.088  12.260  21.291  0.00  0.00    +0.000 C 
ATOM      8  O   UNL     1       0.520  11.265  21.879  0.00  0.00    +0.000 OA
BRANCH   7  14
ATOM      9  C   UNL     1      -1.383  13.370  23.085  0.00  0.00    +0.000 A 
ATOM     10  C   UNL     1      -1.548  14.456  23.963  0.00  0.00    +0.000 A 
ATOM     11  C   UNL     1      -0.800  15.626  23.808  0.00  0.00    +0.000 A 
ATOM     12  C   UNL     1       0.111  15.725  22.762  0.00  0.00    +0.000 A 
ATOM     13  C   UNL     1       0.363  14.611  21.959  0.00  0.00    +0.000 A 
ATOM     14  C   UNL     1      -0.327  13.401  22.158  0.00  0.00    +0.000 A 
BRANCH   9  16
ATOM     15  C   UNL     1      -3.853  12.950  24.302  0.00  0.00    +0.000 C 
ATOM     16  S   UNL     1      -2.701  12.149  23.128  0.00  0.00    +0.000 S 
ENDBRANCH   9  16
ENDBRANCH   7  14
ENDBRANCH   1   7
BRANCH   5  17
ATOM     17  C   UNL     1       1.874   9.429  18.013  0.00  0.00    +0.000 C 
BRANCH  17  18
ATOM     18  C   UNL     1       2.135   8.077  18.607  0.00  0.00    +0.000 A 
ATOM     19  C   UNL     1       1.917   7.664  19.943  0.00  0.00    +0.000 A 
ATOM     20  N   UNL     1       2.207   6.378  20.151  0.00  0.00    +0.000 NA
ATOM     21  N   UNL     1       2.618   5.917  18.943  0.00  0.00    +0.000 N 
ATOM     22  C   UNL     1       2.678   6.948  18.025  0.00  0.00    +0.000 A 
BRANCH  21  23
ATOM     23  C   UNL     1       2.918   4.547  18.722  0.00  0.00    +0.000 A 
ATOM     24  C   UNL     1       3.933   3.924  19.470  0.00  0.00    +0.000 A 
ATOM     25  C   UNL     1       4.195   2.561  19.310  0.00  0.00    +0.000 A 
ATOM     26  C   UNL     1       3.465   1.817  18.393  0.00  0.00    +0.000 A 
ATOM     27  C   UNL     1       2.462   2.424  17.632  0.00  0.00    +0.000 A 
ATOM     28  C   UNL     1       2.187   3.783  17.796  0.00  0.00    +0.000 A 
ENDBRANCH  21  23
ENDBRANCH  17  18
ENDBRANCH   5  17
TORSDOF 6
ENDMDL
