MODEL 1
REMARK VINA RESULT:      -7.3      0.000      0.000
REMARK  Name = 
REMARK  7 active torsions:
REMARK  status: ('A' for Active; 'I' for Inactive)
REMARK    1  A    between atoms: C_1  and  S_2
REMARK    2  A    between atoms: S_2  and  C_3
REMARK    3  A    between atoms: C_7  and  C_8
REMARK    4  A    between atoms: C_8  and  C_9
REMARK    5  A    between atoms: N_10  and  N_11
REMARK    6  A    between atoms: N_11  and  C_12
REMARK    7  A    between atoms: C_17  and  C_18
REMARK                            x       y       z     vdW  Elec       q    Type
REMARK                         _______ _______ _______ _____ _____    ______ ____
ROOT
ATOM      1  C   UNL     1       6.448   5.000  18.660  0.00  0.00    +0.000 C 
ATOM      2  C   UNL     1       7.637   5.659  19.333  0.00  0.00    +0.000 C 
ATOM      3  N   UNL     1       5.850   4.087  19.372  0.00  0.00    +0.000 NA
ENDROOT
BRANCH   1   8
ATOM      4  C   UNL     1       5.947   4.987  15.059  0.00  0.00    +0.000 A 
ATOM      5  N   UNL     1       5.362   6.181  14.810  0.00  0.00    +0.000 NA
ATOM      6  N   UNL     1       5.131   7.048  15.833  0.00  0.00    +0.000 NA
ATOM      7  C   UNL     1       5.493   6.679  17.072  0.00  0.00    +0.000 A 
ATOM      8  C   UNL     1       6.070   5.450  17.286  0.00  0.00    +0.000 A 
ATOM      9  N   UNL     1       6.325   4.578  16.280  0.00  0.00    +0.000 NA
BRANCH   4  11
ATOM     10  C   UNL     1       7.453   4.895  12.777  0.00  0.00    +0.000 C 
ATOM     11  S   UNL     1       6.280   3.884  13.711  0.00  0.00    +0.000 S 
ENDBRANCH   4  11
ENDBRANCH   1   8
BRANCH   3  12
ATOM     12  N   UNL     1       4.792   3.430  18.829  0.00  0.00    +0.000 N 
ATOM     13  H   UNL     1       4.655   3.493  17.816  0.00  0.00    +0.000 HD
BRANCH  12  14
ATOM     14  C   UNL     1       3.579   3.388  19.559  0.00  0.00    +0.000 A 
ATOM     15  C   UNL     1       3.488   2.683  20.772  0.00  0.00    +0.000 A 
ATOM     16  C   UNL     1       2.284   2.573  21.467  0.00  0.00    +0.000 A 
ATOM     17  C   UNL     1       1.131   3.148  20.946  0.00  0.00    +0.000 A 
ATOM     18  C   UNL     1       1.185   3.825  19.728  0.00  0.00    +0.000 A 
ATOM     19  C   UNL     1       2.396   3.942  19.020  0.00  0.00    +0.000 A 
ATOM     20  C   UNL     1       2.390   4.651  17.692  0.00  0.00    +0.000 C 
ENDBRANCH  12  14
ENDBRANCH   3  12
TORSDOF 4
ENDMDL
MODEL 2
REMARK VINA RESULT:      -7.0      0.920      1.196
REMARK  Name = 
REMARK  7 active torsions:
REMARK  status: ('A' for Active; 'I' for Inactive)
REMARK    1  A    between atoms: C_1  and  S_2
REMARK    2  A    between atoms: S_2  and  C_3
REMARK    3  A    between atoms: C_7  and  C_8
REMARK    4  A    between atoms: C_8  and  C_9
REMARK    5  A    between atoms: N_10  and  N_11
REMARK    6  A    between atoms: N_11  and  C_12
REMARK    7  A    between atoms: C_17  and  C_18
REMARK                            x       y       z     vdW  Elec       q    Type
REMARK                         _______ _______ _______ _____ _____    ______ ____
ROOT
ATOM      1  C   UNL     1       6.524   5.084  18.610  0.00  0.00    +0.000 C 
ATOM      2  C   UNL     1       7.705   5.765  19.277  0.00  0.00    +0.000 C 
ATOM      3  N   UNL     1       5.936   4.173  19.332  0.00  0.00    +0.000 NA
ENDROOT
BRANCH   1   8
ATOM      4  C   UNL     1       6.014   5.016  15.011  0.00  0.00    +0.000 A 
ATOM      5  N   UNL     1       5.430   6.206  14.745  0.00  0.00    +0.000 NA
ATOM      6  N   UNL     1       5.202   7.089  15.755  0.00  0.00    +0.000 NA
ATOM      7  C   UNL     1       5.568   6.739  16.999  0.00  0.00    +0.000 A 
ATOM      8  C   UNL     1       6.143   5.512  17.230  0.00  0.00    +0.000 A 
ATOM      9  N   UNL     1       6.395   4.625  16.237  0.00  0.00    +0.000 NA
BRANCH   4  11
ATOM     10  C   UNL     1       7.519   4.883  12.730  0.00  0.00    +0.000 C 
ATOM     11  S   UNL     1       6.342   3.891  13.679  0.00  0.00    +0.000 S 
ENDBRANCH   4  11
ENDBRANCH   1   8
BRANCH   3  12
ATOM     12  N   UNL     1       4.886   3.497  18.795  0.00  0.00    +0.000 N 
ATOM     13  H   UNL     1       4.902   3.303  17.790  0.00  0.00    +0.000 HD
BRANCH  12  14
ATOM     14  C   UNL     1       3.588   3.762  19.296  0.00  0.00    +0.000 A 
ATOM     15  C   UNL     1       3.328   4.916  20.056  0.00  0.00    +0.000 A 
ATOM     16  C   UNL     1       2.072   5.157  20.616  0.00  0.00    +0.000 A 
ATOM     17  C   UNL     1       1.053   4.229  20.448  0.00  0.00    +0.000 A 
ATOM     18  C   UNL     1       1.293   3.059  19.726  0.00  0.00    +0.000 A 
ATOM     19  C   UNL     1       2.555   2.809  19.157  0.00  0.00    +0.000 A 
ATOM     20  C   UNL     1       2.770   1.513  18.420  0.00  0.00    +0.000 C 
ENDBRANCH  12  14
ENDBRANCH   3  12
TORSDOF 4
ENDMDL
MODEL 3
REMARK VINA RESULT:      -6.9      2.096      2.982
REMARK  Name = 
REMARK  7 active torsions:
REMARK  status: ('A' for Active; 'I' for Inactive)
REMARK    1  A    between atoms: C_1  and  S_2
REMARK    2  A    between atoms: S_2  and  C_3
REMARK    3  A    between atoms: C_7  and  C_8
REMARK    4  A    between atoms: C_8  and  C_9
REMARK    5  A    between atoms: N_10  and  N_11
REMARK    6  A    between atoms: N_11  and  C_12
REMARK    7  A    between atoms: C_17  and  C_18
REMARK                            x       y       z     vdW  Elec       q    Type
REMARK                         _______ _______ _______ _____ _____    ______ ____
ROOT
ATOM      1  C   UNL     1       6.123   4.980  18.809  0.00  0.00    +0.000 C 
ATOM      2  C   UNL     1       7.414   5.486  19.425  0.00  0.00    +0.000 C 
ATOM      3  N   UNL     1       5.735   3.810  19.230  0.00  0.00    +0.000 NA
ENDROOT
BRANCH   1   8
ATOM      4  C   UNL     1       3.769   7.346  17.368  0.00  0.00    +0.000 A 
ATOM      5  N   UNL     1       4.170   7.458  16.081  0.00  0.00    +0.000 NA
ATOM      6  N   UNL     1       5.230   6.731  15.637  0.00  0.00    +0.000 NA
ATOM      7  C   UNL     1       5.853   5.919  16.508  0.00  0.00    +0.000 A 
ATOM      8  C   UNL     1       5.425   5.846  17.812  0.00  0.00    +0.000 A 
ATOM      9  N   UNL     1       4.360   6.549  18.271  0.00  0.00    +0.000 NA
BRANCH   4  11
ATOM     10  C   UNL     1       2.135   7.523  19.555  0.00  0.00    +0.000 C 
ATOM     11  S   UNL     1       2.361   8.270  17.923  0.00  0.00    +0.000 S 
ENDBRANCH   4  11
ENDBRANCH   1   8
BRANCH   3  12
ATOM     12  N   UNL     1       4.602   3.274  18.705  0.00  0.00    +0.000 N 
ATOM     13  H   UNL     1       4.403   3.444  17.715  0.00  0.00    +0.000 HD
BRANCH  12  14
ATOM     14  C   UNL     1       3.440   3.233  19.514  0.00  0.00    +0.000 A 
ATOM     15  C   UNL     1       3.489   2.732  20.826  0.00  0.00    +0.000 A 
ATOM     16  C   UNL     1       2.341   2.619  21.612  0.00  0.00    +0.000 A 
ATOM     17  C   UNL     1       1.108   2.983  21.086  0.00  0.00    +0.000 A 
ATOM     18  C   UNL     1       1.025   3.452  19.775  0.00  0.00    +0.000 A 
ATOM     19  C   UNL     1       2.178   3.571  18.976  0.00  0.00    +0.000 A 
ATOM     20  C   UNL     1       2.026   4.047  17.556  0.00  0.00    +0.000 C 
ENDBRANCH  12  14
ENDBRANCH   3  12
TORSDOF 4
ENDMDL
MODEL 4
REMARK VINA RESULT:      -6.8      2.539      3.792
REMARK  Name = 
REMARK  7 active torsions:
REMARK  status: ('A' for Active; 'I' for Inactive)
REMARK    1  A    between atoms: C_1  and  S_2
REMARK    2  A    between atoms: S_2  and  C_3
REMARK    3  A    between atoms: C_7  and  C_8
REMARK    4  A    between atoms: C_8  and  C_9
REMARK    5  A    between atoms: N_10  and  N_11
REMARK    6  A    between atoms: N_11  and  C_12
REMARK    7  A    between atoms: C_17  and  C_18
REMARK                            x       y       z     vdW  Elec       q    Type
REMARK                         _______ _______ _______ _____ _____    ______ ____
ROOT
ATOM      1  C   UNL     1       5.924   4.789  16.124  0.00  0.00    +0.000 C 
ATOM      2  C   UNL     1       6.589   4.131  14.929  0.00  0.00    +0.000 C 
ATOM      3  N   UNL     1       4.629   4.660  16.172  0.00  0.00    +0.000 NA
ENDROOT
BRANCH   1   8
ATOM      4  C   UNL     1       7.701   7.450  17.850  0.00  0.00    +0.000 A 
ATOM      5  N   UNL     1       8.280   6.823  18.900  0.00  0.00    +0.000 NA
ATOM      6  N   UNL     1       8.118   5.482  19.061  0.00  0.00    +0.000 NA
ATOM      7  C   UNL     1       7.373   4.820  18.161  0.00  0.00    +0.000 A 
ATOM      8  C   UNL     1       6.788   5.496  17.117  0.00  0.00    +0.000 A 
ATOM      9  N   UNL     1       6.950   6.829  16.927  0.00  0.00    +0.000 NA
BRANCH   4  11
ATOM     10  C   UNL     1       9.022   9.523  19.050  0.00  0.00    +0.000 C 
ATOM     11  S   UNL     1       7.954   9.191  17.629  0.00  0.00    +0.000 S 
ENDBRANCH   4  11
ENDBRANCH   1   8
BRANCH   3  12
ATOM     12  N   UNL     1       3.955   5.244  17.197  0.00  0.00    +0.000 N 
ATOM     13  H   UNL     1       4.448   5.945  17.758  0.00  0.00    +0.000 HD
BRANCH  12  14
ATOM     14  C   UNL     1       3.055   4.451  17.950  0.00  0.00    +0.000 A 
ATOM     15  C   UNL     1       2.722   3.148  17.540  0.00  0.00    +0.000 A 
ATOM     16  C   UNL     1       1.784   2.380  18.231  0.00  0.00    +0.000 A 
ATOM     17  C   UNL     1       1.137   2.914  19.338  0.00  0.00    +0.000 A 
ATOM     18  C   UNL     1       1.424   4.216  19.747  0.00  0.00    +0.000 A 
ATOM     19  C   UNL     1       2.369   4.997  19.057  0.00  0.00    +0.000 A 
ATOM     20  C   UNL     1       2.613   6.410  19.519  0.00  0.00    +0.000 C 
ENDBRANCH  12  14
ENDBRANCH   3  12
TORSDOF 4
ENDMDL
MODEL 5
REMARK VINA RESULT:      -6.8      3.721      5.247
REMARK  Name = 
REMARK  7 active torsions:
REMARK  status: ('A' for Active; 'I' for Inactive)
REMARK    1  A    between atoms: C_1  and  S_2
REMARK    2  A    between atoms: S_2  and  C_3
REMARK    3  A    between atoms: C_7  and  C_8
REMARK    4  A    between atoms: C_8  and  C_9
REMARK    5  A    between atoms: N_10  and  N_11
REMARK    6  A    between atoms: N_11  and  C_12
REMARK    7  A    between atoms: C_17  and  C_18
REMARK                            x       y       z     vdW  Elec       q    Type
REMARK                         _______ _______ _______ _____ _____    ______ ____
ROOT
ATOM      1  C   UNL     1       2.025   4.663  19.921  0.00  0.00    +0.000 C 
ATOM      2  C   UNL     1       1.148   3.438  20.099  0.00  0.00    +0.000 C 
ATOM      3  N   UNL     1       1.689   5.691  20.648  0.00  0.00    +0.000 NA
ENDROOT
BRANCH   1   8
ATOM      4  C   UNL     1       5.389   4.909  18.564  0.00  0.00    +0.000 A 
ATOM      5  N   UNL     1       5.269   4.412  17.311  0.00  0.00    +0.000 NA
ATOM      6  N   UNL     1       4.055   3.994  16.862  0.00  0.00    +0.000 NA
ATOM      7  C   UNL     1       3.003   4.088  17.693  0.00  0.00    +0.000 A 
ATOM      8  C   UNL     1       3.170   4.584  18.965  0.00  0.00    +0.000 A 
ATOM      9  N   UNL     1       4.367   5.021  19.427  0.00  0.00    +0.000 NA
BRANCH   4  11
ATOM     10  C   UNL     1       7.343   6.666  17.802  0.00  0.00    +0.000 C 
ATOM     11  S   UNL     1       6.969   5.487  19.122  0.00  0.00    +0.000 S 
ENDBRANCH   4  11
ENDBRANCH   1   8
BRANCH   3  12
ATOM     12  N   UNL     1       2.408   6.837  20.525  0.00  0.00    +0.000 N 
ATOM     13  H   UNL     1       2.973   7.137  21.324  0.00  0.00    +0.000 HD
BRANCH  12  14
ATOM     14  C   UNL     1       1.843   7.913  19.799  0.00  0.00    +0.000 A 
ATOM     15  C   UNL     1       2.113   8.083  18.430  0.00  0.00    +0.000 A 
ATOM     16  C   UNL     1       1.621   9.177  17.716  0.00  0.00    +0.000 A 
ATOM     17  C   UNL     1       0.866  10.143  18.369  0.00  0.00    +0.000 A 
ATOM     18  C   UNL     1       0.610  10.016  19.734  0.00  0.00    +0.000 A 
ATOM     19  C   UNL     1       1.101   8.916  20.462  0.00  0.00    +0.000 A 
ATOM     20  C   UNL     1       0.828   8.849  21.941  0.00  0.00    +0.000 C 
ENDBRANCH  12  14
ENDBRANCH   3  12
TORSDOF 4
ENDMDL
MODEL 6
REMARK VINA RESULT:      -6.8      3.554      4.868
REMARK  Name = 
REMARK  7 active torsions:
REMARK  status: ('A' for Active; 'I' for Inactive)
REMARK    1  A    between atoms: C_1  and  S_2
REMARK    2  A    between atoms: S_2  and  C_3
REMARK    3  A    between atoms: C_7  and  C_8
REMARK    4  A    between atoms: C_8  and  C_9
REMARK    5  A    between atoms: N_10  and  N_11
REMARK    6  A    between atoms: N_11  and  C_12
REMARK    7  A    between atoms: C_17  and  C_18
REMARK                            x       y       z     vdW  Elec       q    Type
REMARK                         _______ _______ _______ _____ _____    ______ ____
ROOT
ATOM      1  C   UNL     1       2.354   4.496  19.685  0.00  0.00    +0.000 C 
ATOM      2  C   UNL     1       1.541   3.220  19.791  0.00  0.00    +0.000 C 
ATOM      3  N   UNL     1       1.952   5.469  20.453  0.00  0.00    +0.000 NA
ENDROOT
BRANCH   1   8
ATOM      4  C   UNL     1       5.726   4.962  18.407  0.00  0.00    +0.000 A 
ATOM      5  N   UNL     1       5.647   4.537  17.126  0.00  0.00    +0.000 NA
ATOM      6  N   UNL     1       4.459   4.096  16.631  0.00  0.00    +0.000 NA
ATOM      7  C   UNL     1       3.392   4.097  17.446  0.00  0.00    +0.000 A 
ATOM      8  C   UNL     1       3.517   4.521  18.747  0.00  0.00    +0.000 A 
ATOM      9  N   UNL     1       4.687   4.980  19.257  0.00  0.00    +0.000 NA
BRANCH   4  11
ATOM     10  C   UNL     1       7.567   6.905  17.843  0.00  0.00    +0.000 C 
ATOM     11  S   UNL     1       7.271   5.571  19.028  0.00  0.00    +0.000 S 
ENDBRANCH   4  11
ENDBRANCH   1   8
BRANCH   3  12
ATOM     12  N   UNL     1       2.612   6.655  20.396  0.00  0.00    +0.000 N 
ATOM     13  H   UNL     1       3.373   6.814  21.063  0.00  0.00    +0.000 HD
BRANCH  12  14
ATOM     14  C   UNL     1       1.870   7.825  20.099  0.00  0.00    +0.000 A 
ATOM     15  C   UNL     1       0.951   8.352  21.023  0.00  0.00    +0.000 A 
ATOM     16  C   UNL     1       0.161   9.462  20.719  0.00  0.00    +0.000 A 
ATOM     17  C   UNL     1       0.257  10.054  19.467  0.00  0.00    +0.000 A 
ATOM     18  C   UNL     1       1.137   9.531  18.519  0.00  0.00    +0.000 A 
ATOM     19  C   UNL     1       1.938   8.413  18.817  0.00  0.00    +0.000 A 
ATOM     20  C   UNL     1       2.843   7.867  17.745  0.00  0.00    +0.000 C 
ENDBRANCH  12  14
ENDBRANCH   3  12
TORSDOF 4
ENDMDL
MODEL 7
REMARK VINA RESULT:      -6.7      3.789      5.060
REMARK  Name = 
REMARK  7 active torsions:
REMARK  status: ('A' for Active; 'I' for Inactive)
REMARK    1  A    between atoms: C_1  and  S_2
REMARK    2  A    between atoms: S_2  and  C_3
REMARK    3  A    between atoms: C_7  and  C_8
REMARK    4  A    between atoms: C_8  and  C_9
REMARK    5  A    between atoms: N_10  and  N_11
REMARK    6  A    between atoms: N_11  and  C_12
REMARK    7  A    between atoms: C_17  and  C_18
REMARK                            x       y       z     vdW  Elec       q    Type
REMARK                         _______ _______ _______ _____ _____    ______ ____
ROOT
ATOM      1  C   UNL     1       2.082   4.631  20.314  0.00  0.00    +0.000 C 
ATOM      2  C   UNL     1       1.426   3.469  21.035  0.00  0.00    +0.000 C 
ATOM      3  N   UNL     1       1.841   5.803  20.828  0.00  0.00    +0.000 NA
ENDROOT
BRANCH   1   8
ATOM      4  C   UNL     1       4.981   4.422  18.130  0.00  0.00    +0.000 A 
ATOM      5  N   UNL     1       4.513   3.786  17.031  0.00  0.00    +0.000 NA
ATOM      6  N   UNL     1       3.204   3.421  16.967  0.00  0.00    +0.000 NA
ATOM      7  C   UNL     1       2.413   3.705  18.015  0.00  0.00    +0.000 A 
ATOM      8  C   UNL     1       2.932   4.337  19.120  0.00  0.00    +0.000 A 
ATOM      9  N   UNL     1       4.228   4.725  19.198  0.00  0.00    +0.000 NA
BRANCH   4  11
ATOM     10  C   UNL     1       7.135   4.639  16.457  0.00  0.00    +0.000 C 
ATOM     11  S   UNL     1       6.680   4.928  18.183  0.00  0.00    +0.000 S 
ENDBRANCH   4  11
ENDBRANCH   1   8
BRANCH   3  12
ATOM     12  N   UNL     1       2.371   6.899  20.223  0.00  0.00    +0.000 N 
ATOM     13  H   UNL     1       3.379   7.055  20.309  0.00  0.00    +0.000 HD
BRANCH  12  14
ATOM     14  C   UNL     1       1.614   8.096  20.216  0.00  0.00    +0.000 A 
ATOM     15  C   UNL     1       0.829   8.462  21.323  0.00  0.00    +0.000 A 
ATOM     16  C   UNL     1       0.023   9.601  21.306  0.00  0.00    +0.000 A 
ATOM     17  C   UNL     1      -0.035  10.387  20.162  0.00  0.00    +0.000 A 
ATOM     18  C   UNL     1       0.708  10.029  19.037  0.00  0.00    +0.000 A 
ATOM     19  C   UNL     1       1.525   8.883  19.047  0.00  0.00    +0.000 A 
ATOM     20  C   UNL     1       2.276   8.522  17.793  0.00  0.00    +0.000 C 
ENDBRANCH  12  14
ENDBRANCH   3  12
TORSDOF 4
ENDMDL
MODEL 8
REMARK VINA RESULT:      -6.6      3.645      5.378
REMARK  Name = 
REMARK  7 active torsions:
REMARK  status: ('A' for Active; 'I' for Inactive)
REMARK    1  A    between atoms: C_1  and  S_2
REMARK    2  A    between atoms: S_2  and  C_3
REMARK    3  A    between atoms: C_7  and  C_8
REMARK    4  A    between atoms: C_8  and  C_9
REMARK    5  A    between atoms: N_10  and  N_11
REMARK    6  A    between atoms: N_11  and  C_12
REMARK    7  A    between atoms: C_17  and  C_18
REMARK                            x       y       z     vdW  Elec       q    Type
REMARK                         _______ _______ _______ _____ _____    ______ ____
ROOT
ATOM      1  C   UNL     1       1.909   4.634  20.096  0.00  0.00    +0.000 C 
ATOM      2  C   UNL     1       0.936   3.471  20.148  0.00  0.00    +0.000 C 
ATOM      3  N   UNL     1       1.459   5.750  20.594  0.00  0.00    +0.000 NA
ENDROOT
BRANCH   1   8
ATOM      4  C   UNL     1       4.832   4.987  17.962  0.00  0.00    +0.000 A 
ATOM      5  N   UNL     1       5.697   4.066  18.444  0.00  0.00    +0.000 NA
ATOM      6  N   UNL     1       5.330   3.274  19.488  0.00  0.00    +0.000 NA
ATOM      7  C   UNL     1       4.105   3.442  20.013  0.00  0.00    +0.000 A 
ATOM      8  C   UNL     1       3.262   4.401  19.505  0.00  0.00    +0.000 A 
ATOM      9  N   UNL     1       3.600   5.189  18.455  0.00  0.00    +0.000 NA
BRANCH   4  11
ATOM     10  C   UNL     1       6.647   6.934  17.333  0.00  0.00    +0.000 C 
ATOM     11  S   UNL     1       5.307   5.985  16.575  0.00  0.00    +0.000 S 
ENDBRANCH   4  11
ENDBRANCH   1   8
BRANCH   3  12
ATOM     12  N   UNL     1       2.261   6.846  20.560  0.00  0.00    +0.000 N 
ATOM     13  H   UNL     1       2.819   7.059  21.392  0.00  0.00    +0.000 HD
BRANCH  12  14
ATOM     14  C   UNL     1       1.796   8.000  19.884  0.00  0.00    +0.000 A 
ATOM     15  C   UNL     1       2.103   8.217  18.529  0.00  0.00    +0.000 A 
ATOM     16  C   UNL     1       1.713   9.381  17.866  0.00  0.00    +0.000 A 
ATOM     17  C   UNL     1       1.026  10.370  18.558  0.00  0.00    +0.000 A 
ATOM     18  C   UNL     1       0.737  10.196  19.911  0.00  0.00    +0.000 A 
ATOM     19  C   UNL     1       1.126   9.025  20.587  0.00  0.00    +0.000 A 
ATOM     20  C   UNL     1       0.822   8.905  22.057  0.00  0.00    +0.000 C 
ENDBRANCH  12  14
ENDBRANCH   3  12
TORSDOF 4
ENDMDL
MODEL 9
REMARK VINA RESULT:      -6.6      3.883      5.128
REMARK  Name = 
REMARK  7 active torsions:
REMARK  status: ('A' for Active; 'I' for Inactive)
REMARK    1  A    between atoms: C_1  and  S_2
REMARK    2  A    between atoms: S_2  and  C_3
REMARK    3  A    between atoms: C_7  and  C_8
REMARK    4  A    between atoms: C_8  and  C_9
REMARK    5  A    between atoms: N_10  and  N_11
REMARK    6  A    between atoms: N_11  and  C_12
REMARK    7  A    between atoms: C_17  and  C_18
REMARK                            x       y       z     vdW  Elec       q    Type
REMARK                         _______ _______ _______ _____ _____    ______ ____
ROOT
ATOM      1  C   UNL     1       2.009   4.816  20.029  0.00  0.00    +0.000 C 
ATOM      2  C   UNL     1       1.126   3.592  20.177  0.00  0.00    +0.000 C 
ATOM      3  N   UNL     1       1.525   5.909  20.546  0.00  0.00    +0.000 NA
ENDROOT
BRANCH   1   8
ATOM      4  C   UNL     1       4.757   5.385  17.716  0.00  0.00    +0.000 A 
ATOM      5  N   UNL     1       5.685   4.474  18.088  0.00  0.00    +0.000 NA
ATOM      6  N   UNL     1       5.422   3.619  19.113  0.00  0.00    +0.000 NA
ATOM      7  C   UNL     1       4.233   3.714  19.730  0.00  0.00    +0.000 A 
ATOM      8  C   UNL     1       3.323   4.665  19.334  0.00  0.00    +0.000 A 
ATOM      9  N   UNL     1       3.558   5.516  18.304  0.00  0.00    +0.000 NA
BRANCH   4  11
ATOM     10  C   UNL     1       5.651   5.251  15.134  0.00  0.00    +0.000 C 
ATOM     11  S   UNL     1       5.097   6.467  16.353  0.00  0.00    +0.000 S 
ENDBRANCH   4  11
ENDBRANCH   1   8
BRANCH   3  12
ATOM     12  N   UNL     1       2.243   7.057  20.431  0.00  0.00    +0.000 N 
ATOM     13  H   UNL     1       3.164   7.094  20.876  0.00  0.00    +0.000 HD
BRANCH  12  14
ATOM     14  C   UNL     1       1.550   8.291  20.467  0.00  0.00    +0.000 A 
ATOM     15  C   UNL     1       0.936   8.742  21.649  0.00  0.00    +0.000 A 
ATOM     16  C   UNL     1       0.191   9.921  21.684  0.00  0.00    +0.000 A 
ATOM     17  C   UNL     1       0.021  10.664  20.523  0.00  0.00    +0.000 A 
ATOM     18  C   UNL     1       0.591  10.223  19.329  0.00  0.00    +0.000 A 
ATOM     19  C   UNL     1       1.346   9.036  19.285  0.00  0.00    +0.000 A 
ATOM     20  C   UNL     1       1.907   8.586  17.962  0.00  0.00    +0.000 C 
ENDBRANCH  12  14
ENDBRANCH   3  12
TORSDOF 4
ENDMDL
