MODEL 1
REMARK VINA RESULT:      -7.1      0.000      0.000
REMARK  Name = 
REMARK  11 active torsions:
REMARK  status: ('A' for Active; 'I' for Inactive)
REMARK    1  A    between atoms: C_1  and  C_2
REMARK    2  A    between atoms: C_2  and  C_3
REMARK    3  A    between atoms: C_8  and  C_9
REMARK    4  A    between atoms: N_14  and  C_15
REMARK    5  A    between atoms: C_20  and  N_21
REMARK    6  A    between atoms: N_21  and  C_22
REMARK    7  A    between atoms: N_21  and  C_23
REMARK    8  A    between atoms: C_23  and  C_24
REMARK    9  A    between atoms: C_24  and  C_25
REMARK   10  A    between atoms: C_25  and  C_26
REMARK   11  A    between atoms: C_25  and  C_27
REMARK                            x       y       z     vdW  Elec       q    Type
REMARK                         _______ _______ _______ _____ _____    ______ ____
ROOT
ATOM      1  C   UNL     1       5.072   4.588  16.439  0.00  0.00    +0.000 A 
ATOM      2  N   UNL     1       5.044   5.904  16.062  0.00  0.00    +0.000 NA
ATOM      3  C   UNL     1       4.290   6.515  16.930  0.00  0.00    +0.000 A 
ATOM      4  C   UNL     1       3.988   7.895  17.036  0.00  0.00    +0.000 A 
ATOM      5  C   UNL     1       3.193   8.331  18.025  0.00  0.00    +0.000 A 
ATOM      6  C   UNL     1       2.548   7.402  18.944  0.00  0.00    +0.000 A 
ATOM      7  C   UNL     1       2.906   6.099  18.895  0.00  0.00    +0.000 A 
ATOM      8  N   UNL     1       3.771   5.641  17.887  0.00  0.00    +0.000 N 
ATOM      9  C   UNL     1       4.316   4.372  17.601  0.00  0.00    +0.000 A 
ENDROOT
BRANCH   6  10
ATOM     10  C   UNL     1       1.609   7.861  20.024  0.00  0.00    +0.000 C 
ATOM     11  O   UNL     1       1.311   7.082  20.933  0.00  0.00    +0.000 OA
ATOM     12  N   UNL     1       1.132   9.171  19.984  0.00  0.00    +0.000 N 
ATOM     13  C   UNL     1       0.353   9.604  21.150  0.00  0.00    +0.000 C 
ATOM     14  C   UNL     1       0.221  11.138  21.254  0.00  0.00    +0.000 C 
ATOM     15  N   UNL     1      -0.209  11.815  20.014  0.00  0.00    +0.000 NA
ATOM     16  C   UNL     1      -1.619  11.565  19.720  0.00  0.00    +0.000 C 
ATOM     17  C   UNL     1       0.660  11.383  18.900  0.00  0.00    +0.000 C 
ATOM     18  C   UNL     1       0.761   9.853  18.731  0.00  0.00    +0.000 C 
ENDBRANCH   6  10
BRANCH   1  20
ATOM     19  C   UNL     1       5.942   4.057  14.129  0.00  0.00    +0.000 C 
ATOM     20  C   UNL     1       5.865   3.643  15.597  0.00  0.00    +0.000 C 
ENDBRANCH   1  20
BRANCH   9  21
ATOM     21  N   UNL     1       4.135   3.243  18.372  0.00  0.00    +0.000 N 
ATOM     22  C   UNL     1       4.819   3.036  19.646  0.00  0.00    +0.000 C 
BRANCH  21  23
ATOM     23  C   UNL     1       3.154   2.206  18.015  0.00  0.00    +0.000 C 
BRANCH  23  24
ATOM     24  C   UNL     1       2.302   1.753  19.206  0.00  0.00    +0.000 C 
BRANCH  24  25
ATOM     25  C   UNL     1       1.026   2.580  19.455  0.00  0.00    +0.000 C 
ATOM     26  C   UNL     1       1.122   3.458  20.703  0.00  0.00    +0.000 C 
ATOM     27  C   UNL     1       0.739   3.458  18.233  0.00  0.00    +0.000 C 
ENDBRANCH  24  25
ENDBRANCH  23  24
ENDBRANCH  21  23
ENDBRANCH   9  21
TORSDOF 6
ENDMDL
MODEL 2
REMARK VINA RESULT:      -6.9      2.016      8.462
REMARK  Name = 
REMARK  11 active torsions:
REMARK  status: ('A' for Active; 'I' for Inactive)
REMARK    1  A    between atoms: C_1  and  C_2
REMARK    2  A    between atoms: C_2  and  C_3
REMARK    3  A    between atoms: C_8  and  C_9
REMARK    4  A    between atoms: N_14  and  C_15
REMARK    5  A    between atoms: C_20  and  N_21
REMARK    6  A    between atoms: N_21  and  C_22
REMARK    7  A    between atoms: N_21  and  C_23
REMARK    8  A    between atoms: C_23  and  C_24
REMARK    9  A    between atoms: C_24  and  C_25
REMARK   10  A    between atoms: C_25  and  C_26
REMARK   11  A    between atoms: C_25  and  C_27
REMARK                            x       y       z     vdW  Elec       q    Type
REMARK                         _______ _______ _______ _____ _____    ______ ____
ROOT
ATOM      1  C   UNL     1      -0.767  11.557  21.292  0.00  0.00    +0.000 A 
ATOM      2  N   UNL     1      -0.457  10.452  22.038  0.00  0.00    +0.000 NA
ATOM      3  C   UNL     1       0.296   9.703  21.284  0.00  0.00    +0.000 A 
ATOM      4  C   UNL     1       0.941   8.482  21.599  0.00  0.00    +0.000 A 
ATOM      5  C   UNL     1       1.696   7.868  20.675  0.00  0.00    +0.000 A 
ATOM      6  C   UNL     1       1.792   8.378  19.313  0.00  0.00    +0.000 A 
ATOM      7  C   UNL     1       1.248   9.587  19.041  0.00  0.00    +0.000 A 
ATOM      8  N   UNL     1       0.490  10.256  20.017  0.00  0.00    +0.000 N 
ATOM      9  C   UNL     1      -0.169  11.503  20.024  0.00  0.00    +0.000 A 
ENDROOT
BRANCH   6  10
ATOM     10  C   UNL     1       2.584   7.679  18.245  0.00  0.00    +0.000 C 
ATOM     11  O   UNL     1       2.822   8.268  17.188  0.00  0.00    +0.000 OA
ATOM     12  N   UNL     1       3.059   6.391  18.500  0.00  0.00    +0.000 N 
ATOM     13  C   UNL     1       3.960   5.830  17.486  0.00  0.00    +0.000 C 
ATOM     14  C   UNL     1       4.775   4.626  18.000  0.00  0.00    +0.000 C 
ATOM     15  N   UNL     1       3.985   3.581  18.684  0.00  0.00    +0.000 NA
ATOM     16  C   UNL     1       3.167   2.816  17.744  0.00  0.00    +0.000 C 
ATOM     17  C   UNL     1       3.157   4.210  19.733  0.00  0.00    +0.000 C 
ATOM     18  C   UNL     1       2.281   5.379  19.234  0.00  0.00    +0.000 C 
ENDBRANCH   6  10
BRANCH   1  20
ATOM     19  C   UNL     1      -2.999  12.735  21.227  0.00  0.00    +0.000 C 
ATOM     20  C   UNL     1      -1.645  12.590  21.917  0.00  0.00    +0.000 C 
ENDBRANCH   1  20
BRANCH   9  21
ATOM     21  N   UNL     1      -0.137  12.419  18.992  0.00  0.00    +0.000 N 
ATOM     22  C   UNL     1       0.974  13.345  18.790  0.00  0.00    +0.000 C 
BRANCH  21  23
ATOM     23  C   UNL     1      -1.179  12.458  17.955  0.00  0.00    +0.000 C 
BRANCH  23  24
ATOM     24  C   UNL     1      -2.005  11.169  17.887  0.00  0.00    +0.000 C 
BRANCH  24  25
ATOM     25  C   UNL     1      -3.101  11.145  16.803  0.00  0.00    +0.000 C 
ATOM     26  C   UNL     1      -2.824  10.120  15.703  0.00  0.00    +0.000 C 
ATOM     27  C   UNL     1      -4.455  10.845  17.453  0.00  0.00    +0.000 C 
ENDBRANCH  24  25
ENDBRANCH  23  24
ENDBRANCH  21  23
ENDBRANCH   9  21
TORSDOF 6
ENDMDL
MODEL 3
REMARK VINA RESULT:      -6.8      0.544      1.150
REMARK  Name = 
REMARK  11 active torsions:
REMARK  status: ('A' for Active; 'I' for Inactive)
REMARK    1  A    between atoms: C_1  and  C_2
REMARK    2  A    between atoms: C_2  and  C_3
REMARK    3  A    between atoms: C_8  and  C_9
REMARK    4  A    between atoms: N_14  and  C_15
REMARK    5  A    between atoms: C_20  and  N_21
REMARK    6  A    between atoms: N_21  and  C_22
REMARK    7  A    between atoms: N_21  and  C_23
REMARK    8  A    between atoms: C_23  and  C_24
REMARK    9  A    between atoms: C_24  and  C_25
REMARK   10  A    between atoms: C_25  and  C_26
REMARK   11  A    between atoms: C_25  and  C_27
REMARK                            x       y       z     vdW  Elec       q    Type
REMARK                         _______ _______ _______ _____ _____    ______ ____
ROOT
ATOM      1  C   UNL     1       5.029   4.527  16.333  0.00  0.00    +0.000 A 
ATOM      2  N   UNL     1       5.052   5.854  15.998  0.00  0.00    +0.000 NA
ATOM      3  C   UNL     1       4.307   6.463  16.875  0.00  0.00    +0.000 A 
ATOM      4  C   UNL     1       4.052   7.850  17.020  0.00  0.00    +0.000 A 
ATOM      5  C   UNL     1       3.259   8.283  18.012  0.00  0.00    +0.000 A 
ATOM      6  C   UNL     1       2.568   7.349  18.892  0.00  0.00    +0.000 A 
ATOM      7  C   UNL     1       2.881   6.035  18.807  0.00  0.00    +0.000 A 
ATOM      8  N   UNL     1       3.744   5.579  17.796  0.00  0.00    +0.000 N 
ATOM      9  C   UNL     1       4.249   4.301  17.478  0.00  0.00    +0.000 A 
ENDROOT
BRANCH   6  10
ATOM     10  C   UNL     1       1.631   7.806  19.974  0.00  0.00    +0.000 C 
ATOM     11  O   UNL     1       1.329   7.024  20.879  0.00  0.00    +0.000 OA
ATOM     12  N   UNL     1       1.159   9.119  19.940  0.00  0.00    +0.000 N 
ATOM     13  C   UNL     1       0.382   9.549  21.108  0.00  0.00    +0.000 C 
ATOM     14  C   UNL     1       0.256  11.083  21.219  0.00  0.00    +0.000 C 
ATOM     15  N   UNL     1      -0.170  11.768  19.982  0.00  0.00    +0.000 NA
ATOM     16  C   UNL     1      -1.581  11.525  19.685  0.00  0.00    +0.000 C 
ATOM     17  C   UNL     1       0.698  11.338  18.867  0.00  0.00    +0.000 C 
ATOM     18  C   UNL     1       0.792   9.808  18.690  0.00  0.00    +0.000 C 
ENDBRANCH   6  10
BRANCH   1  20
ATOM     19  C   UNL     1       6.483   4.259  14.287  0.00  0.00    +0.000 C 
ATOM     20  C   UNL     1       5.800   3.581  15.471  0.00  0.00    +0.000 C 
ENDBRANCH   1  20
BRANCH   9  21
ATOM     21  N   UNL     1       4.017   3.155  18.210  0.00  0.00    +0.000 N 
ATOM     22  C   UNL     1       3.566   1.905  17.603  0.00  0.00    +0.000 C 
BRANCH  21  23
ATOM     23  C   UNL     1       4.308   3.080  19.650  0.00  0.00    +0.000 C 
BRANCH  23  24
ATOM     24  C   UNL     1       3.228   2.332  20.440  0.00  0.00    +0.000 C 
BRANCH  24  25
ATOM     25  C   UNL     1       1.985   3.165  20.808  0.00  0.00    +0.000 C 
ATOM     26  C   UNL     1       0.889   3.097  19.745  0.00  0.00    +0.000 C 
ATOM     27  C   UNL     1       1.427   2.683  22.150  0.00  0.00    +0.000 C 
ENDBRANCH  24  25
ENDBRANCH  23  24
ENDBRANCH  21  23
ENDBRANCH   9  21
TORSDOF 6
ENDMDL
MODEL 4
REMARK VINA RESULT:      -6.7      1.722      2.907
REMARK  Name = 
REMARK  11 active torsions:
REMARK  status: ('A' for Active; 'I' for Inactive)
REMARK    1  A    between atoms: C_1  and  C_2
REMARK    2  A    between atoms: C_2  and  C_3
REMARK    3  A    between atoms: C_8  and  C_9
REMARK    4  A    between atoms: N_14  and  C_15
REMARK    5  A    between atoms: C_20  and  N_21
REMARK    6  A    between atoms: N_21  and  C_22
REMARK    7  A    between atoms: N_21  and  C_23
REMARK    8  A    between atoms: C_23  and  C_24
REMARK    9  A    between atoms: C_24  and  C_25
REMARK   10  A    between atoms: C_25  and  C_26
REMARK   11  A    between atoms: C_25  and  C_27
REMARK                            x       y       z     vdW  Elec       q    Type
REMARK                         _______ _______ _______ _____ _____    ______ ____
ROOT
ATOM      1  C   UNL     1       3.488   6.681  17.652  0.00  0.00    +0.000 A 
ATOM      2  N   UNL     1       3.148   7.914  17.163  0.00  0.00    +0.000 NA
ATOM      3  C   UNL     1       2.439   8.490  18.092  0.00  0.00    +0.000 A 
ATOM      4  C   UNL     1       1.899   9.800  18.119  0.00  0.00    +0.000 A 
ATOM      5  C   UNL     1       1.204  10.213  19.190  0.00  0.00    +0.000 A 
ATOM      6  C   UNL     1       0.905   9.311  20.294  0.00  0.00    +0.000 A 
ATOM      7  C   UNL     1       1.493   8.093  20.305  0.00  0.00    +0.000 A 
ATOM      8  N   UNL     1       2.257   7.667  19.205  0.00  0.00    +0.000 N 
ATOM      9  C   UNL     1       2.983   6.486  18.947  0.00  0.00    +0.000 A 
ENDROOT
BRANCH   6  10
ATOM     10  C   UNL     1       0.080   9.732  21.477  0.00  0.00    +0.000 C 
ATOM     11  O   UNL     1       0.058   9.016  22.481  0.00  0.00    +0.000 OA
ATOM     12  N   UNL     1      -0.605  10.946  21.417  0.00  0.00    +0.000 N 
ATOM     13  C   UNL     1      -1.256  11.376  22.660  0.00  0.00    +0.000 C 
ATOM     14  C   UNL     1      -1.620  12.875  22.666  0.00  0.00    +0.000 C 
ATOM     15  N   UNL     1      -2.340  13.350  21.467  0.00  0.00    +0.000 NA
ATOM     16  C   UNL     1      -3.719  12.862  21.434  0.00  0.00    +0.000 C 
ATOM     17  C   UNL     1      -1.594  12.940  20.260  0.00  0.00    +0.000 C 
ATOM     18  C   UNL     1      -1.271  11.432  20.195  0.00  0.00    +0.000 C 
ENDBRANCH   6  10
BRANCH   1  20
ATOM     19  C   UNL     1       5.140   6.546  15.748  0.00  0.00    +0.000 C 
ATOM     20  C   UNL     1       4.301   5.788  16.773  0.00  0.00    +0.000 C 
ENDBRANCH   1  20
BRANCH   9  21
ATOM     21  N   UNL     1       3.147   5.449  19.841  0.00  0.00    +0.000 N 
ATOM     22  C   UNL     1       4.379   4.669  19.932  0.00  0.00    +0.000 C 
BRANCH  21  23
ATOM     23  C   UNL     1       2.124   5.118  20.845  0.00  0.00    +0.000 C 
BRANCH  23  24
ATOM     24  C   UNL     1       0.955   4.314  20.265  0.00  0.00    +0.000 C 
BRANCH  24  25
ATOM     25  C   UNL     1       1.061   2.785  20.429  0.00  0.00    +0.000 C 
ATOM     26  C   UNL     1       1.719   2.104  19.228  0.00  0.00    +0.000 C 
ATOM     27  C   UNL     1       1.853   2.461  21.699  0.00  0.00    +0.000 C 
ENDBRANCH  24  25
ENDBRANCH  23  24
ENDBRANCH  21  23
ENDBRANCH   9  21
TORSDOF 6
ENDMDL
MODEL 5
REMARK VINA RESULT:      -6.7      1.980      4.271
REMARK  Name = 
REMARK  11 active torsions:
REMARK  status: ('A' for Active; 'I' for Inactive)
REMARK    1  A    between atoms: C_1  and  C_2
REMARK    2  A    between atoms: C_2  and  C_3
REMARK    3  A    between atoms: C_8  and  C_9
REMARK    4  A    between atoms: N_14  and  C_15
REMARK    5  A    between atoms: C_20  and  N_21
REMARK    6  A    between atoms: N_21  and  C_22
REMARK    7  A    between atoms: N_21  and  C_23
REMARK    8  A    between atoms: C_23  and  C_24
REMARK    9  A    between atoms: C_24  and  C_25
REMARK   10  A    between atoms: C_25  and  C_26
REMARK   11  A    between atoms: C_25  and  C_27
REMARK                            x       y       z     vdW  Elec       q    Type
REMARK                         _______ _______ _______ _____ _____    ______ ____
ROOT
ATOM      1  C   UNL     1       3.736   4.163  19.471  0.00  0.00    +0.000 A 
ATOM      2  N   UNL     1       2.865   4.515  20.468  0.00  0.00    +0.000 NA
ATOM      3  C   UNL     1       2.440   5.710  20.173  0.00  0.00    +0.000 A 
ATOM      4  C   UNL     1       1.474   6.503  20.841  0.00  0.00    +0.000 A 
ATOM      5  C   UNL     1       1.159   7.716  20.361  0.00  0.00    +0.000 A 
ATOM      6  C   UNL     1       1.860   8.284  19.216  0.00  0.00    +0.000 A 
ATOM      7  C   UNL     1       2.716   7.492  18.531  0.00  0.00    +0.000 A 
ATOM      8  N   UNL     1       3.021   6.204  19.004  0.00  0.00    +0.000 N 
ATOM      9  C   UNL     1       3.845   5.175  18.505  0.00  0.00    +0.000 A 
ENDROOT
BRANCH   6  10
ATOM     10  C   UNL     1       1.565   9.662  18.695  0.00  0.00    +0.000 C 
ATOM     11  O   UNL     1       1.976   9.983  17.577  0.00  0.00    +0.000 OA
ATOM     12  N   UNL     1       0.800  10.525  19.480  0.00  0.00    +0.000 N 
ATOM     13  C   UNL     1       0.412  11.791  18.847  0.00  0.00    +0.000 C 
ATOM     14  C   UNL     1      -0.754  12.497  19.570  0.00  0.00    +0.000 C 
ATOM     15  N   UNL     1      -0.597  12.630  21.033  0.00  0.00    +0.000 NA
ATOM     16  C   UNL     1       0.417  13.625  21.381  0.00  0.00    +0.000 C 
ATOM     17  C   UNL     1      -0.275  11.307  21.607  0.00  0.00    +0.000 C 
ATOM     18  C   UNL     1       0.930  10.605  20.946  0.00  0.00    +0.000 C 
ENDBRANCH   6  10
BRANCH   1  20
ATOM     19  C   UNL     1       3.631   1.720  18.842  0.00  0.00    +0.000 C 
ATOM     20  C   UNL     1       4.394   2.826  19.567  0.00  0.00    +0.000 C 
ENDBRANCH   1  20
BRANCH   9  21
ATOM     21  N   UNL     1       4.526   5.220  17.306  0.00  0.00    +0.000 N 
ATOM     22  C   UNL     1       4.424   4.167  16.298  0.00  0.00    +0.000 C 
BRANCH  21  23
ATOM     23  C   UNL     1       5.329   6.387  16.911  0.00  0.00    +0.000 C 
BRANCH  23  24
ATOM     24  C   UNL     1       6.798   6.040  16.645  0.00  0.00    +0.000 C 
BRANCH  24  25
ATOM     25  C   UNL     1       7.804   6.610  17.664  0.00  0.00    +0.000 C 
ATOM     26  C   UNL     1       7.736   8.133  17.777  0.00  0.00    +0.000 C 
ATOM     27  C   UNL     1       7.550   5.983  19.039  0.00  0.00    +0.000 C 
ENDBRANCH  24  25
ENDBRANCH  23  24
ENDBRANCH  21  23
ENDBRANCH   9  21
TORSDOF 6
ENDMDL
MODEL 6
REMARK VINA RESULT:      -6.6      1.718      4.151
REMARK  Name = 
REMARK  11 active torsions:
REMARK  status: ('A' for Active; 'I' for Inactive)
REMARK    1  A    between atoms: C_1  and  C_2
REMARK    2  A    between atoms: C_2  and  C_3
REMARK    3  A    between atoms: C_8  and  C_9
REMARK    4  A    between atoms: N_14  and  C_15
REMARK    5  A    between atoms: C_20  and  N_21
REMARK    6  A    between atoms: N_21  and  C_22
REMARK    7  A    between atoms: N_21  and  C_23
REMARK    8  A    between atoms: C_23  and  C_24
REMARK    9  A    between atoms: C_24  and  C_25
REMARK   10  A    between atoms: C_25  and  C_26
REMARK   11  A    between atoms: C_25  and  C_27
REMARK                            x       y       z     vdW  Elec       q    Type
REMARK                         _______ _______ _______ _____ _____    ______ ____
ROOT
ATOM      1  C   UNL     1       3.903   3.557  19.597  0.00  0.00    +0.000 A 
ATOM      2  N   UNL     1       2.905   3.880  20.477  0.00  0.00    +0.000 NA
ATOM      3  C   UNL     1       2.521   5.084  20.165  0.00  0.00    +0.000 A 
ATOM      4  C   UNL     1       1.472   5.858  20.720  0.00  0.00    +0.000 A 
ATOM      5  C   UNL     1       1.222   7.086  20.241  0.00  0.00    +0.000 A 
ATOM      6  C   UNL     1       2.071   7.689  19.221  0.00  0.00    +0.000 A 
ATOM      7  C   UNL     1       3.014   6.917  18.633  0.00  0.00    +0.000 A 
ATOM      8  N   UNL     1       3.254   5.614  19.102  0.00  0.00    +0.000 N 
ATOM      9  C   UNL     1       4.140   4.599  18.687  0.00  0.00    +0.000 A 
ENDROOT
BRANCH   6  10
ATOM     10  C   UNL     1       1.847   9.083  18.708  0.00  0.00    +0.000 C 
ATOM     11  O   UNL     1       2.398   9.436  17.662  0.00  0.00    +0.000 OA
ATOM     12  N   UNL     1       0.988   9.926  19.415  0.00  0.00    +0.000 N 
ATOM     13  C   UNL     1       0.686  11.212  18.776  0.00  0.00    +0.000 C 
ATOM     14  C   UNL     1      -0.562  11.902  19.365  0.00  0.00    +0.000 C 
ATOM     15  N   UNL     1      -0.593  11.990  20.839  0.00  0.00    +0.000 NA
ATOM     16  C   UNL     1       0.369  12.969  21.344  0.00  0.00    +0.000 C 
ATOM     17  C   UNL     1      -0.349  10.650  21.410  0.00  0.00    +0.000 C 
ATOM     18  C   UNL     1       0.930   9.961  20.887  0.00  0.00    +0.000 C 
ENDBRANCH   6  10
BRANCH   1  20
ATOM     19  C   UNL     1       3.985   1.170  18.779  0.00  0.00    +0.000 C 
ATOM     20  C   UNL     1       4.545   2.216  19.739  0.00  0.00    +0.000 C 
ENDBRANCH   1  20
BRANCH   9  21
ATOM     21  N   UNL     1       4.978   4.680  17.594  0.00  0.00    +0.000 N 
ATOM     22  C   UNL     1       6.254   5.390  17.625  0.00  0.00    +0.000 C 
BRANCH  21  23
ATOM     23  C   UNL     1       4.692   3.967  16.340  0.00  0.00    +0.000 C 
BRANCH  23  24
ATOM     24  C   UNL     1       5.148   4.737  15.096  0.00  0.00    +0.000 C 
BRANCH  24  25
ATOM     25  C   UNL     1       6.191   4.016  14.220  0.00  0.00    +0.000 C 
ATOM     26  C   UNL     1       5.615   3.533  12.888  0.00  0.00    +0.000 C 
ATOM     27  C   UNL     1       7.373   4.953  13.957  0.00  0.00    +0.000 C 
ENDBRANCH  24  25
ENDBRANCH  23  24
ENDBRANCH  21  23
ENDBRANCH   9  21
TORSDOF 6
ENDMDL
MODEL 7
REMARK VINA RESULT:      -6.6      2.339      8.571
REMARK  Name = 
REMARK  11 active torsions:
REMARK  status: ('A' for Active; 'I' for Inactive)
REMARK    1  A    between atoms: C_1  and  C_2
REMARK    2  A    between atoms: C_2  and  C_3
REMARK    3  A    between atoms: C_8  and  C_9
REMARK    4  A    between atoms: N_14  and  C_15
REMARK    5  A    between atoms: C_20  and  N_21
REMARK    6  A    between atoms: N_21  and  C_22
REMARK    7  A    between atoms: N_21  and  C_23
REMARK    8  A    between atoms: C_23  and  C_24
REMARK    9  A    between atoms: C_24  and  C_25
REMARK   10  A    between atoms: C_25  and  C_26
REMARK   11  A    between atoms: C_25  and  C_27
REMARK                            x       y       z     vdW  Elec       q    Type
REMARK                         _______ _______ _______ _____ _____    ______ ____
ROOT
ATOM      1  C   UNL     1      -0.837  11.759  21.459  0.00  0.00    +0.000 A 
ATOM      2  N   UNL     1      -0.285  11.005  22.459  0.00  0.00    +0.000 NA
ATOM      3  C   UNL     1       0.408  10.073  21.870  0.00  0.00    +0.000 A 
ATOM      4  C   UNL     1       1.229   9.072  22.447  0.00  0.00    +0.000 A 
ATOM      5  C   UNL     1       1.880   8.205  21.657  0.00  0.00    +0.000 A 
ATOM      6  C   UNL     1       1.687   8.204  20.212  0.00  0.00    +0.000 A 
ATOM      7  C   UNL     1       0.974   9.212  19.660  0.00  0.00    +0.000 A 
ATOM      8  N   UNL     1       0.322  10.149  20.479  0.00  0.00    +0.000 N 
ATOM      9  C   UNL     1      -0.461  11.287  20.193  0.00  0.00    +0.000 A 
ENDROOT
BRANCH   6  10
ATOM     10  C   UNL     1       2.360   7.208  19.311  0.00  0.00    +0.000 C 
ATOM     11  O   UNL     1       2.777   7.577  18.210  0.00  0.00    +0.000 OA
ATOM     12  N   UNL     1       2.527   5.899  19.767  0.00  0.00    +0.000 N 
ATOM     13  C   UNL     1       3.333   5.022  18.910  0.00  0.00    +0.000 C 
ATOM     14  C   UNL     1       3.836   3.759  19.639  0.00  0.00    +0.000 C 
ATOM     15  N   UNL     1       2.802   3.013  20.386  0.00  0.00    +0.000 NA
ATOM     16  C   UNL     1       1.885   2.311  19.488  0.00  0.00    +0.000 C 
ATOM     17  C   UNL     1       2.078   3.946  21.274  0.00  0.00    +0.000 C 
ATOM     18  C   UNL     1       1.508   5.189  20.559  0.00  0.00    +0.000 C 
ENDBRANCH   6  10
BRANCH   1  20
ATOM     19  C   UNL     1      -1.076  13.808  22.914  0.00  0.00    +0.000 C 
ATOM     20  C   UNL     1      -1.707  12.907  21.857  0.00  0.00    +0.000 C 
ENDBRANCH   1  20
BRANCH   9  21
ATOM     21  N   UNL     1      -0.706  11.778  18.927  0.00  0.00    +0.000 N 
ATOM     22  C   UNL     1      -0.239  13.089  18.483  0.00  0.00    +0.000 C 
BRANCH  21  23
ATOM     23  C   UNL     1      -1.371  10.969  17.894  0.00  0.00    +0.000 C 
BRANCH  23  24
ATOM     24  C   UNL     1      -2.595  11.663  17.288  0.00  0.00    +0.000 C 
BRANCH  24  25
ATOM     25  C   UNL     1      -3.745  10.726  16.871  0.00  0.00    +0.000 C 
ATOM     26  C   UNL     1      -5.126  11.344  17.094  0.00  0.00    +0.000 C 
ATOM     27  C   UNL     1      -3.586  10.347  15.395  0.00  0.00    +0.000 C 
ENDBRANCH  24  25
ENDBRANCH  23  24
ENDBRANCH  21  23
ENDBRANCH   9  21
TORSDOF 6
ENDMDL
MODEL 8
REMARK VINA RESULT:      -6.6      1.967      4.243
REMARK  Name = 
REMARK  11 active torsions:
REMARK  status: ('A' for Active; 'I' for Inactive)
REMARK    1  A    between atoms: C_1  and  C_2
REMARK    2  A    between atoms: C_2  and  C_3
REMARK    3  A    between atoms: C_8  and  C_9
REMARK    4  A    between atoms: N_14  and  C_15
REMARK    5  A    between atoms: C_20  and  N_21
REMARK    6  A    between atoms: N_21  and  C_22
REMARK    7  A    between atoms: N_21  and  C_23
REMARK    8  A    between atoms: C_23  and  C_24
REMARK    9  A    between atoms: C_24  and  C_25
REMARK   10  A    between atoms: C_25  and  C_26
REMARK   11  A    between atoms: C_25  and  C_27
REMARK                            x       y       z     vdW  Elec       q    Type
REMARK                         _______ _______ _______ _____ _____    ______ ____
ROOT
ATOM      1  C   UNL     1       4.051   3.016  19.483  0.00  0.00    +0.000 A 
ATOM      2  N   UNL     1       3.116   3.378  20.416  0.00  0.00    +0.000 NA
ATOM      3  C   UNL     1       2.725   4.577  20.092  0.00  0.00    +0.000 A 
ATOM      4  C   UNL     1       1.723   5.381  20.690  0.00  0.00    +0.000 A 
ATOM      5  C   UNL     1       1.456   6.597  20.190  0.00  0.00    +0.000 A 
ATOM      6  C   UNL     1       2.243   7.157  19.099  0.00  0.00    +0.000 A 
ATOM      7  C   UNL     1       3.138   6.356  18.476  0.00  0.00    +0.000 A 
ATOM      8  N   UNL     1       3.394   5.065  18.968  0.00  0.00    +0.000 N 
ATOM      9  C   UNL     1       4.240   4.027  18.528  0.00  0.00    +0.000 A 
ENDROOT
BRANCH   6  10
ATOM     10  C   UNL     1       2.002   8.539  18.559  0.00  0.00    +0.000 C 
ATOM     11  O   UNL     1       2.526   8.868  17.492  0.00  0.00    +0.000 OA
ATOM     12  N   UNL     1       1.158   9.395  19.266  0.00  0.00    +0.000 N 
ATOM     13  C   UNL     1       0.835  10.665  18.605  0.00  0.00    +0.000 C 
ATOM     14  C   UNL     1      -0.401  11.364  19.207  0.00  0.00    +0.000 C 
ATOM     15  N   UNL     1      -0.396  11.488  20.679  0.00  0.00    +0.000 NA
ATOM     16  C   UNL     1       0.574  12.482  21.137  0.00  0.00    +0.000 C 
ATOM     17  C   UNL     1      -0.133  10.162  21.275  0.00  0.00    +0.000 C 
ATOM     18  C   UNL     1       1.135   9.465  20.738  0.00  0.00    +0.000 C 
ENDBRANCH   6  10
BRANCH   1  20
ATOM     19  C   UNL     1       5.168   1.374  21.042  0.00  0.00    +0.000 C 
ATOM     20  C   UNL     1       4.686   1.672  19.625  0.00  0.00    +0.000 C 
ENDBRANCH   1  20
BRANCH   9  21
ATOM     21  N   UNL     1       5.006   4.064  17.382  0.00  0.00    +0.000 N 
ATOM     22  C   UNL     1       4.449   3.837  16.050  0.00  0.00    +0.000 C 
BRANCH  21  23
ATOM     23  C   UNL     1       6.428   4.439  17.407  0.00  0.00    +0.000 C 
BRANCH  23  24
ATOM     24  C   UNL     1       6.668   5.903  17.021  0.00  0.00    +0.000 C 
BRANCH  24  25
ATOM     25  C   UNL     1       7.142   6.817  18.167  0.00  0.00    +0.000 C 
ATOM     26  C   UNL     1       8.043   6.094  19.169  0.00  0.00    +0.000 C 
ATOM     27  C   UNL     1       7.888   8.021  17.585  0.00  0.00    +0.000 C 
ENDBRANCH  24  25
ENDBRANCH  23  24
ENDBRANCH  21  23
ENDBRANCH   9  21
TORSDOF 6
ENDMDL
MODEL 9
REMARK VINA RESULT:      -6.5      2.154      8.926
REMARK  Name = 
REMARK  11 active torsions:
REMARK  status: ('A' for Active; 'I' for Inactive)
REMARK    1  A    between atoms: C_1  and  C_2
REMARK    2  A    between atoms: C_2  and  C_3
REMARK    3  A    between atoms: C_8  and  C_9
REMARK    4  A    between atoms: N_14  and  C_15
REMARK    5  A    between atoms: C_20  and  N_21
REMARK    6  A    between atoms: N_21  and  C_22
REMARK    7  A    between atoms: N_21  and  C_23
REMARK    8  A    between atoms: C_23  and  C_24
REMARK    9  A    between atoms: C_24  and  C_25
REMARK   10  A    between atoms: C_25  and  C_26
REMARK   11  A    between atoms: C_25  and  C_27
REMARK                            x       y       z     vdW  Elec       q    Type
REMARK                         _______ _______ _______ _____ _____    ______ ____
ROOT
ATOM      1  C   UNL     1      -1.079  11.410  21.260  0.00  0.00    +0.000 A 
ATOM      2  N   UNL     1      -0.595  10.405  22.054  0.00  0.00    +0.000 NA
ATOM      3  C   UNL     1       0.199   9.699  21.301  0.00  0.00    +0.000 A 
ATOM      4  C   UNL     1       1.006   8.587  21.652  0.00  0.00    +0.000 A 
ATOM      5  C   UNL     1       1.776   8.002  20.722  0.00  0.00    +0.000 A 
ATOM      6  C   UNL     1       1.733   8.423  19.327  0.00  0.00    +0.000 A 
ATOM      7  C   UNL     1       1.031   9.536  19.014  0.00  0.00    +0.000 A 
ATOM      8  N   UNL     1       0.253  10.179  19.992  0.00  0.00    +0.000 N 
ATOM      9  C   UNL     1      -0.551  11.337  19.962  0.00  0.00    +0.000 A 
ENDROOT
BRANCH   6  10
ATOM     10  C   UNL     1       2.543   7.747  18.257  0.00  0.00    +0.000 C 
ATOM     11  O   UNL     1       2.777   8.351  17.208  0.00  0.00    +0.000 OA
ATOM     12  N   UNL     1       3.040   6.466  18.503  0.00  0.00    +0.000 N 
ATOM     13  C   UNL     1       3.956   5.931  17.489  0.00  0.00    +0.000 C 
ATOM     14  C   UNL     1       4.789   4.736  17.996  0.00  0.00    +0.000 C 
ATOM     15  N   UNL     1       4.014   3.671  18.666  0.00  0.00    +0.000 NA
ATOM     16  C   UNL     1       3.215   2.901  17.714  0.00  0.00    +0.000 C 
ATOM     17  C   UNL     1       3.169   4.275  19.716  0.00  0.00    +0.000 C 
ATOM     18  C   UNL     1       2.276   5.433  19.223  0.00  0.00    +0.000 C 
ENDBRANCH   6  10
BRANCH   1  20
ATOM     19  C   UNL     1      -2.517  11.957  23.261  0.00  0.00    +0.000 C 
ATOM     20  C   UNL     1      -2.040  12.375  21.873  0.00  0.00    +0.000 C 
ENDBRANCH   1  20
BRANCH   9  21
ATOM     21  N   UNL     1      -0.689  12.175  18.874  0.00  0.00    +0.000 N 
ATOM     22  C   UNL     1      -1.659  11.934  17.808  0.00  0.00    +0.000 C 
BRANCH  21  23
ATOM     23  C   UNL     1       0.063  13.433  18.760  0.00  0.00    +0.000 C 
BRANCH  23  24
ATOM     24  C   UNL     1       1.559  13.215  18.511  0.00  0.00    +0.000 C 
BRANCH  24  25
ATOM     25  C   UNL     1       2.375  14.493  18.236  0.00  0.00    +0.000 C 
ATOM     26  C   UNL     1       1.650  15.766  18.676  0.00  0.00    +0.000 C 
ATOM     27  C   UNL     1       3.726  14.401  18.950  0.00  0.00    +0.000 C 
ENDBRANCH  24  25
ENDBRANCH  23  24
ENDBRANCH  21  23
ENDBRANCH   9  21
TORSDOF 6
ENDMDL
