MODEL 1
REMARK VINA RESULT:      -7.2      0.000      0.000
REMARK  Name = 
REMARK  3 active torsions:
REMARK  status: ('A' for Active; 'I' for Inactive)
REMARK    1  A    between atoms: C_2  and  C_3
REMARK    2  A    between atoms: C_2  and  C_12
REMARK    3  A    between atoms: C_3  and  C_5
REMARK                            x       y       z     vdW  Elec       q    Type
REMARK                         _______ _______ _______ _____ _____    ______ ____
ROOT
ATOM      1  O   UNL     1       3.885   2.192  18.237  0.00  0.00    +0.000 OA
ATOM      2  C   UNL     1       3.849   3.297  17.717  0.00  0.00    +0.000 C 
ENDROOT
BRANCH   2   3
ATOM      3  C   UNL     1       4.995   3.963  17.021  0.00  0.00    +0.000 A 
ATOM      4  C   UNL     1       5.144   3.788  15.630  0.00  0.00    +0.000 A 
ATOM      5  C   UNL     1       6.178   4.415  14.931  0.00  0.00    +0.000 A 
ATOM      6  C   UNL     1       7.084   5.222  15.606  0.00  0.00    +0.000 A 
ATOM      7  C   UNL     1       6.953   5.403  16.983  0.00  0.00    +0.000 A 
ATOM      8  C   UNL     1       5.915   4.782  17.694  0.00  0.00    +0.000 A 
ATOM      9 CL   UNL     1       5.863   5.118  19.389  0.00  0.00    +0.000 Cl
ENDBRANCH   2   3
BRANCH   2  10
ATOM     10  C   UNL     1       2.530   4.015  17.781  0.00  0.00    +0.000 C 
ATOM     11  O   UNL     1       1.638   3.584  17.053  0.00  0.00    +0.000 OA
BRANCH  10  12
ATOM     12  C   UNL     1       2.303   5.203  18.651  0.00  0.00    +0.000 A 
ATOM     13  C   UNL     1       2.549   6.452  18.040  0.00  0.00    +0.000 A 
ATOM     14  C   UNL     1       2.387   7.648  18.741  0.00  0.00    +0.000 A 
ATOM     15  C   UNL     1       1.968   7.620  20.065  0.00  0.00    +0.000 A 
ATOM     16  C   UNL     1       1.731   6.396  20.687  0.00  0.00    +0.000 A 
ATOM     17  C   UNL     1       1.905   5.186  19.995  0.00  0.00    +0.000 A 
ATOM     18 CL   UNL     1       1.652   3.762  20.936  0.00  0.00    +0.000 Cl
ENDBRANCH  10  12
ENDBRANCH   2  10
TORSDOF 3
ENDMDL
MODEL 2
REMARK VINA RESULT:      -7.1      2.295      5.652
REMARK  Name = 
REMARK  3 active torsions:
REMARK  status: ('A' for Active; 'I' for Inactive)
REMARK    1  A    between atoms: C_2  and  C_3
REMARK    2  A    between atoms: C_2  and  C_12
REMARK    3  A    between atoms: C_3  and  C_5
REMARK                            x       y       z     vdW  Elec       q    Type
REMARK                         _______ _______ _______ _____ _____    ______ ____
ROOT
ATOM      1  O   UNL     1       5.677   4.156  19.557  0.00  0.00    +0.000 OA
ATOM      2  C   UNL     1       4.621   4.471  19.031  0.00  0.00    +0.000 C 
ENDROOT
BRANCH   2   3
ATOM      3  C   UNL     1       3.270   3.967  19.433  0.00  0.00    +0.000 A 
ATOM      4  C   UNL     1       2.466   4.766  20.272  0.00  0.00    +0.000 A 
ATOM      5  C   UNL     1       1.185   4.354  20.649  0.00  0.00    +0.000 A 
ATOM      6  C   UNL     1       0.687   3.137  20.202  0.00  0.00    +0.000 A 
ATOM      7  C   UNL     1       1.470   2.333  19.375  0.00  0.00    +0.000 A 
ATOM      8  C   UNL     1       2.757   2.740  18.986  0.00  0.00    +0.000 A 
ATOM      9 CL   UNL     1       3.600   1.653  17.940  0.00  0.00    +0.000 Cl
ENDBRANCH   2   3
BRANCH   2  10
ATOM     10  C   UNL     1       4.714   5.458  17.901  0.00  0.00    +0.000 C 
ATOM     11  O   UNL     1       4.079   6.502  18.036  0.00  0.00    +0.000 OA
BRANCH  10  12
ATOM     12  C   UNL     1       5.503   5.194  16.665  0.00  0.00    +0.000 A 
ATOM     13  C   UNL     1       4.945   4.239  15.788  0.00  0.00    +0.000 A 
ATOM     14  C   UNL     1       5.581   3.886  14.597  0.00  0.00    +0.000 A 
ATOM     15  C   UNL     1       6.786   4.487  14.255  0.00  0.00    +0.000 A 
ATOM     16  C   UNL     1       7.357   5.424  15.115  0.00  0.00    +0.000 A 
ATOM     17  C   UNL     1       6.731   5.775  16.322  0.00  0.00    +0.000 A 
ATOM     18 CL   UNL     1       7.612   6.885  17.307  0.00  0.00    +0.000 Cl
ENDBRANCH  10  12
ENDBRANCH   2  10
TORSDOF 3
ENDMDL
MODEL 3
REMARK VINA RESULT:      -7.0      1.279      1.866
REMARK  Name = 
REMARK  3 active torsions:
REMARK  status: ('A' for Active; 'I' for Inactive)
REMARK    1  A    between atoms: C_2  and  C_3
REMARK    2  A    between atoms: C_2  and  C_12
REMARK    3  A    between atoms: C_3  and  C_5
REMARK                            x       y       z     vdW  Elec       q    Type
REMARK                         _______ _______ _______ _____ _____    ______ ____
ROOT
ATOM      1  O   UNL     1       3.965   2.320  18.039  0.00  0.00    +0.000 OA
ATOM      2  C   UNL     1       3.981   3.541  17.999  0.00  0.00    +0.000 C 
ENDROOT
BRANCH   2   3
ATOM      3  C   UNL     1       5.214   4.390  17.966  0.00  0.00    +0.000 A 
ATOM      4  C   UNL     1       5.773   4.829  19.184  0.00  0.00    +0.000 A 
ATOM      5  C   UNL     1       6.940   5.596  19.206  0.00  0.00    +0.000 A 
ATOM      6  C   UNL     1       7.567   5.943  18.016  0.00  0.00    +0.000 A 
ATOM      7  C   UNL     1       7.026   5.520  16.803  0.00  0.00    +0.000 A 
ATOM      8  C   UNL     1       5.856   4.745  16.769  0.00  0.00    +0.000 A 
ATOM      9 CL   UNL     1       5.316   4.273  15.196  0.00  0.00    +0.000 Cl
ENDBRANCH   2   3
BRANCH   2  10
ATOM     10  C   UNL     1       2.640   4.219  17.964  0.00  0.00    +0.000 C 
ATOM     11  O   UNL     1       1.793   3.715  17.228  0.00  0.00    +0.000 OA
BRANCH  10  12
ATOM     12  C   UNL     1       2.340   5.449  18.747  0.00  0.00    +0.000 A 
ATOM     13  C   UNL     1       2.501   6.664  18.046  0.00  0.00    +0.000 A 
ATOM     14  C   UNL     1       2.264   7.895  18.659  0.00  0.00    +0.000 A 
ATOM     15  C   UNL     1       1.855   7.936  19.985  0.00  0.00    +0.000 A 
ATOM     16  C   UNL     1       1.701   6.748  20.697  0.00  0.00    +0.000 A 
ATOM     17  C   UNL     1       1.951   5.505  20.093  0.00  0.00    +0.000 A 
ATOM     18 CL   UNL     1       1.797   4.140  21.137  0.00  0.00    +0.000 Cl
ENDBRANCH  10  12
ENDBRANCH   2  10
TORSDOF 3
ENDMDL
MODEL 4
REMARK VINA RESULT:      -7.0      2.233      3.046
REMARK  Name = 
REMARK  3 active torsions:
REMARK  status: ('A' for Active; 'I' for Inactive)
REMARK    1  A    between atoms: C_2  and  C_3
REMARK    2  A    between atoms: C_2  and  C_12
REMARK    3  A    between atoms: C_3  and  C_5
REMARK                            x       y       z     vdW  Elec       q    Type
REMARK                         _______ _______ _______ _____ _____    ______ ____
ROOT
ATOM      1  O   UNL     1       3.822   6.961  17.688  0.00  0.00    +0.000 OA
ATOM      2  C   UNL     1       4.458   5.919  17.714  0.00  0.00    +0.000 C 
ENDROOT
BRANCH   2   3
ATOM      3  C   UNL     1       5.337   5.414  16.611  0.00  0.00    +0.000 A 
ATOM      4  C   UNL     1       4.780   4.577  15.623  0.00  0.00    +0.000 A 
ATOM      5  C   UNL     1       5.551   4.107  14.558  0.00  0.00    +0.000 A 
ATOM      6  C   UNL     1       6.891   4.458  14.462  0.00  0.00    +0.000 A 
ATOM      7  C   UNL     1       7.459   5.281  15.433  0.00  0.00    +0.000 A 
ATOM      8  C   UNL     1       6.692   5.763  16.506  0.00  0.00    +0.000 A 
ATOM      9 CL   UNL     1       7.524   6.794  17.616  0.00  0.00    +0.000 Cl
ENDBRANCH   2   3
BRANCH   2  10
ATOM     10  C   UNL     1       4.344   5.106  18.973  0.00  0.00    +0.000 C 
ATOM     11  O   UNL     1       5.333   5.090  19.703  0.00  0.00    +0.000 OA
BRANCH  10  12
ATOM     12  C   UNL     1       3.120   4.332  19.323  0.00  0.00    +0.000 A 
ATOM     13  C   UNL     1       2.225   4.986  20.196  0.00  0.00    +0.000 A 
ATOM     14  C   UNL     1       1.042   4.375  20.616  0.00  0.00    +0.000 A 
ATOM     15  C   UNL     1       0.727   3.101  20.164  0.00  0.00    +0.000 A 
ATOM     16  C   UNL     1       1.604   2.436  19.309  0.00  0.00    +0.000 A 
ATOM     17  C   UNL     1       2.804   3.036  18.893  0.00  0.00    +0.000 A 
ATOM     18 CL   UNL     1       3.814   2.045  17.906  0.00  0.00    +0.000 Cl
ENDBRANCH  10  12
ENDBRANCH   2  10
TORSDOF 3
ENDMDL
MODEL 5
REMARK VINA RESULT:      -7.0      1.945      2.722
REMARK  Name = 
REMARK  3 active torsions:
REMARK  status: ('A' for Active; 'I' for Inactive)
REMARK    1  A    between atoms: C_2  and  C_3
REMARK    2  A    between atoms: C_2  and  C_12
REMARK    3  A    between atoms: C_3  and  C_5
REMARK                            x       y       z     vdW  Elec       q    Type
REMARK                         _______ _______ _______ _____ _____    ______ ____
ROOT
ATOM      1  O   UNL     1       5.756   4.320  19.160  0.00  0.00    +0.000 OA
ATOM      2  C   UNL     1       5.217   4.722  18.140  0.00  0.00    +0.000 C 
ENDROOT
BRANCH   2   3
ATOM      3  C   UNL     1       5.836   4.721  16.777  0.00  0.00    +0.000 A 
ATOM      4  C   UNL     1       5.368   3.802  15.815  0.00  0.00    +0.000 A 
ATOM      5  C   UNL     1       5.891   3.783  14.521  0.00  0.00    +0.000 A 
ATOM      6  C   UNL     1       6.893   4.676  14.163  0.00  0.00    +0.000 A 
ATOM      7  C   UNL     1       7.370   5.589  15.102  0.00  0.00    +0.000 A 
ATOM      8  C   UNL     1       6.848   5.620  16.405  0.00  0.00    +0.000 A 
ATOM      9 CL   UNL     1       7.517   6.821  17.452  0.00  0.00    +0.000 Cl
ENDBRANCH   2   3
BRANCH   2  10
ATOM     10  C   UNL     1       3.813   5.238  18.293  0.00  0.00    +0.000 C 
ATOM     11  O   UNL     1       3.636   6.424  18.022  0.00  0.00    +0.000 OA
BRANCH  10  12
ATOM     12  C   UNL     1       2.690   4.384  18.772  0.00  0.00    +0.000 A 
ATOM     13  C   UNL     1       2.520   3.168  18.075  0.00  0.00    +0.000 A 
ATOM     14  C   UNL     1       1.501   2.275  18.411  0.00  0.00    +0.000 A 
ATOM     15  C   UNL     1       0.636   2.577  19.454  0.00  0.00    +0.000 A 
ATOM     16  C   UNL     1       0.783   3.778  20.146  0.00  0.00    +0.000 A 
ATOM     17  C   UNL     1       1.796   4.689  19.807  0.00  0.00    +0.000 A 
ATOM     18 CL   UNL     1       1.784   6.163  20.705  0.00  0.00    +0.000 Cl
ENDBRANCH  10  12
ENDBRANCH   2  10
TORSDOF 3
ENDMDL
MODEL 6
REMARK VINA RESULT:      -6.9      1.373      4.877
REMARK  Name = 
REMARK  3 active torsions:
REMARK  status: ('A' for Active; 'I' for Inactive)
REMARK    1  A    between atoms: C_2  and  C_3
REMARK    2  A    between atoms: C_2  and  C_12
REMARK    3  A    between atoms: C_3  and  C_5
REMARK                            x       y       z     vdW  Elec       q    Type
REMARK                         _______ _______ _______ _____ _____    ______ ____
ROOT
ATOM      1  O   UNL     1       1.744   3.635  17.298  0.00  0.00    +0.000 OA
ATOM      2  C   UNL     1       2.621   4.294  17.835  0.00  0.00    +0.000 C 
ENDROOT
BRANCH   2   3
ATOM      3  C   UNL     1       2.405   5.568  18.592  0.00  0.00    +0.000 A 
ATOM      4  C   UNL     1       2.489   6.795  17.903  0.00  0.00    +0.000 A 
ATOM      5  C   UNL     1       2.265   8.007  18.559  0.00  0.00    +0.000 A 
ATOM      6  C   UNL     1       1.957   8.018  19.914  0.00  0.00    +0.000 A 
ATOM      7  C   UNL     1       1.873   6.814  20.611  0.00  0.00    +0.000 A 
ATOM      8  C   UNL     1       2.092   5.589  19.961  0.00  0.00    +0.000 A 
ATOM      9 CL   UNL     1       1.929   4.179  20.946  0.00  0.00    +0.000 Cl
ENDBRANCH   2   3
BRANCH   2  10
ATOM     10  C   UNL     1       4.018   3.750  17.725  0.00  0.00    +0.000 C 
ATOM     11  O   UNL     1       4.119   2.536  17.565  0.00  0.00    +0.000 OA
BRANCH  10  12
ATOM     12  C   UNL     1       5.227   4.614  17.830  0.00  0.00    +0.000 A 
ATOM     13  C   UNL     1       5.742   4.772  19.135  0.00  0.00    +0.000 A 
ATOM     14  C   UNL     1       6.866   5.562  19.382  0.00  0.00    +0.000 A 
ATOM     15  C   UNL     1       7.502   6.204  18.328  0.00  0.00    +0.000 A 
ATOM     16  C   UNL     1       7.002   6.068  17.035  0.00  0.00    +0.000 A 
ATOM     17  C   UNL     1       5.863   5.287  16.778  0.00  0.00    +0.000 A 
ATOM     18 CL   UNL     1       5.326   5.294  15.138  0.00  0.00    +0.000 Cl
ENDBRANCH  10  12
ENDBRANCH   2  10
TORSDOF 3
ENDMDL
MODEL 7
REMARK VINA RESULT:      -6.9      2.183      5.807
REMARK  Name = 
REMARK  3 active torsions:
REMARK  status: ('A' for Active; 'I' for Inactive)
REMARK    1  A    between atoms: C_2  and  C_3
REMARK    2  A    between atoms: C_2  and  C_12
REMARK    3  A    between atoms: C_3  and  C_5
REMARK                            x       y       z     vdW  Elec       q    Type
REMARK                         _______ _______ _______ _____ _____    ______ ____
ROOT
ATOM      1  O   UNL     1       3.443   6.778  18.952  0.00  0.00    +0.000 OA
ATOM      2  C   UNL     1       3.729   5.618  19.209  0.00  0.00    +0.000 C 
ENDROOT
BRANCH   2   3
ATOM      3  C   UNL     1       2.794   4.607  19.797  0.00  0.00    +0.000 A 
ATOM      4  C   UNL     1       2.948   4.239  21.149  0.00  0.00    +0.000 A 
ATOM      5  C   UNL     1       2.082   3.323  21.751  0.00  0.00    +0.000 A 
ATOM      6  C   UNL     1       1.050   2.755  21.014  0.00  0.00    +0.000 A 
ATOM      7  C   UNL     1       0.886   3.105  19.675  0.00  0.00    +0.000 A 
ATOM      8  C   UNL     1       1.748   4.028  19.061  0.00  0.00    +0.000 A 
ATOM      9 CL   UNL     1       1.407   4.384  17.405  0.00  0.00    +0.000 Cl
ENDBRANCH   2   3
BRANCH   2  10
ATOM     10  C   UNL     1       5.134   5.196  18.884  0.00  0.00    +0.000 C 
ATOM     11  O   UNL     1       5.887   5.025  19.840  0.00  0.00    +0.000 OA
BRANCH  10  12
ATOM     12  C   UNL     1       5.616   5.016  17.485  0.00  0.00    +0.000 A 
ATOM     13  C   UNL     1       5.003   3.966  16.768  0.00  0.00    +0.000 A 
ATOM     14  C   UNL     1       5.364   3.678  15.451  0.00  0.00    +0.000 A 
ATOM     15  C   UNL     1       6.341   4.438  14.822  0.00  0.00    +0.000 A 
ATOM     16  C   UNL     1       6.964   5.472  15.518  0.00  0.00    +0.000 A 
ATOM     17  C   UNL     1       6.618   5.761  16.849  0.00  0.00    +0.000 A 
ATOM     18 CL   UNL     1       7.544   7.014  17.590  0.00  0.00    +0.000 Cl
ENDBRANCH  10  12
ENDBRANCH   2  10
TORSDOF 3
ENDMDL
MODEL 8
REMARK VINA RESULT:      -6.9      2.114      5.840
REMARK  Name = 
REMARK  3 active torsions:
REMARK  status: ('A' for Active; 'I' for Inactive)
REMARK    1  A    between atoms: C_2  and  C_3
REMARK    2  A    between atoms: C_2  and  C_12
REMARK    3  A    between atoms: C_3  and  C_5
REMARK                            x       y       z     vdW  Elec       q    Type
REMARK                         _______ _______ _______ _____ _____    ______ ____
ROOT
ATOM      1  O   UNL     1       3.337   5.966  17.698  0.00  0.00    +0.000 OA
ATOM      2  C   UNL     1       3.736   5.000  18.330  0.00  0.00    +0.000 C 
ENDROOT
BRANCH   2   3
ATOM      3  C   UNL     1       2.912   4.185  19.278  0.00  0.00    +0.000 A 
ATOM      4  C   UNL     1       2.647   4.696  20.565  0.00  0.00    +0.000 A 
ATOM      5  C   UNL     1       1.857   3.987  21.473  0.00  0.00    +0.000 A 
ATOM      6  C   UNL     1       1.322   2.756  21.117  0.00  0.00    +0.000 A 
ATOM      7  C   UNL     1       1.577   2.235  19.849  0.00  0.00    +0.000 A 
ATOM      8  C   UNL     1       2.366   2.940  18.926  0.00  0.00    +0.000 A 
ATOM      9 CL   UNL     1       2.575   2.183  17.387  0.00  0.00    +0.000 Cl
ENDBRANCH   2   3
BRANCH   2  10
ATOM     10  C   UNL     1       5.170   4.610  18.105  0.00  0.00    +0.000 C 
ATOM     11  O   UNL     1       5.786   4.206  19.089  0.00  0.00    +0.000 OA
BRANCH  10  12
ATOM     12  C   UNL     1       5.836   4.726  16.777  0.00  0.00    +0.000 A 
ATOM     13  C   UNL     1       5.415   3.789  15.809  0.00  0.00    +0.000 A 
ATOM     14  C   UNL     1       5.962   3.775  14.525  0.00  0.00    +0.000 A 
ATOM     15  C   UNL     1       6.935   4.703  14.180  0.00  0.00    +0.000 A 
ATOM     16  C   UNL     1       7.371   5.629  15.127  0.00  0.00    +0.000 A 
ATOM     17  C   UNL     1       6.837   5.642  16.426  0.00  0.00    +0.000 A 
ATOM     18 CL   UNL     1       7.547   6.795  17.496  0.00  0.00    +0.000 Cl
ENDBRANCH  10  12
ENDBRANCH   2  10
TORSDOF 3
ENDMDL
MODEL 9
REMARK VINA RESULT:      -6.9      2.200      2.969
REMARK  Name = 
REMARK  3 active torsions:
REMARK  status: ('A' for Active; 'I' for Inactive)
REMARK    1  A    between atoms: C_2  and  C_3
REMARK    2  A    between atoms: C_2  and  C_12
REMARK    3  A    between atoms: C_3  and  C_5
REMARK                            x       y       z     vdW  Elec       q    Type
REMARK                         _______ _______ _______ _____ _____    ______ ____
ROOT
ATOM      1  O   UNL     1       5.969   4.828  19.855  0.00  0.00    +0.000 OA
ATOM      2  C   UNL     1       5.256   5.038  18.886  0.00  0.00    +0.000 C 
ENDROOT
BRANCH   2   3
ATOM      3  C   UNL     1       5.672   4.880  17.456  0.00  0.00    +0.000 A 
ATOM      4  C   UNL     1       5.002   3.936  16.651  0.00  0.00    +0.000 A 
ATOM      5  C   UNL     1       5.332   3.774  15.303  0.00  0.00    +0.000 A 
ATOM      6  C   UNL     1       6.338   4.546  14.736  0.00  0.00    +0.000 A 
ATOM      7  C   UNL     1       7.012   5.482  15.519  0.00  0.00    +0.000 A 
ATOM      8  C   UNL     1       6.686   5.656  16.873  0.00  0.00    +0.000 A 
ATOM      9 CL   UNL     1       7.588   6.869  17.710  0.00  0.00    +0.000 Cl
ENDBRANCH   2   3
BRANCH   2  10
ATOM     10  C   UNL     1       3.848   5.474  19.182  0.00  0.00    +0.000 C 
ATOM     11  O   UNL     1       3.586   6.655  18.963  0.00  0.00    +0.000 OA
BRANCH  10  12
ATOM     12  C   UNL     1       2.820   4.550  19.737  0.00  0.00    +0.000 A 
ATOM     13  C   UNL     1       3.000   4.194  21.091  0.00  0.00    +0.000 A 
ATOM     14  C   UNL     1       2.118   3.328  21.738  0.00  0.00    +0.000 A 
ATOM     15  C   UNL     1       1.034   2.805  21.046  0.00  0.00    +0.000 A 
ATOM     16  C   UNL     1       0.847   3.137  19.706  0.00  0.00    +0.000 A 
ATOM     17  C   UNL     1       1.737   3.997  19.042  0.00  0.00    +0.000 A 
ATOM     18 CL   UNL     1       1.410   4.235  17.364  0.00  0.00    +0.000 Cl
ENDBRANCH  10  12
ENDBRANCH   2  10
TORSDOF 3
ENDMDL
