MODEL 1
REMARK VINA RESULT:      -6.3      0.000      0.000
REMARK  Name = 
REMARK  20 active torsions:
REMARK  status: ('A' for Active; 'I' for Inactive)
REMARK    1  A    between atoms: C_1  and  O_2
REMARK    2  A    between atoms: O_2  and  C_3
REMARK    3  A    between atoms: C_3  and  C_4
REMARK    4  A    between atoms: C_3  and  C_17
REMARK    5  A    between atoms: N_6  and  C_7
REMARK    6  A    between atoms: C_7  and  C_8
REMARK    7  A    between atoms: C_8  and  C_9
REMARK    8  A    between atoms: C_9  and  C_10
REMARK    9  A    between atoms: C_10  and  C_11
REMARK   10  A    between atoms: C_11  and  C_12
REMARK   11  A    between atoms: C_12  and  N_13
REMARK   12  A    between atoms: N_19  and  C_20
REMARK   13  A    between atoms: C_20  and  C_21
REMARK   14  A    between atoms: C_21  and  C_22
REMARK   15  A    between atoms: C_22  and  C_23
REMARK   16  A    between atoms: C_23  and  N_24
REMARK   17  A    between atoms: N_24  and  C_25
REMARK   18  A    between atoms: C_25  and  C_26
REMARK   19  A    between atoms: C_26  and  C_27
REMARK   20  A    between atoms: C_27  and  N_28
REMARK                            x       y       z     vdW  Elec       q    Type
REMARK                         _______ _______ _______ _____ _____    ______ ____
ROOT
ATOM      1  C   UNL     1       6.480   5.796  16.349  0.00  0.00    +0.000 C 
ENDROOT
BRANCH   1   2
ATOM      2  C   UNL     1       7.292   6.422  17.516  0.00  0.00    +0.000 C 
ATOM      3  O   UNL     1       7.634   5.780  18.496  0.00  0.00    +0.000 OA
ATOM      4  N   UNL     1       7.662   7.764  17.390  0.00  0.00    +0.000 N 
ATOM      5  H   UNL     1       7.227   8.358  16.695  0.00  0.00    +0.000 HD
BRANCH   4   6
ATOM      6  C   UNL     1       8.510   8.390  18.400  0.00  0.00    +0.000 C 
BRANCH   6   7
ATOM      7  C   UNL     1       8.582   9.910  18.257  0.00  0.00    +0.000 C 
BRANCH   7   8
ATOM      8  C   UNL     1       9.334  10.546  19.427  0.00  0.00    +0.000 C 
BRANCH   8   9
ATOM      9  C   UNL     1      10.059  11.806  18.968  0.00  0.00    +0.000 C 
BRANCH   9  10
ATOM     10  N   UNL     1      10.803  11.531  17.742  0.00  0.00    +0.000 NA
ATOM     11  H   UNL     1      10.175  11.585  16.937  0.00  0.00    +0.000 HD
BRANCH  10  12
ATOM     12  C   UNL     1      11.890  12.498  17.591  0.00  0.00    +0.000 C 
BRANCH  12  13
ATOM     13  C   UNL     1      11.559  13.472  16.472  0.00  0.00    +0.000 C 
BRANCH  13  14
ATOM     14  C   UNL     1      11.173  14.816  17.069  0.00  0.00    +0.000 C 
BRANCH  14  15
ATOM     15  N   UNL     1      10.786  15.738  15.992  0.00  0.00    +0.000 NA
ATOM     16  H   UNL     1      10.349  16.567  16.396  0.00  0.00    +0.000 HD
ATOM     17  H   UNL     1      10.124  15.275  15.368  0.00  0.00    +0.000 HD
ENDBRANCH  14  15
ENDBRANCH  13  14
ENDBRANCH  12  13
ENDBRANCH  10  12
ENDBRANCH   9  10
ENDBRANCH   8   9
ENDBRANCH   7   8
ENDBRANCH   6   7
ENDBRANCH   4   6
ENDBRANCH   1   2
BRANCH   1  18
ATOM     18  C   UNL     1       5.160   5.155  16.882  0.00  0.00    +0.000 C 
ATOM     19  O   UNL     1       4.639   4.189  16.310  0.00  0.00    +0.000 OA
ATOM     20  N   UNL     1       4.615   5.676  18.049  0.00  0.00    +0.000 N 
ATOM     21  H   UNL     1       4.994   6.516  18.477  0.00  0.00    +0.000 HD
BRANCH  20  22
ATOM     22  C   UNL     1       3.421   5.093  18.620  0.00  0.00    +0.000 C 
BRANCH  22  23
ATOM     23  C   UNL     1       2.253   6.075  18.605  0.00  0.00    +0.000 C 
BRANCH  23  24
ATOM     24  C   UNL     1       2.772   7.509  18.600  0.00  0.00    +0.000 C 
BRANCH  24  25
ATOM     25  C   UNL     1       1.844   8.424  17.809  0.00  0.00    +0.000 C 
BRANCH  25  26
ATOM     26  C   UNL     1       1.266   9.516  18.710  0.00  0.00    +0.000 C 
BRANCH  26  27
ATOM     27  C   UNL     1       0.116  10.235  18.012  0.00  0.00    +0.000 C 
BRANCH  27  28
ATOM     28  N   UNL     1      -0.768  10.841  19.026  0.00  0.00    +0.000 NA
ATOM     29  C   UNL     1      -1.631  11.732  18.601  0.00  0.00    +0.000 C 
ATOM     30  N   UNL     1      -1.735  12.105  17.280  0.00  0.00    +0.000 N 
ATOM     31  N   UNL     1      -2.469  12.313  19.531  0.00  0.00    +0.000 N 
ATOM     32  H   UNL     1      -1.130  11.699  16.531  0.00  0.00    +0.000 HD
ATOM     33  H   UNL     1      -2.387  12.784  16.917  0.00  0.00    +0.000 HD
ATOM     34  H   UNL     1      -2.446  12.079  20.555  0.00  0.00    +0.000 HD
ATOM     35  H   UNL     1      -3.175  13.012  19.328  0.00  0.00    +0.000 HD
ENDBRANCH  27  28
ENDBRANCH  26  27
ENDBRANCH  25  26
ENDBRANCH  24  25
ENDBRANCH  23  24
ENDBRANCH  22  23
ENDBRANCH  20  22
ENDBRANCH   1  18
BRANCH   1  37
ATOM     36  C   UNL     1       7.084   4.833  14.236  0.00  0.00    +0.000 C 
ATOM     37  O   UNL     1       7.340   4.892  15.638  0.00  0.00    +0.000 OA
ENDBRANCH   1  37
TORSDOF 19
ENDMDL
MODEL 2
REMARK VINA RESULT:      -6.2      3.934      9.377
REMARK  Name = 
REMARK  20 active torsions:
REMARK  status: ('A' for Active; 'I' for Inactive)
REMARK    1  A    between atoms: C_1  and  O_2
REMARK    2  A    between atoms: O_2  and  C_3
REMARK    3  A    between atoms: C_3  and  C_4
REMARK    4  A    between atoms: C_3  and  C_17
REMARK    5  A    between atoms: N_6  and  C_7
REMARK    6  A    between atoms: C_7  and  C_8
REMARK    7  A    between atoms: C_8  and  C_9
REMARK    8  A    between atoms: C_9  and  C_10
REMARK    9  A    between atoms: C_10  and  C_11
REMARK   10  A    between atoms: C_11  and  C_12
REMARK   11  A    between atoms: C_12  and  N_13
REMARK   12  A    between atoms: N_19  and  C_20
REMARK   13  A    between atoms: C_20  and  C_21
REMARK   14  A    between atoms: C_21  and  C_22
REMARK   15  A    between atoms: C_22  and  C_23
REMARK   16  A    between atoms: C_23  and  N_24
REMARK   17  A    between atoms: N_24  and  C_25
REMARK   18  A    between atoms: C_25  and  C_26
REMARK   19  A    between atoms: C_26  and  C_27
REMARK   20  A    between atoms: C_27  and  N_28
REMARK                            x       y       z     vdW  Elec       q    Type
REMARK                         _______ _______ _______ _____ _____    ______ ____
ROOT
ATOM      1  C   UNL     1       7.157   5.945  17.447  0.00  0.00    +0.000 C 
ENDROOT
BRANCH   1   2
ATOM      2  C   UNL     1       6.422   5.498  18.741  0.00  0.00    +0.000 C 
ATOM      3  O   UNL     1       6.966   5.485  19.833  0.00  0.00    +0.000 OA
ATOM      4  N   UNL     1       5.076   5.141  18.622  0.00  0.00    +0.000 N 
ATOM      5  H   UNL     1       4.667   4.956  17.714  0.00  0.00    +0.000 HD
BRANCH   4   6
ATOM      6  C   UNL     1       4.296   4.809  19.810  0.00  0.00    +0.000 C 
BRANCH   6   7
ATOM      7  C   UNL     1       3.011   5.627  19.926  0.00  0.00    +0.000 C 
BRANCH   7   8
ATOM      8  C   UNL     1       2.039   5.002  20.927  0.00  0.00    +0.000 C 
BRANCH   8   9
ATOM      9  C   UNL     1       0.782   4.517  20.215  0.00  0.00    +0.000 C 
BRANCH   9  10
ATOM     10  N   UNL     1       0.660   3.069  20.356  0.00  0.00    +0.000 NA
ATOM     11  H   UNL     1      -0.263   2.833  20.724  0.00  0.00    +0.000 HD
BRANCH  10  12
ATOM     12  C   UNL     1       0.858   2.424  19.058  0.00  0.00    +0.000 C 
BRANCH  12  13
ATOM     13  C   UNL     1       2.268   1.862  18.973  0.00  0.00    +0.000 C 
BRANCH  13  14
ATOM     14  C   UNL     1       2.838   2.131  17.590  0.00  0.00    +0.000 C 
BRANCH  14  15
ATOM     15  N   UNL     1       2.377   3.444  17.116  0.00  0.00    +0.000 NA
ATOM     16  H   UNL     1       3.029   3.801  16.417  0.00  0.00    +0.000 HD
ATOM     17  H   UNL     1       2.331   4.093  17.901  0.00  0.00    +0.000 HD
ENDBRANCH  14  15
ENDBRANCH  13  14
ENDBRANCH  12  13
ENDBRANCH  10  12
ENDBRANCH   9  10
ENDBRANCH   8   9
ENDBRANCH   7   8
ENDBRANCH   6   7
ENDBRANCH   4   6
ENDBRANCH   1   2
BRANCH   1  18
ATOM     18  C   UNL     1       7.318   7.498  17.417  0.00  0.00    +0.000 C 
ATOM     19  O   UNL     1       6.553   8.210  16.754  0.00  0.00    +0.000 OA
ATOM     20  N   UNL     1       8.322   8.057  18.197  0.00  0.00    +0.000 N 
ATOM     21  H   UNL     1       9.000   7.475  18.679  0.00  0.00    +0.000 HD
BRANCH  20  22
ATOM     22  C   UNL     1       8.489   9.492  18.251  0.00  0.00    +0.000 C 
BRANCH  22  23
ATOM     23  C   UNL     1       9.139   9.934  19.559  0.00  0.00    +0.000 C 
BRANCH  23  24
ATOM     24  C   UNL     1      10.155  11.040  19.294  0.00  0.00    +0.000 C 
BRANCH  24  25
ATOM     25  C   UNL     1      10.406  11.205  17.799  0.00  0.00    +0.000 C 
BRANCH  25  26
ATOM     26  C   UNL     1      11.229  12.465  17.526  0.00  0.00    +0.000 C 
BRANCH  26  27
ATOM     27  C   UNL     1      10.894  13.556  18.538  0.00  0.00    +0.000 C 
BRANCH  27  28
ATOM     28  N   UNL     1      10.180  14.651  17.855  0.00  0.00    +0.000 NA
ATOM     29  C   UNL     1       8.905  14.786  18.130  0.00  0.00    +0.000 C 
ATOM     30  N   UNL     1       8.235  13.965  19.009  0.00  0.00    +0.000 N 
ATOM     31  N   UNL     1       8.214  15.804  17.505  0.00  0.00    +0.000 N 
ATOM     32  H   UNL     1       8.705  13.179  19.514  0.00  0.00    +0.000 HD
ATOM     33  H   UNL     1       7.258  14.040  19.246  0.00  0.00    +0.000 HD
ATOM     34  H   UNL     1       8.658  16.469  16.822  0.00  0.00    +0.000 HD
ATOM     35  H   UNL     1       7.229  16.010  17.634  0.00  0.00    +0.000 HD
ENDBRANCH  27  28
ENDBRANCH  26  27
ENDBRANCH  25  26
ENDBRANCH  24  25
ENDBRANCH  23  24
ENDBRANCH  22  23
ENDBRANCH  20  22
ENDBRANCH   1  18
BRANCH   1  37
ATOM     36  C   UNL     1       7.113   4.278  15.721  0.00  0.00    +0.000 C 
ATOM     37  O   UNL     1       6.456   5.394  16.320  0.00  0.00    +0.000 OA
ENDBRANCH   1  37
TORSDOF 19
ENDMDL
MODEL 3
REMARK VINA RESULT:      -6.1      3.339      9.557
REMARK  Name = 
REMARK  20 active torsions:
REMARK  status: ('A' for Active; 'I' for Inactive)
REMARK    1  A    between atoms: C_1  and  O_2
REMARK    2  A    between atoms: O_2  and  C_3
REMARK    3  A    between atoms: C_3  and  C_4
REMARK    4  A    between atoms: C_3  and  C_17
REMARK    5  A    between atoms: N_6  and  C_7
REMARK    6  A    between atoms: C_7  and  C_8
REMARK    7  A    between atoms: C_8  and  C_9
REMARK    8  A    between atoms: C_9  and  C_10
REMARK    9  A    between atoms: C_10  and  C_11
REMARK   10  A    between atoms: C_11  and  C_12
REMARK   11  A    between atoms: C_12  and  N_13
REMARK   12  A    between atoms: N_19  and  C_20
REMARK   13  A    between atoms: C_20  and  C_21
REMARK   14  A    between atoms: C_21  and  C_22
REMARK   15  A    between atoms: C_22  and  C_23
REMARK   16  A    between atoms: C_23  and  N_24
REMARK   17  A    between atoms: N_24  and  C_25
REMARK   18  A    between atoms: C_25  and  C_26
REMARK   19  A    between atoms: C_26  and  C_27
REMARK   20  A    between atoms: C_27  and  N_28
REMARK                            x       y       z     vdW  Elec       q    Type
REMARK                         _______ _______ _______ _____ _____    ______ ____
ROOT
ATOM      1  C   UNL     1       6.532   5.436  16.522  0.00  0.00    +0.000 C 
ENDROOT
BRANCH   1   2
ATOM      2  C   UNL     1       5.006   5.509  16.811  0.00  0.00    +0.000 C 
ATOM      3  O   UNL     1       4.235   4.618  16.493  0.00  0.00    +0.000 OA
ATOM      4  N   UNL     1       4.538   6.633  17.497  0.00  0.00    +0.000 N 
ATOM      5  H   UNL     1       5.116   7.460  17.591  0.00  0.00    +0.000 HD
BRANCH   4   6
ATOM      6  C   UNL     1       3.136   6.722  17.891  0.00  0.00    +0.000 C 
BRANCH   6   7
ATOM      7  C   UNL     1       2.692   5.557  18.775  0.00  0.00    +0.000 C 
BRANCH   7   8
ATOM      8  C   UNL     1       2.129   6.050  20.108  0.00  0.00    +0.000 C 
BRANCH   8   9
ATOM      9  C   UNL     1       1.913   4.879  21.059  0.00  0.00    +0.000 C 
BRANCH   9  10
ATOM     10  N   UNL     1       0.937   3.953  20.491  0.00  0.00    +0.000 NA
ATOM     11  H   UNL     1       0.776   4.181  19.508  0.00  0.00    +0.000 HD
BRANCH  10  12
ATOM     12  C   UNL     1       1.426   2.579  20.609  0.00  0.00    +0.000 C 
BRANCH  12  13
ATOM     13  C   UNL     1       1.907   2.087  19.253  0.00  0.00    +0.000 C 
BRANCH  13  14
ATOM     14  C   UNL     1       3.426   2.027  19.246  0.00  0.00    +0.000 C 
BRANCH  14  15
ATOM     15  N   UNL     1       3.906   1.926  17.861  0.00  0.00    +0.000 NA
ATOM     16  H   UNL     1       4.804   1.440  17.847  0.00  0.00    +0.000 HD
ATOM     17  H   UNL     1       4.021   2.861  17.470  0.00  0.00    +0.000 HD
ENDBRANCH  14  15
ENDBRANCH  13  14
ENDBRANCH  12  13
ENDBRANCH  10  12
ENDBRANCH   9  10
ENDBRANCH   8   9
ENDBRANCH   7   8
ENDBRANCH   6   7
ENDBRANCH   4   6
ENDBRANCH   1   2
BRANCH   1  18
ATOM     18  C   UNL     1       7.333   6.226  17.606  0.00  0.00    +0.000 C 
ATOM     19  O   UNL     1       7.748   5.668  18.629  0.00  0.00    +0.000 OA
ATOM     20  N   UNL     1       7.602   7.566  17.360  0.00  0.00    +0.000 N 
ATOM     21  H   UNL     1       7.198   8.046  16.561  0.00  0.00    +0.000 HD
BRANCH  20  22
ATOM     22  C   UNL     1       8.383   8.337  18.301  0.00  0.00    +0.000 C 
BRANCH  22  23
ATOM     23  C   UNL     1       8.237   9.837  18.057  0.00  0.00    +0.000 C 
BRANCH  23  24
ATOM     24  C   UNL     1       9.563  10.543  18.321  0.00  0.00    +0.000 C 
BRANCH  24  25
ATOM     25  C   UNL     1       9.525  11.302  19.642  0.00  0.00    +0.000 C 
BRANCH  25  26
ATOM     26  C   UNL     1      10.207  12.664  19.503  0.00  0.00    +0.000 C 
BRANCH  26  27
ATOM     27  C   UNL     1       9.765  13.357  18.218  0.00  0.00    +0.000 C 
BRANCH  27  28
ATOM     28  N   UNL     1      10.513  14.619  18.062  0.00  0.00    +0.000 NA
ATOM     29  C   UNL     1      11.241  14.745  16.979  0.00  0.00    +0.000 C 
ATOM     30  N   UNL     1      11.325  13.767  16.014  0.00  0.00    +0.000 N 
ATOM     31  N   UNL     1      11.949  15.917  16.810  0.00  0.00    +0.000 N 
ATOM     32  H   UNL     1      10.810  12.860  16.085  0.00  0.00    +0.000 HD
ATOM     33  H   UNL     1      11.872  13.829  15.169  0.00  0.00    +0.000 HD
ATOM     34  H   UNL     1      11.935  16.706  17.505  0.00  0.00    +0.000 HD
ATOM     35  H   UNL     1      12.547  16.133  16.019  0.00  0.00    +0.000 HD
ENDBRANCH  27  28
ENDBRANCH  26  27
ENDBRANCH  25  26
ENDBRANCH  24  25
ENDBRANCH  23  24
ENDBRANCH  22  23
ENDBRANCH  20  22
ENDBRANCH   1  18
BRANCH   1  37
ATOM     36  C   UNL     1       6.908   4.814  14.236  0.00  0.00    +0.000 C 
ATOM     37  O   UNL     1       6.754   5.877  15.174  0.00  0.00    +0.000 OA
ENDBRANCH   1  37
TORSDOF 19
ENDMDL
MODEL 4
REMARK VINA RESULT:      -6.1      5.314      7.453
REMARK  Name = 
REMARK  20 active torsions:
REMARK  status: ('A' for Active; 'I' for Inactive)
REMARK    1  A    between atoms: C_1  and  O_2
REMARK    2  A    between atoms: O_2  and  C_3
REMARK    3  A    between atoms: C_3  and  C_4
REMARK    4  A    between atoms: C_3  and  C_17
REMARK    5  A    between atoms: N_6  and  C_7
REMARK    6  A    between atoms: C_7  and  C_8
REMARK    7  A    between atoms: C_8  and  C_9
REMARK    8  A    between atoms: C_9  and  C_10
REMARK    9  A    between atoms: C_10  and  C_11
REMARK   10  A    between atoms: C_11  and  C_12
REMARK   11  A    between atoms: C_12  and  N_13
REMARK   12  A    between atoms: N_19  and  C_20
REMARK   13  A    between atoms: C_20  and  C_21
REMARK   14  A    between atoms: C_21  and  C_22
REMARK   15  A    between atoms: C_22  and  C_23
REMARK   16  A    between atoms: C_23  and  N_24
REMARK   17  A    between atoms: N_24  and  C_25
REMARK   18  A    between atoms: C_25  and  C_26
REMARK   19  A    between atoms: C_26  and  C_27
REMARK   20  A    between atoms: C_27  and  N_28
REMARK                            x       y       z     vdW  Elec       q    Type
REMARK                         _______ _______ _______ _____ _____    ______ ____
ROOT
ATOM      1  C   UNL     1       2.562   6.882  19.534  0.00  0.00    +0.000 C 
ENDROOT
BRANCH   1   2
ATOM      2  C   UNL     1       2.015   5.540  20.097  0.00  0.00    +0.000 C 
ATOM      3  O   UNL     1       1.970   5.299  21.292  0.00  0.00    +0.000 OA
ATOM      4  N   UNL     1       1.528   4.611  19.173  0.00  0.00    +0.000 N 
ATOM      5  H   UNL     1       1.735   4.704  18.186  0.00  0.00    +0.000 HD
BRANCH   4   6
ATOM      6  C   UNL     1       0.907   3.373  19.635  0.00  0.00    +0.000 C 
BRANCH   6   7
ATOM      7  C   UNL     1       1.700   2.127  19.239  0.00  0.00    +0.000 C 
BRANCH   7   8
ATOM      8  C   UNL     1       2.256   2.246  17.820  0.00  0.00    +0.000 C 
BRANCH   8   9
ATOM      9  C   UNL     1       3.713   2.691  17.857  0.00  0.00    +0.000 C 
BRANCH   9  10
ATOM     10  N   UNL     1       3.848   3.999  17.223  0.00  0.00    +0.000 NA
ATOM     11  H   UNL     1       3.415   4.715  17.809  0.00  0.00    +0.000 HD
BRANCH  10  12
ATOM     12  C   UNL     1       5.263   4.312  17.020  0.00  0.00    +0.000 C 
BRANCH  12  13
ATOM     13  C   UNL     1       5.757   3.655  15.742  0.00  0.00    +0.000 C 
BRANCH  13  14
ATOM     14  C   UNL     1       6.053   4.725  14.704  0.00  0.00    +0.000 C 
BRANCH  14  15
ATOM     15  N   UNL     1       5.698   6.045  15.245  0.00  0.00    +0.000 NA
ATOM     16  H   UNL     1       4.785   5.992  15.698  0.00  0.00    +0.000 HD
ATOM     17  H   UNL     1       5.663   6.726  14.487  0.00  0.00    +0.000 HD
ENDBRANCH  14  15
ENDBRANCH  13  14
ENDBRANCH  12  13
ENDBRANCH  10  12
ENDBRANCH   9  10
ENDBRANCH   8   9
ENDBRANCH   7   8
ENDBRANCH   6   7
ENDBRANCH   4   6
ENDBRANCH   1   2
BRANCH   1  18
ATOM     18  C   UNL     1       1.843   8.092  20.210  0.00  0.00    +0.000 C 
ATOM     19  O   UNL     1       1.232   8.932  19.537  0.00  0.00    +0.000 OA
ATOM     20  N   UNL     1       1.873   8.169  21.596  0.00  0.00    +0.000 N 
ATOM     21  H   UNL     1       2.437   7.528  22.147  0.00  0.00    +0.000 HD
BRANCH  20  22
ATOM     22  C   UNL     1       1.184   9.238  22.283  0.00  0.00    +0.000 C 
BRANCH  22  23
ATOM     23  C   UNL     1      -0.306   8.942  22.432  0.00  0.00    +0.000 C 
BRANCH  23  24
ATOM     24  C   UNL     1      -1.016  10.130  23.073  0.00  0.00    +0.000 C 
BRANCH  24  25
ATOM     25  C   UNL     1      -0.671  11.427  22.351  0.00  0.00    +0.000 C 
BRANCH  25  26
ATOM     26  C   UNL     1      -1.938  12.117  21.844  0.00  0.00    +0.000 C 
BRANCH  26  27
ATOM     27  C   UNL     1      -1.791  12.497  20.374  0.00  0.00    +0.000 C 
BRANCH  27  28
ATOM     28  N   UNL     1      -1.086  11.416  19.659  0.00  0.00    +0.000 NA
ATOM     29  C   UNL     1      -1.345  11.286  18.381  0.00  0.00    +0.000 C 
ATOM     30  N   UNL     1      -2.225  12.102  17.706  0.00  0.00    +0.000 N 
ATOM     31  N   UNL     1      -0.696  10.282  17.690  0.00  0.00    +0.000 N 
ATOM     32  H   UNL     1      -2.743  12.879  18.175  0.00  0.00    +0.000 HD
ATOM     33  H   UNL     1      -2.447  12.032  16.725  0.00  0.00    +0.000 HD
ATOM     34  H   UNL     1      -0.012   9.621  18.137  0.00  0.00    +0.000 HD
ATOM     35  H   UNL     1      -0.812  10.081  16.702  0.00  0.00    +0.000 HD
ENDBRANCH  27  28
ENDBRANCH  26  27
ENDBRANCH  25  26
ENDBRANCH  24  25
ENDBRANCH  23  24
ENDBRANCH  22  23
ENDBRANCH  20  22
ENDBRANCH   1  18
BRANCH   1  37
ATOM     36  C   UNL     1       3.485   7.566  17.428  0.00  0.00    +0.000 C 
ATOM     37  O   UNL     1       2.455   6.845  18.103  0.00  0.00    +0.000 OA
ENDBRANCH   1  37
TORSDOF 19
ENDMDL
MODEL 5
REMARK VINA RESULT:      -6.1      3.781      9.721
REMARK  Name = 
REMARK  20 active torsions:
REMARK  status: ('A' for Active; 'I' for Inactive)
REMARK    1  A    between atoms: C_1  and  O_2
REMARK    2  A    between atoms: O_2  and  C_3
REMARK    3  A    between atoms: C_3  and  C_4
REMARK    4  A    between atoms: C_3  and  C_17
REMARK    5  A    between atoms: N_6  and  C_7
REMARK    6  A    between atoms: C_7  and  C_8
REMARK    7  A    between atoms: C_8  and  C_9
REMARK    8  A    between atoms: C_9  and  C_10
REMARK    9  A    between atoms: C_10  and  C_11
REMARK   10  A    between atoms: C_11  and  C_12
REMARK   11  A    between atoms: C_12  and  N_13
REMARK   12  A    between atoms: N_19  and  C_20
REMARK   13  A    between atoms: C_20  and  C_21
REMARK   14  A    between atoms: C_21  and  C_22
REMARK   15  A    between atoms: C_22  and  C_23
REMARK   16  A    between atoms: C_23  and  N_24
REMARK   17  A    between atoms: N_24  and  C_25
REMARK   18  A    between atoms: C_25  and  C_26
REMARK   19  A    between atoms: C_26  and  C_27
REMARK   20  A    between atoms: C_27  and  N_28
REMARK                            x       y       z     vdW  Elec       q    Type
REMARK                         _______ _______ _______ _____ _____    ______ ____
ROOT
ATOM      1  C   UNL     1       7.624   5.723  18.463  0.00  0.00    +0.000 C 
ENDROOT
BRANCH   1   2
ATOM      2  C   UNL     1       6.133   5.356  18.708  0.00  0.00    +0.000 C 
ATOM      3  O   UNL     1       5.794   4.452  19.454  0.00  0.00    +0.000 OA
ATOM      4  N   UNL     1       5.169   6.136  18.063  0.00  0.00    +0.000 N 
ATOM      5  H   UNL     1       5.425   6.750  17.299  0.00  0.00    +0.000 HD
BRANCH   4   6
ATOM      6  C   UNL     1       3.751   5.914  18.325  0.00  0.00    +0.000 C 
BRANCH   6   7
ATOM      7  C   UNL     1       3.126   4.885  17.382  0.00  0.00    +0.000 C 
BRANCH   7   8
ATOM      8  C   UNL     1       1.752   4.434  17.879  0.00  0.00    +0.000 C 
BRANCH   8   9
ATOM      9  C   UNL     1       1.695   2.914  17.973  0.00  0.00    +0.000 C 
BRANCH   9  10
ATOM     10  N   UNL     1       2.068   2.487  19.318  0.00  0.00    +0.000 NA
ATOM     11  H   UNL     1       2.806   3.092  19.682  0.00  0.00    +0.000 HD
BRANCH  10  12
ATOM     12  C   UNL     1       0.902   2.540  20.200  0.00  0.00    +0.000 C 
BRANCH  12  13
ATOM     13  C   UNL     1       1.347   2.837  21.623  0.00  0.00    +0.000 C 
BRANCH  13  14
ATOM     14  C   UNL     1       2.630   3.651  21.592  0.00  0.00    +0.000 C 
BRANCH  14  15
ATOM     15  N   UNL     1       2.317   5.050  21.271  0.00  0.00    +0.000 NA
ATOM     16  H   UNL     1       2.084   5.127  20.280  0.00  0.00    +0.000 HD
ATOM     17  H   UNL     1       3.125   5.637  21.476  0.00  0.00    +0.000 HD
ENDBRANCH  14  15
ENDBRANCH  13  14
ENDBRANCH  12  13
ENDBRANCH  10  12
ENDBRANCH   9  10
ENDBRANCH   8   9
ENDBRANCH   7   8
ENDBRANCH   6   7
ENDBRANCH   4   6
ENDBRANCH   1   2
BRANCH   1  18
ATOM     18  C   UNL     1       7.746   7.179  17.913  0.00  0.00    +0.000 C 
ATOM     19  O   UNL     1       7.262   7.495  16.819  0.00  0.00    +0.000 OA
ATOM     20  N   UNL     1       8.377   8.121  18.716  0.00  0.00    +0.000 N 
ATOM     21  H   UNL     1       8.844   7.851  19.577  0.00  0.00    +0.000 HD
BRANCH  20  22
ATOM     22  C   UNL     1       8.477   9.497  18.285  0.00  0.00    +0.000 C 
BRANCH  22  23
ATOM     23  C   UNL     1       9.681  10.196  18.909  0.00  0.00    +0.000 C 
BRANCH  23  24
ATOM     24  C   UNL     1       9.263  10.925  20.183  0.00  0.00    +0.000 C 
BRANCH  24  25
ATOM     25  C   UNL     1       9.728  12.376  20.160  0.00  0.00    +0.000 C 
BRANCH  25  26
ATOM     26  C   UNL     1       9.773  12.906  18.726  0.00  0.00    +0.000 C 
BRANCH  26  27
ATOM     27  C   UNL     1      11.064  13.682  18.481  0.00  0.00    +0.000 C 
BRANCH  27  28
ATOM     28  N   UNL     1      10.751  15.117  18.342  0.00  0.00    +0.000 NA
ATOM     29  C   UNL     1      10.784  15.614  17.129  0.00  0.00    +0.000 C 
ATOM     30  N   UNL     1      11.089  14.861  16.017  0.00  0.00    +0.000 N 
ATOM     31  N   UNL     1      10.494  16.954  16.973  0.00  0.00    +0.000 N 
ATOM     32  H   UNL     1      11.314  13.842  16.073  0.00  0.00    +0.000 HD
ATOM     33  H   UNL     1      11.121  15.208  15.071  0.00  0.00    +0.000 HD
ATOM     34  H   UNL     1      10.254  17.591  17.774  0.00  0.00    +0.000 HD
ATOM     35  H   UNL     1      10.486  17.453  16.090  0.00  0.00    +0.000 HD
ENDBRANCH  27  28
ENDBRANCH  26  27
ENDBRANCH  25  26
ENDBRANCH  24  25
ENDBRANCH  23  24
ENDBRANCH  22  23
ENDBRANCH  20  22
ENDBRANCH   1  18
BRANCH   1  37
ATOM     36  C   UNL     1       7.384   4.352  16.508  0.00  0.00    +0.000 C 
ATOM     37  O   UNL     1       8.201   4.714  17.620  0.00  0.00    +0.000 OA
ENDBRANCH   1  37
TORSDOF 19
ENDMDL
MODEL 6
REMARK VINA RESULT:      -6.0      2.324      8.599
REMARK  Name = 
REMARK  20 active torsions:
REMARK  status: ('A' for Active; 'I' for Inactive)
REMARK    1  A    between atoms: C_1  and  O_2
REMARK    2  A    between atoms: O_2  and  C_3
REMARK    3  A    between atoms: C_3  and  C_4
REMARK    4  A    between atoms: C_3  and  C_17
REMARK    5  A    between atoms: N_6  and  C_7
REMARK    6  A    between atoms: C_7  and  C_8
REMARK    7  A    between atoms: C_8  and  C_9
REMARK    8  A    between atoms: C_9  and  C_10
REMARK    9  A    between atoms: C_10  and  C_11
REMARK   10  A    between atoms: C_11  and  C_12
REMARK   11  A    between atoms: C_12  and  N_13
REMARK   12  A    between atoms: N_19  and  C_20
REMARK   13  A    between atoms: C_20  and  C_21
REMARK   14  A    between atoms: C_21  and  C_22
REMARK   15  A    between atoms: C_22  and  C_23
REMARK   16  A    between atoms: C_23  and  N_24
REMARK   17  A    between atoms: N_24  and  C_25
REMARK   18  A    between atoms: C_25  and  C_26
REMARK   19  A    between atoms: C_26  and  C_27
REMARK   20  A    between atoms: C_27  and  N_28
REMARK                            x       y       z     vdW  Elec       q    Type
REMARK                         _______ _______ _______ _____ _____    ______ ____
ROOT
ATOM      1  C   UNL     1       6.366   5.376  16.276  0.00  0.00    +0.000 C 
ENDROOT
BRANCH   1   2
ATOM      2  C   UNL     1       5.354   4.401  16.942  0.00  0.00    +0.000 C 
ATOM      3  O   UNL     1       4.511   3.794  16.302  0.00  0.00    +0.000 OA
ATOM      4  N   UNL     1       5.467   4.206  18.321  0.00  0.00    +0.000 N 
ATOM      5  H   UNL     1       6.017   4.838  18.890  0.00  0.00    +0.000 HD
BRANCH   4   6
ATOM      6  C   UNL     1       4.617   3.230  18.996  0.00  0.00    +0.000 C 
BRANCH   6   7
ATOM      7  C   UNL     1       3.225   3.774  19.314  0.00  0.00    +0.000 C 
BRANCH   7   8
ATOM      8  C   UNL     1       3.286   5.227  19.787  0.00  0.00    +0.000 C 
BRANCH   8   9
ATOM      9  C   UNL     1       2.139   5.522  20.746  0.00  0.00    +0.000 C 
BRANCH   9  10
ATOM     10  N   UNL     1       1.893   6.960  20.796  0.00  0.00    +0.000 NA
ATOM     11  H   UNL     1       2.561   7.404  21.430  0.00  0.00    +0.000 HD
BRANCH  10  12
ATOM     12  C   UNL     1       2.022   7.535  19.457  0.00  0.00    +0.000 C 
BRANCH  12  13
ATOM     13  C   UNL     1       1.439   8.938  19.441  0.00  0.00    +0.000 C 
BRANCH  13  14
ATOM     14  C   UNL     1       1.701   9.581  18.089  0.00  0.00    +0.000 C 
BRANCH  14  15
ATOM     15  N   UNL     1       2.635   8.745  17.321  0.00  0.00    +0.000 NA
ATOM     16  H   UNL     1       3.581   9.116  17.419  0.00  0.00    +0.000 HD
ATOM     17  H   UNL     1       2.368   8.751  16.337  0.00  0.00    +0.000 HD
ENDBRANCH  14  15
ENDBRANCH  13  14
ENDBRANCH  12  13
ENDBRANCH  10  12
ENDBRANCH   9  10
ENDBRANCH   8   9
ENDBRANCH   7   8
ENDBRANCH   6   7
ENDBRANCH   4   6
ENDBRANCH   1   2
BRANCH   1  18
ATOM     18  C   UNL     1       6.340   6.764  16.992  0.00  0.00    +0.000 C 
ATOM     19  O   UNL     1       5.329   7.162  17.582  0.00  0.00    +0.000 OA
ATOM     20  N   UNL     1       7.508   7.515  16.983  0.00  0.00    +0.000 N 
ATOM     21  H   UNL     1       8.315   7.229  16.435  0.00  0.00    +0.000 HD
BRANCH  20  22
ATOM     22  C   UNL     1       7.563   8.786  17.671  0.00  0.00    +0.000 C 
BRANCH  22  23
ATOM     23  C   UNL     1       8.801   8.893  18.556  0.00  0.00    +0.000 C 
BRANCH  23  24
ATOM     24  C   UNL     1       9.011  10.340  18.993  0.00  0.00    +0.000 C 
BRANCH  24  25
ATOM     25  C   UNL     1       9.859  11.099  17.980  0.00  0.00    +0.000 C 
BRANCH  25  26
ATOM     26  C   UNL     1      10.990  11.854  18.680  0.00  0.00    +0.000 C 
BRANCH  26  27
ATOM     27  C   UNL     1      10.667  13.341  18.773  0.00  0.00    +0.000 C 
BRANCH  27  28
ATOM     28  N   UNL     1      10.692  13.931  17.421  0.00  0.00    +0.000 NA
ATOM     29  C   UNL     1      10.810  15.235  17.347  0.00  0.00    +0.000 C 
ATOM     30  N   UNL     1      10.909  16.044  18.456  0.00  0.00    +0.000 N 
ATOM     31  N   UNL     1      10.836  15.810  16.093  0.00  0.00    +0.000 N 
ATOM     32  H   UNL     1      10.897  15.665  19.431  0.00  0.00    +0.000 HD
ATOM     33  H   UNL     1      11.003  17.047  18.438  0.00  0.00    +0.000 HD
ATOM     34  H   UNL     1      10.764  15.257  15.201  0.00  0.00    +0.000 HD
ATOM     35  H   UNL     1      10.923  16.803  15.905  0.00  0.00    +0.000 HD
ENDBRANCH  27  28
ENDBRANCH  26  27
ENDBRANCH  25  26
ENDBRANCH  24  25
ENDBRANCH  23  24
ENDBRANCH  22  23
ENDBRANCH  20  22
ENDBRANCH   1  18
BRANCH   1  37
ATOM     36  C   UNL     1       7.081   4.799  14.060  0.00  0.00    +0.000 C 
ATOM     37  O   UNL     1       6.085   5.422  14.869  0.00  0.00    +0.000 OA
ENDBRANCH   1  37
TORSDOF 19
ENDMDL
MODEL 7
REMARK VINA RESULT:      -6.0      4.632      6.528
REMARK  Name = 
REMARK  20 active torsions:
REMARK  status: ('A' for Active; 'I' for Inactive)
REMARK    1  A    between atoms: C_1  and  O_2
REMARK    2  A    between atoms: O_2  and  C_3
REMARK    3  A    between atoms: C_3  and  C_4
REMARK    4  A    between atoms: C_3  and  C_17
REMARK    5  A    between atoms: N_6  and  C_7
REMARK    6  A    between atoms: C_7  and  C_8
REMARK    7  A    between atoms: C_8  and  C_9
REMARK    8  A    between atoms: C_9  and  C_10
REMARK    9  A    between atoms: C_10  and  C_11
REMARK   10  A    between atoms: C_11  and  C_12
REMARK   11  A    between atoms: C_12  and  N_13
REMARK   12  A    between atoms: N_19  and  C_20
REMARK   13  A    between atoms: C_20  and  C_21
REMARK   14  A    between atoms: C_21  and  C_22
REMARK   15  A    between atoms: C_22  and  C_23
REMARK   16  A    between atoms: C_23  and  N_24
REMARK   17  A    between atoms: N_24  and  C_25
REMARK   18  A    between atoms: C_25  and  C_26
REMARK   19  A    between atoms: C_26  and  C_27
REMARK   20  A    between atoms: C_27  and  N_28
REMARK                            x       y       z     vdW  Elec       q    Type
REMARK                         _______ _______ _______ _____ _____    ______ ____
ROOT
ATOM      1  C   UNL     1       1.795   4.422  20.157  0.00  0.00    +0.000 C 
ENDROOT
BRANCH   1   2
ATOM      2  C   UNL     1       2.031   3.761  18.770  0.00  0.00    +0.000 C 
ATOM      3  O   UNL     1       1.130   3.250  18.125  0.00  0.00    +0.000 OA
ATOM      4  N   UNL     1       3.329   3.805  18.253  0.00  0.00    +0.000 N 
ATOM      5  H   UNL     1       4.116   4.041  18.847  0.00  0.00    +0.000 HD
BRANCH   4   6
ATOM      6  C   UNL     1       3.604   3.295  16.914  0.00  0.00    +0.000 C 
BRANCH   6   7
ATOM      7  C   UNL     1       4.411   4.272  16.059  0.00  0.00    +0.000 C 
BRANCH   7   8
ATOM      8  C   UNL     1       5.855   3.801  15.885  0.00  0.00    +0.000 C 
BRANCH   8   9
ATOM      9  C   UNL     1       6.622   4.764  14.987  0.00  0.00    +0.000 C 
BRANCH   9  10
ATOM     10  N   UNL     1       7.560   5.546  15.787  0.00  0.00    +0.000 NA
ATOM     11  H   UNL     1       7.255   6.521  15.824  0.00  0.00    +0.000 HD
BRANCH  10  12
ATOM     12  C   UNL     1       7.638   4.998  17.141  0.00  0.00    +0.000 C 
BRANCH  12  13
ATOM     13  C   UNL     1       7.563   6.126  18.157  0.00  0.00    +0.000 C 
BRANCH  13  14
ATOM     14  C   UNL     1       7.273   5.549  19.533  0.00  0.00    +0.000 C 
BRANCH  14  15
ATOM     15  N   UNL     1       5.929   4.955  19.543  0.00  0.00    +0.000 NA
ATOM     16  H   UNL     1       5.241   5.674  19.769  0.00  0.00    +0.000 HD
ATOM     17  H   UNL     1       5.888   4.215  20.244  0.00  0.00    +0.000 HD
ENDBRANCH  14  15
ENDBRANCH  13  14
ENDBRANCH  12  13
ENDBRANCH  10  12
ENDBRANCH   9  10
ENDBRANCH   8   9
ENDBRANCH   7   8
ENDBRANCH   6   7
ENDBRANCH   4   6
ENDBRANCH   1   2
BRANCH   1  18
ATOM     18  C   UNL     1       2.207   5.928  20.123  0.00  0.00    +0.000 C 
ATOM     19  O   UNL     1       3.219   6.302  19.518  0.00  0.00    +0.000 OA
ATOM     20  N   UNL     1       1.372   6.839  20.758  0.00  0.00    +0.000 N 
ATOM     21  H   UNL     1       0.585   6.529  21.320  0.00  0.00    +0.000 HD
BRANCH  20  22
ATOM     22  C   UNL     1       1.673   8.253  20.718  0.00  0.00    +0.000 C 
BRANCH  22  23
ATOM     23  C   UNL     1       0.866   9.028  21.756  0.00  0.00    +0.000 C 
BRANCH  23  24
ATOM     24  C   UNL     1       0.548  10.426  21.237  0.00  0.00    +0.000 C 
BRANCH  24  25
ATOM     25  C   UNL     1      -0.659  10.403  20.306  0.00  0.00    +0.000 C 
BRANCH  25  26
ATOM     26  C   UNL     1      -1.357  11.763  20.292  0.00  0.00    +0.000 C 
BRANCH  26  27
ATOM     27  C   UNL     1      -1.417  12.322  18.874  0.00  0.00    +0.000 C 
BRANCH  27  28
ATOM     28  N   UNL     1      -1.356  11.209  17.908  0.00  0.00    +0.000 NA
ATOM     29  C   UNL     1      -2.411  11.026  17.151  0.00  0.00    +0.000 C 
ATOM     30  N   UNL     1      -3.535  11.816  17.226  0.00  0.00    +0.000 N 
ATOM     31  N   UNL     1      -2.378   9.991  16.238  0.00  0.00    +0.000 N 
ATOM     32  H   UNL     1      -3.618  12.615  17.895  0.00  0.00    +0.000 HD
ATOM     33  H   UNL     1      -4.362  11.706  16.659  0.00  0.00    +0.000 HD
ATOM     34  H   UNL     1      -1.555   9.346  16.125  0.00  0.00    +0.000 HD
ATOM     35  H   UNL     1      -3.127   9.748  15.599  0.00  0.00    +0.000 HD
ENDBRANCH  27  28
ENDBRANCH  26  27
ENDBRANCH  25  26
ENDBRANCH  24  25
ENDBRANCH  23  24
ENDBRANCH  22  23
ENDBRANCH  20  22
ENDBRANCH   1  18
BRANCH   1  37
ATOM     36  C   UNL     1       1.649   2.658  21.778  0.00  0.00    +0.000 C 
ATOM     37  O   UNL     1       2.475   3.637  21.149  0.00  0.00    +0.000 OA
ENDBRANCH   1  37
TORSDOF 19
ENDMDL
MODEL 8
REMARK VINA RESULT:      -6.0      4.634      8.420
REMARK  Name = 
REMARK  20 active torsions:
REMARK  status: ('A' for Active; 'I' for Inactive)
REMARK    1  A    between atoms: C_1  and  O_2
REMARK    2  A    between atoms: O_2  and  C_3
REMARK    3  A    between atoms: C_3  and  C_4
REMARK    4  A    between atoms: C_3  and  C_17
REMARK    5  A    between atoms: N_6  and  C_7
REMARK    6  A    between atoms: C_7  and  C_8
REMARK    7  A    between atoms: C_8  and  C_9
REMARK    8  A    between atoms: C_9  and  C_10
REMARK    9  A    between atoms: C_10  and  C_11
REMARK   10  A    between atoms: C_11  and  C_12
REMARK   11  A    between atoms: C_12  and  N_13
REMARK   12  A    between atoms: N_19  and  C_20
REMARK   13  A    between atoms: C_20  and  C_21
REMARK   14  A    between atoms: C_21  and  C_22
REMARK   15  A    between atoms: C_22  and  C_23
REMARK   16  A    between atoms: C_23  and  N_24
REMARK   17  A    between atoms: N_24  and  C_25
REMARK   18  A    between atoms: C_25  and  C_26
REMARK   19  A    between atoms: C_26  and  C_27
REMARK   20  A    between atoms: C_27  and  N_28
REMARK                            x       y       z     vdW  Elec       q    Type
REMARK                         _______ _______ _______ _____ _____    ______ ____
ROOT
ATOM      1  C   UNL     1       3.060   4.259  19.894  0.00  0.00    +0.000 C 
ENDROOT
BRANCH   1   2
ATOM      2  C   UNL     1       2.525   5.665  19.502  0.00  0.00    +0.000 C 
ATOM      3  O   UNL     1       2.259   5.968  18.351  0.00  0.00    +0.000 OA
ATOM      4  N   UNL     1       2.314   6.579  20.538  0.00  0.00    +0.000 N 
ATOM      5  H   UNL     1       2.708   6.421  21.457  0.00  0.00    +0.000 HD
BRANCH   4   6
ATOM      6  C   UNL     1       1.719   7.882  20.257  0.00  0.00    +0.000 C 
BRANCH   6   7
ATOM      7  C   UNL     1       0.733   8.331  21.335  0.00  0.00    +0.000 C 
BRANCH   7   8
ATOM      8  C   UNL     1       0.557   9.849  21.334  0.00  0.00    +0.000 C 
BRANCH   8   9
ATOM      9  C   UNL     1      -0.125  10.304  20.049  0.00  0.00    +0.000 C 
BRANCH   9  10
ATOM     10  N   UNL     1       0.146  11.720  19.819  0.00  0.00    +0.000 NA
ATOM     11  H   UNL     1      -0.571  12.288  20.274  0.00  0.00    +0.000 HD
BRANCH  10  12
ATOM     12  C   UNL     1       1.465  12.067  20.348  0.00  0.00    +0.000 C 
BRANCH  12  13
ATOM     13  C   UNL     1       1.942  13.370  19.725  0.00  0.00    +0.000 C 
BRANCH  13  14
ATOM     14  C   UNL     1       1.795  13.292  18.214  0.00  0.00    +0.000 C 
BRANCH  14  15
ATOM     15  N   UNL     1       2.521  12.118  17.710  0.00  0.00    +0.000 NA
ATOM     16  H   UNL     1       2.406  11.341  18.362  0.00  0.00    +0.000 HD
ATOM     17  H   UNL     1       3.512  12.342  17.620  0.00  0.00    +0.000 HD
ENDBRANCH  14  15
ENDBRANCH  13  14
ENDBRANCH  12  13
ENDBRANCH  10  12
ENDBRANCH   9  10
ENDBRANCH   8   9
ENDBRANCH   7   8
ENDBRANCH   6   7
ENDBRANCH   4   6
ENDBRANCH   1   2
BRANCH   1  18
ATOM     18  C   UNL     1       4.588   4.151  19.590  0.00  0.00    +0.000 C 
ATOM     19  O   UNL     1       5.201   3.088  19.754  0.00  0.00    +0.000 OA
ATOM     20  N   UNL     1       5.227   5.276  19.086  0.00  0.00    +0.000 N 
ATOM     21  H   UNL     1       4.747   6.170  19.023  0.00  0.00    +0.000 HD
BRANCH  20  22
ATOM     22  C   UNL     1       6.629   5.225  18.737  0.00  0.00    +0.000 C 
BRANCH  22  23
ATOM     23  C   UNL     1       6.964   6.194  17.607  0.00  0.00    +0.000 C 
BRANCH  23  24
ATOM     24  C   UNL     1       5.714   6.960  17.184  0.00  0.00    +0.000 C 
BRANCH  24  25
ATOM     25  C   UNL     1       5.364   6.674  15.729  0.00  0.00    +0.000 C 
BRANCH  25  26
ATOM     26  C   UNL     1       5.412   5.172  15.446  0.00  0.00    +0.000 C 
BRANCH  26  27
ATOM     27  C   UNL     1       6.486   4.855  14.410  0.00  0.00    +0.000 C 
BRANCH  27  28
ATOM     28  N   UNL     1       6.169   3.570  13.757  0.00  0.00    +0.000 NA
ATOM     29  C   UNL     1       6.535   3.438  12.505  0.00  0.00    +0.000 C 
ATOM     30  N   UNL     1       7.186   4.428  11.804  0.00  0.00    +0.000 N 
ATOM     31  N   UNL     1       6.251   2.245  11.872  0.00  0.00    +0.000 N 
ATOM     32  H   UNL     1       7.430   5.351  12.230  0.00  0.00    +0.000 HD
ATOM     33  H   UNL     1       7.483   4.361  10.843  0.00  0.00    +0.000 HD
ATOM     34  H   UNL     1       5.756   1.445  12.342  0.00  0.00    +0.000 HD
ATOM     35  H   UNL     1       6.481   2.022  10.910  0.00  0.00    +0.000 HD
ENDBRANCH  27  28
ENDBRANCH  26  27
ENDBRANCH  25  26
ENDBRANCH  24  25
ENDBRANCH  23  24
ENDBRANCH  22  23
ENDBRANCH  20  22
ENDBRANCH   1  18
BRANCH   1  37
ATOM     36  C   UNL     1       1.035   2.972  19.928  0.00  0.00    +0.000 C 
ATOM     37  O   UNL     1       2.248   3.271  19.240  0.00  0.00    +0.000 OA
ENDBRANCH   1  37
TORSDOF 19
ENDMDL
MODEL 9
REMARK VINA RESULT:      -5.9      2.399      3.062
REMARK  Name = 
REMARK  20 active torsions:
REMARK  status: ('A' for Active; 'I' for Inactive)
REMARK    1  A    between atoms: C_1  and  O_2
REMARK    2  A    between atoms: O_2  and  C_3
REMARK    3  A    between atoms: C_3  and  C_4
REMARK    4  A    between atoms: C_3  and  C_17
REMARK    5  A    between atoms: N_6  and  C_7
REMARK    6  A    between atoms: C_7  and  C_8
REMARK    7  A    between atoms: C_8  and  C_9
REMARK    8  A    between atoms: C_9  and  C_10
REMARK    9  A    between atoms: C_10  and  C_11
REMARK   10  A    between atoms: C_11  and  C_12
REMARK   11  A    between atoms: C_12  and  N_13
REMARK   12  A    between atoms: N_19  and  C_20
REMARK   13  A    between atoms: C_20  and  C_21
REMARK   14  A    between atoms: C_21  and  C_22
REMARK   15  A    between atoms: C_22  and  C_23
REMARK   16  A    between atoms: C_23  and  N_24
REMARK   17  A    between atoms: N_24  and  C_25
REMARK   18  A    between atoms: C_25  and  C_26
REMARK   19  A    between atoms: C_26  and  C_27
REMARK   20  A    between atoms: C_27  and  N_28
REMARK                            x       y       z     vdW  Elec       q    Type
REMARK                         _______ _______ _______ _____ _____    ______ ____
ROOT
ATOM      1  C   UNL     1       5.645   4.419  16.628  0.00  0.00    +0.000 C 
ENDROOT
BRANCH   1   2
ATOM      2  C   UNL     1       6.994   4.761  17.320  0.00  0.00    +0.000 C 
ATOM      3  O   UNL     1       8.014   4.120  17.122  0.00  0.00    +0.000 OA
ATOM      4  N   UNL     1       7.016   5.875  18.164  0.00  0.00    +0.000 N 
ATOM      5  H   UNL     1       6.153   6.293  18.492  0.00  0.00    +0.000 HD
BRANCH   4   6
ATOM      6  C   UNL     1       8.269   6.315  18.768  0.00  0.00    +0.000 C 
BRANCH   6   7
ATOM      7  C   UNL     1       8.327   7.827  18.984  0.00  0.00    +0.000 C 
BRANCH   7   8
ATOM      8  C   UNL     1       8.015   8.588  17.695  0.00  0.00    +0.000 C 
BRANCH   8   9
ATOM      9  C   UNL     1       8.572  10.005  17.768  0.00  0.00    +0.000 C 
BRANCH   9  10
ATOM     10  N   UNL     1       9.121  10.253  19.097  0.00  0.00    +0.000 NA
ATOM     11  H   UNL     1       9.379   9.368  19.537  0.00  0.00    +0.000 HD
BRANCH  10  12
ATOM     12  C   UNL     1      10.295  11.120  18.998  0.00  0.00    +0.000 C 
BRANCH  12  13
ATOM     13  C   UNL     1      10.115  12.101  17.851  0.00  0.00    +0.000 C 
BRANCH  13  14
ATOM     14  C   UNL     1       9.836  13.487  18.410  0.00  0.00    +0.000 C 
BRANCH  14  15
ATOM     15  N   UNL     1       8.724  13.416  19.368  0.00  0.00    +0.000 NA
ATOM     16  H   UNL     1       8.207  12.547  19.225  0.00  0.00    +0.000 HD
ATOM     17  H   UNL     1       8.100  14.210  19.225  0.00  0.00    +0.000 HD
ENDBRANCH  14  15
ENDBRANCH  13  14
ENDBRANCH  12  13
ENDBRANCH  10  12
ENDBRANCH   9  10
ENDBRANCH   8   9
ENDBRANCH   7   8
ENDBRANCH   6   7
ENDBRANCH   4   6
ENDBRANCH   1   2
BRANCH   1  18
ATOM     18  C   UNL     1       4.654   3.775  17.648  0.00  0.00    +0.000 C 
ATOM     19  O   UNL     1       4.939   3.684  18.849  0.00  0.00    +0.000 OA
ATOM     20  N   UNL     1       3.422   3.348  17.170  0.00  0.00    +0.000 N 
ATOM     21  H   UNL     1       3.215   3.349  16.175  0.00  0.00    +0.000 HD
BRANCH  20  22
ATOM     22  C   UNL     1       2.442   2.790  18.074  0.00  0.00    +0.000 C 
BRANCH  22  23
ATOM     23  C   UNL     1       1.428   3.839  18.523  0.00  0.00    +0.000 C 
BRANCH  23  24
ATOM     24  C   UNL     1       1.344   3.870  20.046  0.00  0.00    +0.000 C 
BRANCH  24  25
ATOM     25  C   UNL     1       1.843   5.202  20.593  0.00  0.00    +0.000 C 
BRANCH  25  26
ATOM     26  C   UNL     1       2.233   6.143  19.452  0.00  0.00    +0.000 C 
BRANCH  26  27
ATOM     27  C   UNL     1       2.104   7.599  19.889  0.00  0.00    +0.000 C 
BRANCH  27  28
ATOM     28  N   UNL     1       1.204   7.680  21.055  0.00  0.00    +0.000 NA
ATOM     29  C   UNL     1       0.483   8.769  21.170  0.00  0.00    +0.000 C 
ATOM     30  N   UNL     1       0.537   9.804  20.264  0.00  0.00    +0.000 N 
ATOM     31  N   UNL     1      -0.368   8.868  22.252  0.00  0.00    +0.000 N 
ATOM     32  H   UNL     1       1.160   9.785  19.424  0.00  0.00    +0.000 HD
ATOM     33  H   UNL     1      -0.004  10.654  20.319  0.00  0.00    +0.000 HD
ATOM     34  H   UNL     1      -0.462   8.120  22.984  0.00  0.00    +0.000 HD
ATOM     35  H   UNL     1      -0.974   9.657  22.451  0.00  0.00    +0.000 HD
ENDBRANCH  27  28
ENDBRANCH  26  27
ENDBRANCH  25  26
ENDBRANCH  24  25
ENDBRANCH  23  24
ENDBRANCH  22  23
ENDBRANCH  20  22
ENDBRANCH   1  18
BRANCH   1  37
ATOM     36  C   UNL     1       6.172   4.366  14.287  0.00  0.00    +0.000 C 
ATOM     37  O   UNL     1       5.925   3.612  15.473  0.00  0.00    +0.000 OA
ENDBRANCH   1  37
TORSDOF 19
ENDMDL
