MODEL 1
REMARK VINA RESULT:      -6.1      0.000      0.000
REMARK  Name = 
REMARK  4 active torsions:
REMARK  status: ('A' for Active; 'I' for Inactive)
REMARK    1  A    between atoms: C_1  and  O_2
REMARK    2  A    between atoms: O_2  and  C_3
REMARK    3  A    between atoms: C_6  and  P_7
REMARK    4  A    between atoms: P_7  and  N_10
REMARK                            x       y       z     vdW  Elec       q    Type
REMARK                         _______ _______ _______ _____ _____    ______ ____
ROOT
ATOM      1  P   UNL     1       3.895   5.370  18.004  0.00  0.00    +0.000 P 
ATOM      2  S   UNL     1       4.989   4.477  19.358  0.00  0.00    +0.000 S 
ATOM      3  S   UNL     1       2.626   3.979  17.393  0.00  0.00    +0.000 SA
ENDROOT
BRANCH   1   7
ATOM      4  C   UNL     1       1.364   8.900  19.613  0.00  0.00    +0.000 A 
ATOM      5  C   UNL     1       1.794   8.904  18.285  0.00  0.00    +0.000 A 
ATOM      6  C   UNL     1       2.525   7.838  17.787  0.00  0.00    +0.000 A 
ATOM      7  C   UNL     1       2.821   6.737  18.612  0.00  0.00    +0.000 A 
ATOM      8  C   UNL     1       2.398   6.745  19.953  0.00  0.00    +0.000 A 
ATOM      9  C   UNL     1       1.619   7.817  20.433  0.00  0.00    +0.000 A 
BRANCH   4  11
ATOM     10  C   UNL     1      -0.535  10.272  19.387  0.00  0.00    +0.000 C 
ATOM     11  O   UNL     1       0.706  10.028  20.022  0.00  0.00    +0.000 OA
ENDBRANCH   4  11
ENDBRANCH   1   7
BRANCH   1  12
ATOM     12  N   UNL     1       4.762   6.048  16.745  0.00  0.00    +0.000 NA
ATOM     13  C   UNL     1       5.242   5.168  15.647  0.00  0.00    +0.000 C 
ATOM     14  C   UNL     1       6.696   4.670  15.782  0.00  0.00    +0.000 C 
ATOM     15  O   UNL     1       7.603   5.761  16.003  0.00  0.00    +0.000 OA
ATOM     16  C   UNL     1       7.216   6.466  17.186  0.00  0.00    +0.000 C 
ATOM     17  C   UNL     1       5.810   7.043  17.019  0.00  0.00    +0.000 C 
ENDBRANCH   1  12
TORSDOF 3
ENDMDL
MODEL 2
REMARK VINA RESULT:      -6.1      0.201      1.192
REMARK  Name = 
REMARK  4 active torsions:
REMARK  status: ('A' for Active; 'I' for Inactive)
REMARK    1  A    between atoms: C_1  and  O_2
REMARK    2  A    between atoms: O_2  and  C_3
REMARK    3  A    between atoms: C_6  and  P_7
REMARK    4  A    between atoms: P_7  and  N_10
REMARK                            x       y       z     vdW  Elec       q    Type
REMARK                         _______ _______ _______ _____ _____    ______ ____
ROOT
ATOM      1  P   UNL     1       3.865   5.276  17.944  0.00  0.00    +0.000 P 
ATOM      2  S   UNL     1       4.948   4.293  19.245  0.00  0.00    +0.000 S 
ATOM      3  S   UNL     1       2.459   3.996  17.397  0.00  0.00    +0.000 SA
ENDROOT
BRANCH   1   7
ATOM      4  C   UNL     1       1.360   8.838  19.523  0.00  0.00    +0.000 A 
ATOM      5  C   UNL     1       1.665   7.774  20.373  0.00  0.00    +0.000 A 
ATOM      6  C   UNL     1       2.439   6.719  19.918  0.00  0.00    +0.000 A 
ATOM      7  C   UNL     1       2.938   6.725  18.602  0.00  0.00    +0.000 A 
ATOM      8  C   UNL     1       2.616   7.793  17.746  0.00  0.00    +0.000 A 
ATOM      9  C   UNL     1       1.862   8.879  18.236  0.00  0.00    +0.000 A 
BRANCH   4  11
ATOM     10  C   UNL     1      -0.253  10.503  19.111  0.00  0.00    +0.000 C 
ATOM     11  O   UNL     1       0.535   9.795  20.050  0.00  0.00    +0.000 OA
ENDBRANCH   4  11
ENDBRANCH   1   7
BRANCH   1  12
ATOM     12  N   UNL     1       4.724   5.885  16.644  0.00  0.00    +0.000 NA
ATOM     13  C   UNL     1       5.212   4.944  15.602  0.00  0.00    +0.000 C 
ATOM     14  C   UNL     1       6.672   4.473  15.765  0.00  0.00    +0.000 C 
ATOM     15  O   UNL     1       7.566   5.586  15.916  0.00  0.00    +0.000 OA
ATOM     16  C   UNL     1       7.173   6.358  17.053  0.00  0.00    +0.000 C 
ATOM     17  C   UNL     1       5.760   6.908  16.853  0.00  0.00    +0.000 C 
ENDBRANCH   1  12
TORSDOF 3
ENDMDL
MODEL 3
REMARK VINA RESULT:      -5.9      2.875      3.557
REMARK  Name = 
REMARK  4 active torsions:
REMARK  status: ('A' for Active; 'I' for Inactive)
REMARK    1  A    between atoms: C_1  and  O_2
REMARK    2  A    between atoms: O_2  and  C_3
REMARK    3  A    between atoms: C_6  and  P_7
REMARK    4  A    between atoms: P_7  and  N_10
REMARK                            x       y       z     vdW  Elec       q    Type
REMARK                         _______ _______ _______ _____ _____    ______ ____
ROOT
ATOM      1  P   UNL     1       3.907   5.498  17.816  0.00  0.00    +0.000 P 
ATOM      2  S   UNL     1       5.147   6.045  16.404  0.00  0.00    +0.000 S 
ATOM      3  S   UNL     1       5.072   4.995  19.335  0.00  0.00    +0.000 SA
ENDROOT
BRANCH   1   7
ATOM      4  C   UNL     1       1.345   8.930  19.580  0.00  0.00    +0.000 A 
ATOM      5  C   UNL     1       1.714   8.962  18.235  0.00  0.00    +0.000 A 
ATOM      6  C   UNL     1       2.454   7.925  17.691  0.00  0.00    +0.000 A 
ATOM      7  C   UNL     1       2.821   6.825  18.489  0.00  0.00    +0.000 A 
ATOM      8  C   UNL     1       2.458   6.806  19.848  0.00  0.00    +0.000 A 
ATOM      9  C   UNL     1       1.670   7.848  20.375  0.00  0.00    +0.000 A 
BRANCH   4  11
ATOM     10  C   UNL     1      -0.089   9.841  21.211  0.00  0.00    +0.000 C 
ATOM     11  O   UNL     1       0.672  10.034  20.032  0.00  0.00    +0.000 OA
ENDBRANCH   4  11
ENDBRANCH   1   7
BRANCH   1  12
ATOM     12  N   UNL     1       2.852   4.276  17.380  0.00  0.00    +0.000 NA
ATOM     13  C   UNL     1       1.471   4.290  17.931  0.00  0.00    +0.000 C 
ATOM     14  C   UNL     1       1.247   3.418  19.184  0.00  0.00    +0.000 C 
ATOM     15  O   UNL     1       1.706   2.074  18.974  0.00  0.00    +0.000 OA
ATOM     16  C   UNL     1       3.096   2.096  18.636  0.00  0.00    +0.000 C 
ATOM     17  C   UNL     1       3.310   2.880  17.340  0.00  0.00    +0.000 C 
ENDBRANCH   1  12
TORSDOF 3
ENDMDL
MODEL 4
REMARK VINA RESULT:      -5.9      3.508      6.180
REMARK  Name = 
REMARK  4 active torsions:
REMARK  status: ('A' for Active; 'I' for Inactive)
REMARK    1  A    between atoms: C_1  and  O_2
REMARK    2  A    between atoms: O_2  and  C_3
REMARK    3  A    between atoms: C_6  and  P_7
REMARK    4  A    between atoms: P_7  and  N_10
REMARK                            x       y       z     vdW  Elec       q    Type
REMARK                         _______ _______ _______ _____ _____    ______ ____
ROOT
ATOM      1  P   UNL     1       2.967   5.546  18.467  0.00  0.00    +0.000 P 
ATOM      2  S   UNL     1       2.171   7.334  18.486  0.00  0.00    +0.000 S 
ATOM      3  S   UNL     1       1.603   4.403  17.601  0.00  0.00    +0.000 SA
ENDROOT
BRANCH   1   7
ATOM      4  C   UNL     1       6.644   5.150  15.678  0.00  0.00    +0.000 A 
ATOM      5  C   UNL     1       6.596   6.178  16.620  0.00  0.00    +0.000 A 
ATOM      6  C   UNL     1       5.515   6.286  17.478  0.00  0.00    +0.000 A 
ATOM      7  C   UNL     1       4.468   5.348  17.418  0.00  0.00    +0.000 A 
ATOM      8  C   UNL     1       4.515   4.322  16.457  0.00  0.00    +0.000 A 
ATOM      9  C   UNL     1       5.641   4.200  15.619  0.00  0.00    +0.000 A 
BRANCH   4  11
ATOM     10  C   UNL     1       7.432   4.953  13.468  0.00  0.00    +0.000 C 
ATOM     11  O   UNL     1       7.723   5.172  14.836  0.00  0.00    +0.000 OA
ENDBRANCH   4  11
ENDBRANCH   1   7
BRANCH   1  12
ATOM     12  N   UNL     1       3.429   4.975  19.969  0.00  0.00    +0.000 NA
ATOM     13  C   UNL     1       4.317   3.785  20.042  0.00  0.00    +0.000 C 
ATOM     14  C   UNL     1       3.602   2.433  20.250  0.00  0.00    +0.000 C 
ATOM     15  O   UNL     1       2.711   2.482  21.374  0.00  0.00    +0.000 OA
ATOM     16  C   UNL     1       1.747   3.518  21.169  0.00  0.00    +0.000 C 
ATOM     17  C   UNL     1       2.446   4.874  21.059  0.00  0.00    +0.000 C 
ENDBRANCH   1  12
TORSDOF 3
ENDMDL
MODEL 5
REMARK VINA RESULT:      -5.7      2.902      3.822
REMARK  Name = 
REMARK  4 active torsions:
REMARK  status: ('A' for Active; 'I' for Inactive)
REMARK    1  A    between atoms: C_1  and  O_2
REMARK    2  A    between atoms: O_2  and  C_3
REMARK    3  A    between atoms: C_6  and  P_7
REMARK    4  A    between atoms: P_7  and  N_10
REMARK                            x       y       z     vdW  Elec       q    Type
REMARK                         _______ _______ _______ _____ _____    ______ ____
ROOT
ATOM      1  P   UNL     1       3.965   5.239  17.773  0.00  0.00    +0.000 P 
ATOM      2  S   UNL     1       5.222   5.592  16.315  0.00  0.00    +0.000 S 
ATOM      3  S   UNL     1       5.106   4.674  19.288  0.00  0.00    +0.000 SA
ENDROOT
BRANCH   1   7
ATOM      4  C   UNL     1       1.474   8.832  19.304  0.00  0.00    +0.000 A 
ATOM      5  C   UNL     1       1.798   7.791  20.176  0.00  0.00    +0.000 A 
ATOM      6  C   UNL     1       2.568   6.728  19.735  0.00  0.00    +0.000 A 
ATOM      7  C   UNL     1       3.044   6.701  18.411  0.00  0.00    +0.000 A 
ATOM      8  C   UNL     1       2.702   7.745  17.533  0.00  0.00    +0.000 A 
ATOM      9  C   UNL     1       1.953   8.841  18.008  0.00  0.00    +0.000 A 
BRANCH   4  11
ATOM     10  C   UNL     1       0.949  11.124  19.416  0.00  0.00    +0.000 C 
ATOM     11  O   UNL     1       0.655   9.800  19.821  0.00  0.00    +0.000 OA
ENDBRANCH   4  11
ENDBRANCH   1   7
BRANCH   1  12
ATOM     12  N   UNL     1       2.775   4.122  17.410  0.00  0.00    +0.000 NA
ATOM     13  C   UNL     1       1.452   4.238  18.080  0.00  0.00    +0.000 C 
ATOM     14  C   UNL     1       1.263   3.358  19.333  0.00  0.00    +0.000 C 
ATOM     15  O   UNL     1       1.584   1.986  19.060  0.00  0.00    +0.000 OA
ATOM     16  C   UNL     1       2.936   1.899  18.602  0.00  0.00    +0.000 C 
ATOM     17  C   UNL     1       3.106   2.693  17.306  0.00  0.00    +0.000 C 
ENDBRANCH   1  12
TORSDOF 3
ENDMDL
MODEL 6
REMARK VINA RESULT:      -5.6      2.807      3.568
REMARK  Name = 
REMARK  4 active torsions:
REMARK  status: ('A' for Active; 'I' for Inactive)
REMARK    1  A    between atoms: C_1  and  O_2
REMARK    2  A    between atoms: O_2  and  C_3
REMARK    3  A    between atoms: C_6  and  P_7
REMARK    4  A    between atoms: P_7  and  N_10
REMARK                            x       y       z     vdW  Elec       q    Type
REMARK                         _______ _______ _______ _____ _____    ______ ____
ROOT
ATOM      1  P   UNL     1       3.275   5.475  19.225  0.00  0.00    +0.000 P 
ATOM      2  S   UNL     1       5.228   5.427  19.349  0.00  0.00    +0.000 S 
ATOM      3  S   UNL     1       2.649   4.743  20.953  0.00  0.00    +0.000 SA
ENDROOT
BRANCH   1   7
ATOM      4  C   UNL     1       1.199   9.604  18.915  0.00  0.00    +0.000 A 
ATOM      5  C   UNL     1       1.179   8.907  20.124  0.00  0.00    +0.000 A 
ATOM      6  C   UNL     1       1.823   7.686  20.234  0.00  0.00    +0.000 A 
ATOM      7  C   UNL     1       2.518   7.151  19.133  0.00  0.00    +0.000 A 
ATOM      8  C   UNL     1       2.523   7.851  17.914  0.00  0.00    +0.000 A 
ATOM      9  C   UNL     1       1.898   9.112  17.829  0.00  0.00    +0.000 A 
BRANCH   4  11
ATOM     10  C   UNL     1       0.733  11.660  19.963  0.00  0.00    +0.000 C 
ATOM     11  O   UNL     1       0.478  10.768  18.894  0.00  0.00    +0.000 OA
ENDBRANCH   4  11
ENDBRANCH   1   7
BRANCH   1  12
ATOM     12  N   UNL     1       2.642   4.658  17.910  0.00  0.00    +0.000 NA
ATOM     13  C   UNL     1       1.281   4.069  18.019  0.00  0.00    +0.000 C 
ATOM     14  C   UNL     1       1.233   2.574  18.398  0.00  0.00    +0.000 C 
ATOM     15  O   UNL     1       2.068   1.789  17.533  0.00  0.00    +0.000 OA
ATOM     16  C   UNL     1       3.412   2.269  17.610  0.00  0.00    +0.000 C 
ATOM     17  C   UNL     1       3.480   3.724  17.143  0.00  0.00    +0.000 C 
ENDBRANCH   1  12
TORSDOF 3
ENDMDL
MODEL 7
REMARK VINA RESULT:      -5.6      3.515      6.104
REMARK  Name = 
REMARK  4 active torsions:
REMARK  status: ('A' for Active; 'I' for Inactive)
REMARK    1  A    between atoms: C_1  and  O_2
REMARK    2  A    between atoms: O_2  and  C_3
REMARK    3  A    between atoms: C_6  and  P_7
REMARK    4  A    between atoms: P_7  and  N_10
REMARK                            x       y       z     vdW  Elec       q    Type
REMARK                         _______ _______ _______ _____ _____    ______ ____
ROOT
ATOM      1  P   UNL     1       2.908   5.616  18.503  0.00  0.00    +0.000 P 
ATOM      2  S   UNL     1       2.048   7.367  18.670  0.00  0.00    +0.000 S 
ATOM      3  S   UNL     1       1.537   4.467  17.657  0.00  0.00    +0.000 SA
ENDROOT
BRANCH   1   7
ATOM      4  C   UNL     1       6.636   5.313  15.771  0.00  0.00    +0.000 A 
ATOM      5  C   UNL     1       5.615   4.369  15.657  0.00  0.00    +0.000 A 
ATOM      6  C   UNL     1       4.483   4.469  16.449  0.00  0.00    +0.000 A 
ATOM      7  C   UNL     1       4.348   5.535  17.358  0.00  0.00    +0.000 A 
ATOM      8  C   UNL     1       5.387   6.476  17.478  0.00  0.00    +0.000 A 
ATOM      9  C   UNL     1       6.514   6.384  16.636  0.00  0.00    +0.000 A 
BRANCH   4  11
ATOM     10  C   UNL     1       7.484   4.951  13.604  0.00  0.00    +0.000 C 
ATOM     11  O   UNL     1       7.738   5.086  14.990  0.00  0.00    +0.000 OA
ENDBRANCH   4  11
ENDBRANCH   1   7
BRANCH   1  12
ATOM     12  N   UNL     1       3.482   4.984  19.941  0.00  0.00    +0.000 NA
ATOM     13  C   UNL     1       4.388   3.806  19.896  0.00  0.00    +0.000 C 
ATOM     14  C   UNL     1       3.706   2.435  20.089  0.00  0.00    +0.000 C 
ATOM     15  O   UNL     1       2.896   2.419  21.274  0.00  0.00    +0.000 OA
ATOM     16  C   UNL     1       1.907   3.448  21.186  0.00  0.00    +0.000 C 
ATOM     17  C   UNL     1       2.580   4.818  21.091  0.00  0.00    +0.000 C 
ENDBRANCH   1  12
TORSDOF 3
ENDMDL
MODEL 8
REMARK VINA RESULT:      -5.5      2.345      5.698
REMARK  Name = 
REMARK  4 active torsions:
REMARK  status: ('A' for Active; 'I' for Inactive)
REMARK    1  A    between atoms: C_1  and  O_2
REMARK    2  A    between atoms: O_2  and  C_3
REMARK    3  A    between atoms: C_6  and  P_7
REMARK    4  A    between atoms: P_7  and  N_10
REMARK                            x       y       z     vdW  Elec       q    Type
REMARK                         _______ _______ _______ _____ _____    ______ ____
ROOT
ATOM      1  P   UNL     1       3.596   3.309  18.593  0.00  0.00    +0.000 P 
ATOM      2  S   UNL     1       3.307   1.668  17.567  0.00  0.00    +0.000 S 
ATOM      3  S   UNL     1       4.230   2.685  20.361  0.00  0.00    +0.000 SA
ENDROOT
BRANCH   1   7
ATOM      4  C   UNL     1       6.847   6.238  17.073  0.00  0.00    +0.000 A 
ATOM      5  C   UNL     1       6.798   5.898  18.426  0.00  0.00    +0.000 A 
ATOM      6  C   UNL     1       5.848   5.000  18.884  0.00  0.00    +0.000 A 
ATOM      7  C   UNL     1       4.941   4.410  17.984  0.00  0.00    +0.000 A 
ATOM      8  C   UNL     1       4.986   4.767  16.624  0.00  0.00    +0.000 A 
ATOM      9  C   UNL     1       5.985   5.651  16.167  0.00  0.00    +0.000 A 
BRANCH   4  11
ATOM     10  C   UNL     1       7.929   8.245  17.660  0.00  0.00    +0.000 C 
ATOM     11  O   UNL     1       7.779   7.182  16.736  0.00  0.00    +0.000 OA
ENDBRANCH   4  11
ENDBRANCH   1   7
BRANCH   1  12
ATOM     12  N   UNL     1       2.258   4.306  18.702  0.00  0.00    +0.000 NA
ATOM     13  C   UNL     1       2.392   5.734  18.311  0.00  0.00    +0.000 C 
ATOM     14  C   UNL     1       2.656   6.718  19.470  0.00  0.00    +0.000 C 
ATOM     15  O   UNL     1       1.690   6.559  20.519  0.00  0.00    +0.000 OA
ATOM     16  C   UNL     1       1.733   5.213  21.002  0.00  0.00    +0.000 C 
ATOM     17  C   UNL     1       1.377   4.239  19.878  0.00  0.00    +0.000 C 
ENDBRANCH   1  12
TORSDOF 3
ENDMDL
MODEL 9
REMARK VINA RESULT:      -5.5      2.863      3.538
REMARK  Name = 
REMARK  4 active torsions:
REMARK  status: ('A' for Active; 'I' for Inactive)
REMARK    1  A    between atoms: C_1  and  O_2
REMARK    2  A    between atoms: O_2  and  C_3
REMARK    3  A    between atoms: C_6  and  P_7
REMARK    4  A    between atoms: P_7  and  N_10
REMARK                            x       y       z     vdW  Elec       q    Type
REMARK                         _______ _______ _______ _____ _____    ______ ____
ROOT
ATOM      1  P   UNL     1       4.750   5.088  17.700  0.00  0.00    +0.000 P 
ATOM      2  S   UNL     1       5.661   5.474  16.011  0.00  0.00    +0.000 S 
ATOM      3  S   UNL     1       6.179   5.166  19.066  0.00  0.00    +0.000 SA
ENDROOT
BRANCH   1   7
ATOM      4  C   UNL     1       1.805   8.346  19.171  0.00  0.00    +0.000 A 
ATOM      5  C   UNL     1       2.290   8.390  17.863  0.00  0.00    +0.000 A 
ATOM      6  C   UNL     1       3.147   7.403  17.405  0.00  0.00    +0.000 A 
ATOM      7  C   UNL     1       3.517   6.341  18.251  0.00  0.00    +0.000 A 
ATOM      8  C   UNL     1       3.036   6.310  19.572  0.00  0.00    +0.000 A 
ATOM      9  C   UNL     1       2.132   7.298  20.010  0.00  0.00    +0.000 A 
BRANCH   4  11
ATOM     10  C   UNL     1       1.028  10.510  18.660  0.00  0.00    +0.000 C 
ATOM     11  O   UNL     1       1.017   9.403  19.543  0.00  0.00    +0.000 OA
ENDBRANCH   4  11
ENDBRANCH   1   7
BRANCH   1  12
ATOM     12  N   UNL     1       3.913   3.641  17.723  0.00  0.00    +0.000 NA
ATOM     13  C   UNL     1       2.526   3.605  17.190  0.00  0.00    +0.000 C 
ATOM     14  C   UNL     1       1.406   3.748  18.242  0.00  0.00    +0.000 C 
ATOM     15  O   UNL     1       1.573   2.806  19.313  0.00  0.00    +0.000 OA
ATOM     16  C   UNL     1       2.848   3.008  19.927  0.00  0.00    +0.000 C 
ATOM     17  C   UNL     1       3.966   2.773  18.909  0.00  0.00    +0.000 C 
ENDBRANCH   1  12
TORSDOF 3
ENDMDL
