MODEL 1
REMARK VINA RESULT:      -7.2      0.000      0.000
REMARK  Name = 
REMARK  7 active torsions:
REMARK  status: ('A' for Active; 'I' for Inactive)
REMARK    1  A    between atoms: C_1  and  N_2
REMARK    2  A    between atoms: N_2  and  C_3
REMARK    3  A    between atoms: N_2  and  C_4
REMARK    4  A    between atoms: N_7  and  C_8
REMARK    5  A    between atoms: C_8  and  C_9
REMARK    6  A    between atoms: C_16  and  C_17
REMARK    7  A    between atoms: C_24  and  C_25
REMARK                            x       y       z     vdW  Elec       q    Type
REMARK                         _______ _______ _______ _____ _____    ______ ____
ROOT
ATOM      1  C   UNL     1       0.925  13.830  20.123  0.00  0.00    +0.000 C 
ATOM      2  C   UNL     1      -0.194  13.911  19.039  0.00  0.00    +0.000 C 
ATOM      3  C   UNL     1      -0.920  12.615  18.621  0.00  0.00    +0.000 C 
ATOM      4  N   UNL     1      -1.418  11.711  19.647  0.00  0.00    +0.000 NA
ATOM      5  C   UNL     1      -0.557  11.528  20.827  0.00  0.00    +0.000 C 
ATOM      6  C   UNL     1      -0.756  12.753  21.805  0.00  0.00    +0.000 C 
ATOM      7  C   UNL     1       0.311  13.841  21.555  0.00  0.00    +0.000 C 
ATOM      8  C   UNL     1       0.966  11.258  20.557  0.00  0.00    +0.000 C 
ATOM      9  C   UNL     1       1.712  12.498  20.012  0.00  0.00    +0.000 C 
ENDROOT
BRANCH   6  10
ATOM     10  C   UNL     1      -2.220  13.254  21.892  0.00  0.00    +0.000 A 
ATOM     11  C   UNL     1      -2.514  14.576  21.515  0.00  0.00    +0.000 A 
ATOM     12  C   UNL     1      -3.804  15.105  21.666  0.00  0.00    +0.000 A 
ATOM     13  C   UNL     1      -4.826  14.323  22.191  0.00  0.00    +0.000 A 
ATOM     14  C   UNL     1      -4.569  13.005  22.538  0.00  0.00    +0.000 A 
ATOM     15  C   UNL     1      -3.284  12.474  22.377  0.00  0.00    +0.000 A 
ENDBRANCH   6  10
BRANCH   8  16
ATOM     16  C   UNL     1       1.339   9.974  19.797  0.00  0.00    +0.000 A 
ATOM     17  C   UNL     1       1.588   9.955  18.411  0.00  0.00    +0.000 A 
ATOM     18  C   UNL     1       2.004   8.797  17.751  0.00  0.00    +0.000 A 
ATOM     19  C   UNL     1       2.186   7.622  18.464  0.00  0.00    +0.000 A 
ATOM     20  C   UNL     1       1.927   7.604  19.833  0.00  0.00    +0.000 A 
ATOM     21  C   UNL     1       1.498   8.763  20.491  0.00  0.00    +0.000 A 
ENDBRANCH   8  16
BRANCH   1  23
ATOM     22  C   UNL     1       3.308  14.601  20.346  0.00  0.00    +0.000 C 
ATOM     23  N   UNL     1       1.925  14.953  20.000  0.00  0.00    +0.000 NA
ATOM     24  C   UNL     1       1.923  15.659  18.718  0.00  0.00    +0.000 C 
ENDBRANCH   1  23
BRANCH   4  25
ATOM     25  C   UNL     1      -1.908  10.420  19.137  0.00  0.00    +0.000 C 
BRANCH  25  26
ATOM     26  C   UNL     1      -2.642  10.478  17.818  0.00  0.00    +0.000 A 
ATOM     27  C   UNL     1      -3.850  11.181  17.714  0.00  0.00    +0.000 A 
ATOM     28  C   UNL     1      -4.483  11.316  16.481  0.00  0.00    +0.000 A 
ATOM     29  C   UNL     1      -3.913  10.757  15.338  0.00  0.00    +0.000 A 
ATOM     30  C   UNL     1      -2.722  10.038  15.434  0.00  0.00    +0.000 A 
ATOM     31  C   UNL     1      -2.094   9.888  16.670  0.00  0.00    +0.000 A 
ENDBRANCH  25  26
ENDBRANCH   4  25
TORSDOF 5
ENDMDL
MODEL 2
REMARK VINA RESULT:      -7.1      0.431      1.343
REMARK  Name = 
REMARK  7 active torsions:
REMARK  status: ('A' for Active; 'I' for Inactive)
REMARK    1  A    between atoms: C_1  and  N_2
REMARK    2  A    between atoms: N_2  and  C_3
REMARK    3  A    between atoms: N_2  and  C_4
REMARK    4  A    between atoms: N_7  and  C_8
REMARK    5  A    between atoms: C_8  and  C_9
REMARK    6  A    between atoms: C_16  and  C_17
REMARK    7  A    between atoms: C_24  and  C_25
REMARK                            x       y       z     vdW  Elec       q    Type
REMARK                         _______ _______ _______ _____ _____    ______ ____
ROOT
ATOM      1  C   UNL     1       0.999  13.948  20.074  0.00  0.00    +0.000 C 
ATOM      2  C   UNL     1      -0.132  14.041  19.004  0.00  0.00    +0.000 C 
ATOM      3  C   UNL     1      -0.881  12.754  18.599  0.00  0.00    +0.000 C 
ATOM      4  N   UNL     1      -1.378  11.859  19.633  0.00  0.00    +0.000 NA
ATOM      5  C   UNL     1      -0.504  11.668  20.803  0.00  0.00    +0.000 C 
ATOM      6  C   UNL     1      -0.674  12.898  21.780  0.00  0.00    +0.000 C 
ATOM      7  C   UNL     1       0.404  13.971  21.514  0.00  0.00    +0.000 C 
ATOM      8  C   UNL     1       1.011  11.376  20.514  0.00  0.00    +0.000 C 
ATOM      9  C   UNL     1       1.767  12.605  19.956  0.00  0.00    +0.000 C 
ENDROOT
BRANCH   6  10
ATOM     10  C   UNL     1      -2.130  13.419  21.884  0.00  0.00    +0.000 A 
ATOM     11  C   UNL     1      -3.135  12.553  22.348  0.00  0.00    +0.000 A 
ATOM     12  C   UNL     1      -4.480  12.946  22.371  0.00  0.00    +0.000 A 
ATOM     13  C   UNL     1      -4.849  14.213  21.936  0.00  0.00    +0.000 A 
ATOM     14  C   UNL     1      -3.872  15.099  21.505  0.00  0.00    +0.000 A 
ATOM     15  C   UNL     1      -2.528  14.710  21.494  0.00  0.00    +0.000 A 
ENDBRANCH   6  10
BRANCH   8  16
ATOM     16  C   UNL     1       1.356  10.086  19.753  0.00  0.00    +0.000 A 
ATOM     17  C   UNL     1       1.623  10.065  18.371  0.00  0.00    +0.000 A 
ATOM     18  C   UNL     1       2.014   8.898  17.710  0.00  0.00    +0.000 A 
ATOM     19  C   UNL     1       2.152   7.716  18.420  0.00  0.00    +0.000 A 
ATOM     20  C   UNL     1       1.875   7.699  19.785  0.00  0.00    +0.000 A 
ATOM     21  C   UNL     1       1.471   8.867  20.443  0.00  0.00    +0.000 A 
ENDBRANCH   8  16
BRANCH   1  23
ATOM     22  C   UNL     1       2.375  15.406  18.555  0.00  0.00    +0.000 C 
ATOM     23  N   UNL     1       2.013  15.056  19.936  0.00  0.00    +0.000 NA
ATOM     24  C   UNL     1       1.706  16.285  20.670  0.00  0.00    +0.000 C 
ENDBRANCH   1  23
BRANCH   4  25
ATOM     25  C   UNL     1      -1.892  10.574  19.133  0.00  0.00    +0.000 C 
BRANCH  25  26
ATOM     26  C   UNL     1      -2.558  10.623  17.778  0.00  0.00    +0.000 A 
ATOM     27  C   UNL     1      -2.016   9.908  16.701  0.00  0.00    +0.000 A 
ATOM     28  C   UNL     1      -2.675   9.873  15.475  0.00  0.00    +0.000 A 
ATOM     29  C   UNL     1      -3.885  10.546  15.313  0.00  0.00    +0.000 A 
ATOM     30  C   UNL     1      -4.422  11.278  16.372  0.00  0.00    +0.000 A 
ATOM     31  C   UNL     1      -3.756  11.327  17.596  0.00  0.00    +0.000 A 
ENDBRANCH  25  26
ENDBRANCH   4  25
TORSDOF 5
ENDMDL
MODEL 3
REMARK VINA RESULT:      -6.9      0.343      1.263
REMARK  Name = 
REMARK  7 active torsions:
REMARK  status: ('A' for Active; 'I' for Inactive)
REMARK    1  A    between atoms: C_1  and  N_2
REMARK    2  A    between atoms: N_2  and  C_3
REMARK    3  A    between atoms: N_2  and  C_4
REMARK    4  A    between atoms: N_7  and  C_8
REMARK    5  A    between atoms: C_8  and  C_9
REMARK    6  A    between atoms: C_16  and  C_17
REMARK    7  A    between atoms: C_24  and  C_25
REMARK                            x       y       z     vdW  Elec       q    Type
REMARK                         _______ _______ _______ _____ _____    ______ ____
ROOT
ATOM      1  C   UNL     1       0.855  13.993  20.097  0.00  0.00    +0.000 C 
ATOM      2  C   UNL     1      -0.210  14.020  18.959  0.00  0.00    +0.000 C 
ATOM      3  C   UNL     1      -0.878  12.695  18.532  0.00  0.00    +0.000 C 
ATOM      4  N   UNL     1      -1.400  11.796  19.551  0.00  0.00    +0.000 NA
ATOM      5  C   UNL     1      -0.593  11.662  20.775  0.00  0.00    +0.000 C 
ATOM      6  C   UNL     1      -0.875  12.899  21.717  0.00  0.00    +0.000 C 
ATOM      7  C   UNL     1       0.172  14.014  21.497  0.00  0.00    +0.000 C 
ATOM      8  C   UNL     1       0.949  11.432  20.585  0.00  0.00    +0.000 C 
ATOM      9  C   UNL     1       1.685  12.683  20.051  0.00  0.00    +0.000 C 
ENDROOT
BRANCH   6  10
ATOM     10  C   UNL     1      -2.355  13.358  21.722  0.00  0.00    +0.000 A 
ATOM     11  C   UNL     1      -3.334  12.503  22.258  0.00  0.00    +0.000 A 
ATOM     12  C   UNL     1      -4.696  12.831  22.201  0.00  0.00    +0.000 A 
ATOM     13  C   UNL     1      -5.107  14.021  21.611  0.00  0.00    +0.000 A 
ATOM     14  C   UNL     1      -4.158  14.897  21.106  0.00  0.00    +0.000 A 
ATOM     15  C   UNL     1      -2.798  14.575  21.174  0.00  0.00    +0.000 A 
ENDBRANCH   6  10
BRANCH   8  16
ATOM     16  C   UNL     1       1.395  10.146  19.871  0.00  0.00    +0.000 A 
ATOM     17  C   UNL     1       1.479   8.902  20.526  0.00  0.00    +0.000 A 
ATOM     18  C   UNL     1       1.808   7.728  19.845  0.00  0.00    +0.000 A 
ATOM     19  C   UNL     1       2.061   7.768  18.482  0.00  0.00    +0.000 A 
ATOM     20  C   UNL     1       2.006   8.987  17.810  0.00  0.00    +0.000 A 
ATOM     21  C   UNL     1       1.688  10.164  18.497  0.00  0.00    +0.000 A 
ENDBRANCH   8  16
BRANCH   1  23
ATOM     22  C   UNL     1       2.821  15.216  21.080  0.00  0.00    +0.000 C 
ATOM     23  N   UNL     1       1.827  15.142  20.000  0.00  0.00    +0.000 NA
ATOM     24  C   UNL     1       2.515  15.278  18.714  0.00  0.00    +0.000 C 
ENDBRANCH   1  23
BRANCH   4  25
ATOM     25  C   UNL     1      -1.827  10.483  19.045  0.00  0.00    +0.000 C 
BRANCH  25  26
ATOM     26  C   UNL     1      -2.602  10.506  17.748  0.00  0.00    +0.000 A 
ATOM     27  C   UNL     1      -3.816  11.202  17.665  0.00  0.00    +0.000 A 
ATOM     28  C   UNL     1      -4.488  11.305  16.450  0.00  0.00    +0.000 A 
ATOM     29  C   UNL     1      -3.951  10.720  15.303  0.00  0.00    +0.000 A 
ATOM     30  C   UNL     1      -2.755  10.007  15.380  0.00  0.00    +0.000 A 
ATOM     31  C   UNL     1      -2.088   9.889  16.599  0.00  0.00    +0.000 A 
ENDBRANCH  25  26
ENDBRANCH   4  25
TORSDOF 5
ENDMDL
MODEL 4
REMARK VINA RESULT:      -6.8      5.422     10.011
REMARK  Name = 
REMARK  7 active torsions:
REMARK  status: ('A' for Active; 'I' for Inactive)
REMARK    1  A    between atoms: C_1  and  N_2
REMARK    2  A    between atoms: N_2  and  C_3
REMARK    3  A    between atoms: N_2  and  C_4
REMARK    4  A    between atoms: N_7  and  C_8
REMARK    5  A    between atoms: C_8  and  C_9
REMARK    6  A    between atoms: C_16  and  C_17
REMARK    7  A    between atoms: C_24  and  C_25
REMARK                            x       y       z     vdW  Elec       q    Type
REMARK                         _______ _______ _______ _____ _____    ______ ____
ROOT
ATOM      1  C   UNL     1       5.965   4.571  15.637  0.00  0.00    +0.000 C 
ATOM      2  C   UNL     1       5.159   5.906  15.603  0.00  0.00    +0.000 C 
ATOM      3  C   UNL     1       4.253   6.261  16.800  0.00  0.00    +0.000 C 
ATOM      4  N   UNL     1       4.775   6.141  18.153  0.00  0.00    +0.000 NA
ATOM      5  C   UNL     1       5.641   4.979  18.416  0.00  0.00    +0.000 C 
ATOM      6  C   UNL     1       7.094   5.289  17.878  0.00  0.00    +0.000 C 
ATOM      7  C   UNL     1       7.285   4.740  16.447  0.00  0.00    +0.000 C 
ATOM      8  C   UNL     1       5.131   3.586  17.904  0.00  0.00    +0.000 C 
ATOM      9  C   UNL     1       5.164   3.458  16.363  0.00  0.00    +0.000 C 
ENDROOT
BRANCH   6  10
ATOM     10  C   UNL     1       7.548   6.754  18.103  0.00  0.00    +0.000 A 
ATOM     11  C   UNL     1       7.123   7.747  17.204  0.00  0.00    +0.000 A 
ATOM     12  C   UNL     1       7.581   9.067  17.309  0.00  0.00    +0.000 A 
ATOM     13  C   UNL     1       8.470   9.423  18.317  0.00  0.00    +0.000 A 
ATOM     14  C   UNL     1       8.877   8.469  19.238  0.00  0.00    +0.000 A 
ATOM     15  C   UNL     1       8.409   7.154  19.139  0.00  0.00    +0.000 A 
ENDBRANCH   6  10
BRANCH   8  16
ATOM     16  C   UNL     1       3.824   3.041  18.505  0.00  0.00    +0.000 A 
ATOM     17  C   UNL     1       3.700   2.687  19.863  0.00  0.00    +0.000 A 
ATOM     18  C   UNL     1       2.485   2.270  20.410  0.00  0.00    +0.000 A 
ATOM     19  C   UNL     1       1.355   2.198  19.610  0.00  0.00    +0.000 A 
ATOM     20  C   UNL     1       1.451   2.521  18.259  0.00  0.00    +0.000 A 
ATOM     21  C   UNL     1       2.672   2.927  17.709  0.00  0.00    +0.000 A 
ENDBRANCH   8  16
BRANCH   1  23
ATOM     22  C   UNL     1       5.130   3.841  13.380  0.00  0.00    +0.000 C 
ATOM     23  N   UNL     1       6.289   4.060  14.256  0.00  0.00    +0.000 NA
ATOM     24  C   UNL     1       7.297   4.827  13.522  0.00  0.00    +0.000 C 
ENDBRANCH   1  23
BRANCH   4  25
ATOM     25  C   UNL     1       3.768   6.308  19.213  0.00  0.00    +0.000 C 
BRANCH  25  26
ATOM     26  C   UNL     1       2.801   7.451  19.017  0.00  0.00    +0.000 A 
ATOM     27  C   UNL     1       1.910   7.805  20.040  0.00  0.00    +0.000 A 
ATOM     28  C   UNL     1       1.081   8.915  19.902  0.00  0.00    +0.000 A 
ATOM     29  C   UNL     1       1.139   9.689  18.744  0.00  0.00    +0.000 A 
ATOM     30  C   UNL     1       2.006   9.334  17.711  0.00  0.00    +0.000 A 
ATOM     31  C   UNL     1       2.825   8.213  17.840  0.00  0.00    +0.000 A 
ENDBRANCH  25  26
ENDBRANCH   4  25
TORSDOF 5
ENDMDL
MODEL 5
REMARK VINA RESULT:      -6.8      0.437      1.640
REMARK  Name = 
REMARK  7 active torsions:
REMARK  status: ('A' for Active; 'I' for Inactive)
REMARK    1  A    between atoms: C_1  and  N_2
REMARK    2  A    between atoms: N_2  and  C_3
REMARK    3  A    between atoms: N_2  and  C_4
REMARK    4  A    between atoms: N_7  and  C_8
REMARK    5  A    between atoms: C_8  and  C_9
REMARK    6  A    between atoms: C_16  and  C_17
REMARK    7  A    between atoms: C_24  and  C_25
REMARK                            x       y       z     vdW  Elec       q    Type
REMARK                         _______ _______ _______ _____ _____    ______ ____
ROOT
ATOM      1  C   UNL     1       0.950  14.034  20.156  0.00  0.00    +0.000 C 
ATOM      2  C   UNL     1      -0.148  14.101  19.051  0.00  0.00    +0.000 C 
ATOM      3  C   UNL     1      -0.849  12.796  18.617  0.00  0.00    +0.000 C 
ATOM      4  N   UNL     1      -1.353  11.883  19.632  0.00  0.00    +0.000 NA
ATOM      5  C   UNL     1      -0.512  11.710  20.828  0.00  0.00    +0.000 C 
ATOM      6  C   UNL     1      -0.747  12.931  21.803  0.00  0.00    +0.000 C 
ATOM      7  C   UNL     1       0.309  14.034  21.576  0.00  0.00    +0.000 C 
ATOM      8  C   UNL     1       1.019  11.462  20.587  0.00  0.00    +0.000 C 
ATOM      9  C   UNL     1       1.758  12.714  20.057  0.00  0.00    +0.000 C 
ENDROOT
BRANCH   6  10
ATOM     10  C   UNL     1      -2.219  13.412  21.864  0.00  0.00    +0.000 A 
ATOM     11  C   UNL     1      -3.212  12.521  22.308  0.00  0.00    +0.000 A 
ATOM     12  C   UNL     1      -4.568  12.876  22.291  0.00  0.00    +0.000 A 
ATOM     13  C   UNL     1      -4.960  14.129  21.834  0.00  0.00    +0.000 A 
ATOM     14  C   UNL     1      -3.996  15.038  21.422  0.00  0.00    +0.000 A 
ATOM     15  C   UNL     1      -2.642  14.687  21.451  0.00  0.00    +0.000 A 
ENDBRANCH   6  10
BRANCH   8  16
ATOM     16  C   UNL     1       1.424  10.185  19.832  0.00  0.00    +0.000 A 
ATOM     17  C   UNL     1       1.494   8.923  20.455  0.00  0.00    +0.000 A 
ATOM     18  C   UNL     1       1.785   7.760  19.738  0.00  0.00    +0.000 A 
ATOM     19  C   UNL     1       2.012   7.829  18.373  0.00  0.00    +0.000 A 
ATOM     20  C   UNL     1       1.970   9.065  17.732  0.00  0.00    +0.000 A 
ATOM     21  C   UNL     1       1.691  10.231  18.454  0.00  0.00    +0.000 A 
ENDBRANCH   8  16
BRANCH   1  23
ATOM     22  C   UNL     1       1.471  16.456  20.592  0.00  0.00    +0.000 C 
ATOM     23  N   UNL     1       1.937  15.171  20.053  0.00  0.00    +0.000 NA
ATOM     24  C   UNL     1       3.274  14.893  20.582  0.00  0.00    +0.000 C 
ENDBRANCH   1  23
BRANCH   4  25
ATOM     25  C   UNL     1      -1.816  10.587  19.111  0.00  0.00    +0.000 C 
BRANCH  25  26
ATOM     26  C   UNL     1      -2.516  10.636  17.774  0.00  0.00    +0.000 A 
ATOM     27  C   UNL     1      -2.008   9.913  16.685  0.00  0.00    +0.000 A 
ATOM     28  C   UNL     1      -2.699   9.878  15.477  0.00  0.00    +0.000 A 
ATOM     29  C   UNL     1      -3.908  10.560  15.344  0.00  0.00    +0.000 A 
ATOM     30  C   UNL     1      -4.412  11.300  16.414  0.00  0.00    +0.000 A 
ATOM     31  C   UNL     1      -3.713  11.349  17.620  0.00  0.00    +0.000 A 
ENDBRANCH  25  26
ENDBRANCH   4  25
TORSDOF 5
ENDMDL
MODEL 6
REMARK VINA RESULT:      -6.8      0.385      1.281
REMARK  Name = 
REMARK  7 active torsions:
REMARK  status: ('A' for Active; 'I' for Inactive)
REMARK    1  A    between atoms: C_1  and  N_2
REMARK    2  A    between atoms: N_2  and  C_3
REMARK    3  A    between atoms: N_2  and  C_4
REMARK    4  A    between atoms: N_7  and  C_8
REMARK    5  A    between atoms: C_8  and  C_9
REMARK    6  A    between atoms: C_16  and  C_17
REMARK    7  A    between atoms: C_24  and  C_25
REMARK                            x       y       z     vdW  Elec       q    Type
REMARK                         _______ _______ _______ _____ _____    ______ ____
ROOT
ATOM      1  C   UNL     1       0.811  14.025  20.481  0.00  0.00    +0.000 C 
ATOM      2  C   UNL     1      -0.266  14.130  19.358  0.00  0.00    +0.000 C 
ATOM      3  C   UNL     1      -0.935  12.837  18.845  0.00  0.00    +0.000 C 
ATOM      4  N   UNL     1      -1.444  11.866  19.801  0.00  0.00    +0.000 NA
ATOM      5  C   UNL     1      -0.624  11.647  21.005  0.00  0.00    +0.000 C 
ATOM      6  C   UNL     1      -0.900  12.813  22.035  0.00  0.00    +0.000 C 
ATOM      7  C   UNL     1       0.142  13.943  21.886  0.00  0.00    +0.000 C 
ATOM      8  C   UNL     1       0.915  11.436  20.784  0.00  0.00    +0.000 C 
ATOM      9  C   UNL     1       1.643  12.724  20.333  0.00  0.00    +0.000 C 
ENDROOT
BRANCH   6  10
ATOM     10  C   UNL     1      -2.381  13.266  22.088  0.00  0.00    +0.000 A 
ATOM     11  C   UNL     1      -2.714  14.566  21.670  0.00  0.00    +0.000 A 
ATOM     12  C   UNL     1      -4.022  15.055  21.788  0.00  0.00    +0.000 A 
ATOM     13  C   UNL     1      -5.026  14.254  22.321  0.00  0.00    +0.000 A 
ATOM     14  C   UNL     1      -4.729  12.956  22.709  0.00  0.00    +0.000 A 
ATOM     15  C   UNL     1      -3.425  12.465  22.580  0.00  0.00    +0.000 A 
ENDBRANCH   6  10
BRANCH   8  16
ATOM     16  C   UNL     1       1.357  10.205  19.975  0.00  0.00    +0.000 A 
ATOM     17  C   UNL     1       1.481   8.924  20.546  0.00  0.00    +0.000 A 
ATOM     18  C   UNL     1       1.806   7.801  19.781  0.00  0.00    +0.000 A 
ATOM     19  C   UNL     1       2.013   7.932  18.417  0.00  0.00    +0.000 A 
ATOM     20  C   UNL     1       1.918   9.189  17.826  0.00  0.00    +0.000 A 
ATOM     21  C   UNL     1       1.605  10.315  18.596  0.00  0.00    +0.000 A 
ENDBRANCH   8  16
BRANCH   1  23
ATOM     22  C   UNL     1       3.141  14.849  20.014  0.00  0.00    +0.000 C 
ATOM     23  N   UNL     1       1.780  15.181  20.456  0.00  0.00    +0.000 NA
ATOM     24  C   UNL     1       1.324  16.369  19.732  0.00  0.00    +0.000 C 
ENDBRANCH   1  23
BRANCH   4  25
ATOM     25  C   UNL     1      -1.874  10.591  19.207  0.00  0.00    +0.000 C 
BRANCH  25  26
ATOM     26  C   UNL     1      -2.551  10.696  17.861  0.00  0.00    +0.000 A 
ATOM     27  C   UNL     1      -2.009  10.042  16.746  0.00  0.00    +0.000 A 
ATOM     28  C   UNL     1      -2.678  10.058  15.525  0.00  0.00    +0.000 A 
ATOM     29  C   UNL     1      -3.898  10.721  15.406  0.00  0.00    +0.000 A 
ATOM     30  C   UNL     1      -4.436  11.392  16.503  0.00  0.00    +0.000 A 
ATOM     31  C   UNL     1      -3.761  11.391  17.723  0.00  0.00    +0.000 A 
ENDBRANCH  25  26
ENDBRANCH   4  25
TORSDOF 5
ENDMDL
MODEL 7
REMARK VINA RESULT:      -6.8      1.751      2.654
REMARK  Name = 
REMARK  7 active torsions:
REMARK  status: ('A' for Active; 'I' for Inactive)
REMARK    1  A    between atoms: C_1  and  N_2
REMARK    2  A    between atoms: N_2  and  C_3
REMARK    3  A    between atoms: N_2  and  C_4
REMARK    4  A    between atoms: N_7  and  C_8
REMARK    5  A    between atoms: C_8  and  C_9
REMARK    6  A    between atoms: C_16  and  C_17
REMARK    7  A    between atoms: C_24  and  C_25
REMARK                            x       y       z     vdW  Elec       q    Type
REMARK                         _______ _______ _______ _____ _____    ______ ____
ROOT
ATOM      1  C   UNL     1       1.304  14.640  19.768  0.00  0.00    +0.000 C 
ATOM      2  C   UNL     1       0.414  14.375  18.515  0.00  0.00    +0.000 C 
ATOM      3  C   UNL     1      -0.717  13.329  18.612  0.00  0.00    +0.000 C 
ATOM      4  N   UNL     1      -1.623  13.357  19.750  0.00  0.00    +0.000 NA
ATOM      5  C   UNL     1      -1.017  13.668  21.056  0.00  0.00    +0.000 C 
ATOM      6  C   UNL     1      -0.816  15.231  21.172  0.00  0.00    +0.000 C 
ATOM      7  C   UNL     1       0.609  15.640  20.740  0.00  0.00    +0.000 C 
ATOM      8  C   UNL     1       0.298  12.896  21.427  0.00  0.00    +0.000 C 
ATOM      9  C   UNL     1       1.517  13.337  20.583  0.00  0.00    +0.000 C 
ENDROOT
BRANCH   6  10
ATOM     10  C   UNL     1      -1.970  16.060  20.553  0.00  0.00    +0.000 A 
ATOM     11  C   UNL     1      -1.665  17.071  19.626  0.00  0.00    +0.000 A 
ATOM     12  C   UNL     1      -2.663  17.910  19.111  0.00  0.00    +0.000 A 
ATOM     13  C   UNL     1      -3.986  17.753  19.508  0.00  0.00    +0.000 A 
ATOM     14  C   UNL     1      -4.317  16.740  20.395  0.00  0.00    +0.000 A 
ATOM     15  C   UNL     1      -3.322  15.895  20.900  0.00  0.00    +0.000 A 
ENDBRANCH   6  10
BRANCH   8  16
ATOM     16  C   UNL     1       0.212  11.368  21.569  0.00  0.00    +0.000 A 
ATOM     17  C   UNL     1      -0.482  10.739  22.622  0.00  0.00    +0.000 A 
ATOM     18  C   UNL     1      -0.619   9.350  22.692  0.00  0.00    +0.000 A 
ATOM     19  C   UNL     1      -0.065   8.551  21.704  0.00  0.00    +0.000 A 
ATOM     20  C   UNL     1       0.645   9.142  20.662  0.00  0.00    +0.000 A 
ATOM     21  C   UNL     1       0.792  10.532  20.599  0.00  0.00    +0.000 A 
ENDBRANCH   8  16
BRANCH   1  23
ATOM     22  C   UNL     1       3.431  14.333  18.461  0.00  0.00    +0.000 C 
ATOM     23  N   UNL     1       2.668  15.166  19.401  0.00  0.00    +0.000 NA
ATOM     24  C   UNL     1       2.704  16.555  18.937  0.00  0.00    +0.000 C 
ENDBRANCH   1  23
BRANCH   4  25
ATOM     25  C   UNL     1      -2.526  12.200  19.840  0.00  0.00    +0.000 C 
BRANCH  25  26
ATOM     26  C   UNL     1      -2.728  11.430  18.556  0.00  0.00    +0.000 A 
ATOM     27  C   UNL     1      -3.800  11.742  17.709  0.00  0.00    +0.000 A 
ATOM     28  C   UNL     1      -3.939  11.101  16.481  0.00  0.00    +0.000 A 
ATOM     29  C   UNL     1      -3.004  10.147  16.082  0.00  0.00    +0.000 A 
ATOM     30  C   UNL     1      -1.945   9.813  16.927  0.00  0.00    +0.000 A 
ATOM     31  C   UNL     1      -1.813  10.443  18.164  0.00  0.00    +0.000 A 
ENDBRANCH  25  26
ENDBRANCH   4  25
TORSDOF 5
ENDMDL
MODEL 8
REMARK VINA RESULT:      -6.8      1.799      2.728
REMARK  Name = 
REMARK  7 active torsions:
REMARK  status: ('A' for Active; 'I' for Inactive)
REMARK    1  A    between atoms: C_1  and  N_2
REMARK    2  A    between atoms: N_2  and  C_3
REMARK    3  A    between atoms: N_2  and  C_4
REMARK    4  A    between atoms: N_7  and  C_8
REMARK    5  A    between atoms: C_8  and  C_9
REMARK    6  A    between atoms: C_16  and  C_17
REMARK    7  A    between atoms: C_24  and  C_25
REMARK                            x       y       z     vdW  Elec       q    Type
REMARK                         _______ _______ _______ _____ _____    ______ ____
ROOT
ATOM      1  C   UNL     1       1.414  14.570  19.840  0.00  0.00    +0.000 C 
ATOM      2  C   UNL     1       0.559  14.352  18.554  0.00  0.00    +0.000 C 
ATOM      3  C   UNL     1      -0.606  13.341  18.596  0.00  0.00    +0.000 C 
ATOM      4  N   UNL     1      -1.549  13.382  19.703  0.00  0.00    +0.000 NA
ATOM      5  C   UNL     1      -0.979  13.654  21.034  0.00  0.00    +0.000 C 
ATOM      6  C   UNL     1      -0.733  15.209  21.180  0.00  0.00    +0.000 C 
ATOM      7  C   UNL     1       0.718  15.578  20.803  0.00  0.00    +0.000 C 
ATOM      8  C   UNL     1       0.298  12.836  21.438  0.00  0.00    +0.000 C 
ATOM      9  C   UNL     1       1.558  13.251  20.642  0.00  0.00    +0.000 C 
ENDROOT
BRANCH   6  10
ATOM     10  C   UNL     1      -1.839  16.082  20.536  0.00  0.00    +0.000 A 
ATOM     11  C   UNL     1      -1.477  17.051  19.584  0.00  0.00    +0.000 A 
ATOM     12  C   UNL     1      -2.427  17.929  19.043  0.00  0.00    +0.000 A 
ATOM     13  C   UNL     1      -3.757  17.854  19.439  0.00  0.00    +0.000 A 
ATOM     14  C   UNL     1      -4.146  16.884  20.351  0.00  0.00    +0.000 A 
ATOM     15  C   UNL     1      -3.199  16.001  20.881  0.00  0.00    +0.000 A 
ENDBRANCH   6  10
BRANCH   8  16
ATOM     16  C   UNL     1       0.159  11.309  21.554  0.00  0.00    +0.000 A 
ATOM     17  C   UNL     1       0.760  10.419  20.642  0.00  0.00    +0.000 A 
ATOM     18  C   UNL     1       0.691   9.033  20.808  0.00  0.00    +0.000 A 
ATOM     19  C   UNL     1       0.019   8.500  21.896  0.00  0.00    +0.000 A 
ATOM     20  C   UNL     1      -0.603   9.355  22.803  0.00  0.00    +0.000 A 
ATOM     21  C   UNL     1      -0.544  10.742  22.629  0.00  0.00    +0.000 A 
ENDBRANCH   8  16
BRANCH   1  23
ATOM     22  C   UNL     1       3.349  14.621  18.235  0.00  0.00    +0.000 C 
ATOM     23  N   UNL     1       2.806  15.058  19.528  0.00  0.00    +0.000 NA
ATOM     24  C   UNL     1       3.012  16.502  19.662  0.00  0.00    +0.000 C 
ENDBRANCH   1  23
BRANCH   4  25
ATOM     25  C   UNL     1      -2.490  12.252  19.746  0.00  0.00    +0.000 C 
BRANCH  25  26
ATOM     26  C   UNL     1      -2.653  11.492  18.451  0.00  0.00    +0.000 A 
ATOM     27  C   UNL     1      -1.730  10.498  18.096  0.00  0.00    +0.000 A 
ATOM     28  C   UNL     1      -1.925   9.730  16.952  0.00  0.00    +0.000 A 
ATOM     29  C   UNL     1      -3.047   9.942  16.152  0.00  0.00    +0.000 A 
ATOM     30  C   UNL     1      -3.961  10.942  16.484  0.00  0.00    +0.000 A 
ATOM     31  C   UNL     1      -3.759  11.723  17.621  0.00  0.00    +0.000 A 
ENDBRANCH  25  26
ENDBRANCH   4  25
TORSDOF 5
ENDMDL
MODEL 9
REMARK VINA RESULT:      -6.7      1.834      2.759
REMARK  Name = 
REMARK  7 active torsions:
REMARK  status: ('A' for Active; 'I' for Inactive)
REMARK    1  A    between atoms: C_1  and  N_2
REMARK    2  A    between atoms: N_2  and  C_3
REMARK    3  A    between atoms: N_2  and  C_4
REMARK    4  A    between atoms: N_7  and  C_8
REMARK    5  A    between atoms: C_8  and  C_9
REMARK    6  A    between atoms: C_16  and  C_17
REMARK    7  A    between atoms: C_24  and  C_25
REMARK                            x       y       z     vdW  Elec       q    Type
REMARK                         _______ _______ _______ _____ _____    ______ ____
ROOT
ATOM      1  C   UNL     1       1.516  14.474  19.592  0.00  0.00    +0.000 C 
ATOM      2  C   UNL     1       0.588  14.239  18.361  0.00  0.00    +0.000 C 
ATOM      3  C   UNL     1      -0.621  13.292  18.509  0.00  0.00    +0.000 C 
ATOM      4  N   UNL     1      -1.504  13.432  19.657  0.00  0.00    +0.000 NA
ATOM      5  C   UNL     1      -0.855  13.737  20.944  0.00  0.00    +0.000 C 
ATOM      6  C   UNL     1      -0.527  15.282  21.002  0.00  0.00    +0.000 C 
ATOM      7  C   UNL     1       0.919  15.560  20.537  0.00  0.00    +0.000 C 
ATOM      8  C   UNL     1       0.400  12.875  21.325  0.00  0.00    +0.000 C 
ATOM      9  C   UNL     1       1.636  13.187  20.451  0.00  0.00    +0.000 C 
ENDROOT
BRANCH   6  10
ATOM     10  C   UNL     1      -1.621  16.179  20.369  0.00  0.00    +0.000 A 
ATOM     11  C   UNL     1      -1.260  17.089  19.360  0.00  0.00    +0.000 A 
ATOM     12  C   UNL     1      -2.193  17.987  18.823  0.00  0.00    +0.000 A 
ATOM     13  C   UNL     1      -3.505  17.993  19.281  0.00  0.00    +0.000 A 
ATOM     14  C   UNL     1      -3.895  17.082  20.251  0.00  0.00    +0.000 A 
ATOM     15  C   UNL     1      -2.966  16.177  20.778  0.00  0.00    +0.000 A 
ENDBRANCH   6  10
BRANCH   8  16
ATOM     16  C   UNL     1       0.194  11.364  21.523  0.00  0.00    +0.000 A 
ATOM     17  C   UNL     1       0.738  10.401  20.651  0.00  0.00    +0.000 A 
ATOM     18  C   UNL     1       0.609   9.031  20.889  0.00  0.00    +0.000 A 
ATOM     19  C   UNL     1      -0.069   8.586  22.014  0.00  0.00    +0.000 A 
ATOM     20  C   UNL     1      -0.637   9.514  22.884  0.00  0.00    +0.000 A 
ATOM     21  C   UNL     1      -0.517  10.886  22.637  0.00  0.00    +0.000 A 
ENDBRANCH   8  16
BRANCH   1  23
ATOM     22  C   UNL     1       3.036  16.220  18.610  0.00  0.00    +0.000 C 
ATOM     23  N   UNL     1       2.912  14.876  19.190  0.00  0.00    +0.000 NA
ATOM     24  C   UNL     1       3.937  14.711  20.223  0.00  0.00    +0.000 C 
ENDBRANCH   1  23
BRANCH   4  25
ATOM     25  C   UNL     1      -2.496  12.354  19.801  0.00  0.00    +0.000 C 
BRANCH  25  26
ATOM     26  C   UNL     1      -2.730  11.518  18.565  0.00  0.00    +0.000 A 
ATOM     27  C   UNL     1      -3.826  11.781  17.732  0.00  0.00    +0.000 A 
ATOM     28  C   UNL     1      -3.995  11.075  16.544  0.00  0.00    +0.000 A 
ATOM     29  C   UNL     1      -3.068  10.103  16.171  0.00  0.00    +0.000 A 
ATOM     30  C   UNL     1      -1.985   9.818  17.003  0.00  0.00    +0.000 A 
ATOM     31  C   UNL     1      -1.822  10.513  18.201  0.00  0.00    +0.000 A 
ENDBRANCH  25  26
ENDBRANCH   4  25
TORSDOF 5
ENDMDL
