MODEL 1
REMARK VINA RESULT:      -8.2      0.000      0.000
REMARK  Name = 
REMARK  6 active torsions:
REMARK  status: ('A' for Active; 'I' for Inactive)
REMARK    1  A    between atoms: C_1  and  C_2
REMARK    2  A    between atoms: C_2  and  C_3
REMARK    3  A    between atoms: C_3  and  N_4
REMARK    4  A    between atoms: C_3  and  C_14
REMARK    5  A    between atoms: N_4  and  C_5
REMARK    6  A    between atoms: N_23  and  C_24
REMARK                            x       y       z     vdW  Elec       q    Type
REMARK                         _______ _______ _______ _____ _____    ______ ____
ROOT
ATOM      1  C   UNL     1       5.209   4.289  15.736  0.00  0.00    +0.000 A 
ATOM      2  N   UNL     1       4.666   3.647  14.735  0.00  0.00    +0.000 NA
ATOM      3  N   UNL     1       5.363   3.655  13.586  0.00  0.00    +0.000 N 
ATOM      4  C   UNL     1       4.971   3.056  12.417  0.00  0.00    +0.000 A 
ATOM      5  C   UNL     1       5.965   3.239  11.478  0.00  0.00    +0.000 A 
ATOM      6  C   UNL     1       6.975   4.015  12.094  0.00  0.00    +0.000 A 
ATOM      7  C   UNL     1       6.557   4.271  13.385  0.00  0.00    +0.000 A 
ATOM      8  C   UNL     1       7.168   5.011  14.445  0.00  0.00    +0.000 A 
ATOM      9  O   UNL     1       8.233   5.594  14.286  0.00  0.00    +0.000 OA
ATOM     10  N   UNL     1       6.450   4.950  15.655  0.00  0.00    +0.000 N 
ENDROOT
BRANCH  10  11
ATOM     11  C   UNL     1       7.062   5.568  16.784  0.00  0.00    +0.000 A 
ATOM     12  C   UNL     1       7.234   6.958  16.836  0.00  0.00    +0.000 A 
ATOM     13  C   UNL     1       7.785   7.558  17.971  0.00  0.00    +0.000 A 
ATOM     14  C   UNL     1       8.190   6.770  19.047  0.00  0.00    +0.000 A 
ATOM     15  C   UNL     1       8.087   5.382  18.973  0.00  0.00    +0.000 A 
ATOM     16  C   UNL     1       7.534   4.781  17.841  0.00  0.00    +0.000 A 
ENDBRANCH  10  11
BRANCH   1  17
ATOM     17  C   UNL     1       4.340   4.408  17.042  0.00  0.00    +0.000 C 
BRANCH  17  19
ATOM     18  C   UNL     1       3.198   2.178  17.833  0.00  0.00    +0.000 C 
ATOM     19  C   UNL     1       3.079   3.515  17.109  0.00  0.00    +0.000 C 
ENDBRANCH  17  19
BRANCH  17  20
ATOM     20  N   UNL     1       3.906   5.784  17.207  0.00  0.00    +0.000 N 
ATOM     21  H   UNL     1       4.290   6.506  16.607  0.00  0.00    +0.000 HD
BRANCH  20  22
ATOM     22  C   UNL     1       3.209   6.216  18.309  0.00  0.00    +0.000 A 
ATOM     23  N   UNL     1       3.049   5.425  19.403  0.00  0.00    +0.000 NA
ATOM     24  C   UNL     1       2.326   5.894  20.443  0.00  0.00    +0.000 A 
ATOM     25  N   UNL     1       1.712   7.088  20.567  0.00  0.00    +0.000 NA
ATOM     26  C   UNL     1       1.899   7.825  19.464  0.00  0.00    +0.000 A 
ATOM     27  N   UNL     1       1.417   9.078  19.216  0.00  0.00    +0.000 N 
ATOM     28  C   UNL     1       1.829   9.440  17.963  0.00  0.00    +0.000 A 
ATOM     29  N   UNL     1       2.562   8.507  17.396  0.00  0.00    +0.000 NA
ATOM     30  C   UNL     1       2.611   7.487  18.328  0.00  0.00    +0.000 A 
ATOM     31  H   UNL     1       0.848   9.619  19.849  0.00  0.00    +0.000 HD
ENDBRANCH  20  22
ENDBRANCH  17  20
ENDBRANCH   1  17
TORSDOF 5
ENDMDL
MODEL 2
REMARK VINA RESULT:      -7.8      1.515      2.883
REMARK  Name = 
REMARK  6 active torsions:
REMARK  status: ('A' for Active; 'I' for Inactive)
REMARK    1  A    between atoms: C_1  and  C_2
REMARK    2  A    between atoms: C_2  and  C_3
REMARK    3  A    between atoms: C_3  and  N_4
REMARK    4  A    between atoms: C_3  and  C_14
REMARK    5  A    between atoms: N_4  and  C_5
REMARK    6  A    between atoms: N_23  and  C_24
REMARK                            x       y       z     vdW  Elec       q    Type
REMARK                         _______ _______ _______ _____ _____    ______ ____
ROOT
ATOM      1  C   UNL     1       5.139   4.969  15.744  0.00  0.00    +0.000 A 
ATOM      2  N   UNL     1       4.549   4.303  14.788  0.00  0.00    +0.000 NA
ATOM      3  N   UNL     1       5.307   4.028  13.712  0.00  0.00    +0.000 N 
ATOM      4  C   UNL     1       4.885   3.352  12.596  0.00  0.00    +0.000 A 
ATOM      5  C   UNL     1       5.952   3.224  11.732  0.00  0.00    +0.000 A 
ATOM      6  C   UNL     1       7.049   3.885  12.335  0.00  0.00    +0.000 A 
ATOM      7  C   UNL     1       6.606   4.387  13.541  0.00  0.00    +0.000 A 
ATOM      8  C   UNL     1       7.276   5.147  14.551  0.00  0.00    +0.000 A 
ATOM      9  O   UNL     1       8.439   5.504  14.415  0.00  0.00    +0.000 OA
ATOM     10  N   UNL     1       6.484   5.383  15.691  0.00  0.00    +0.000 N 
ENDROOT
BRANCH  10  11
ATOM     11  C   UNL     1       7.128   6.031  16.784  0.00  0.00    +0.000 A 
ATOM     12  C   UNL     1       7.375   7.411  16.755  0.00  0.00    +0.000 A 
ATOM     13  C   UNL     1       7.957   8.046  17.855  0.00  0.00    +0.000 A 
ATOM     14  C   UNL     1       8.318   7.302  18.977  0.00  0.00    +0.000 A 
ATOM     15  C   UNL     1       8.141   5.920  18.984  0.00  0.00    +0.000 A 
ATOM     16  C   UNL     1       7.557   5.284  17.888  0.00  0.00    +0.000 A 
ENDBRANCH  10  11
BRANCH   1  17
ATOM     17  C   UNL     1       4.226   5.420  16.944  0.00  0.00    +0.000 C 
BRANCH  17  19
ATOM     18  C   UNL     1       3.078   7.670  17.667  0.00  0.00    +0.000 C 
ATOM     19  C   UNL     1       4.362   6.894  17.393  0.00  0.00    +0.000 C 
ENDBRANCH  17  19
BRANCH  17  20
ATOM     20  N   UNL     1       4.506   4.587  18.101  0.00  0.00    +0.000 N 
ATOM     21  H   UNL     1       5.447   4.552  18.478  0.00  0.00    +0.000 HD
BRANCH  20  22
ATOM     22  C   UNL     1       3.633   3.627  18.553  0.00  0.00    +0.000 A 
ATOM     23  N   UNL     1       3.730   2.333  18.149  0.00  0.00    +0.000 NA
ATOM     24  C   UNL     1       2.823   1.441  18.604  0.00  0.00    +0.000 A 
ATOM     25  N   UNL     1       1.787   1.652  19.442  0.00  0.00    +0.000 NA
ATOM     26  C   UNL     1       1.737   2.941  19.806  0.00  0.00    +0.000 A 
ATOM     27  N   UNL     1       0.821   3.531  20.628  0.00  0.00    +0.000 N 
ATOM     28  C   UNL     1       1.133   4.860  20.708  0.00  0.00    +0.000 A 
ATOM     29  N   UNL     1       2.202   5.160  20.003  0.00  0.00    +0.000 NA
ATOM     30  C   UNL     1       2.588   3.962  19.431  0.00  0.00    +0.000 A 
ATOM     31  H   UNL     1       0.052   3.059  21.078  0.00  0.00    +0.000 HD
ENDBRANCH  20  22
ENDBRANCH  17  20
ENDBRANCH   1  17
TORSDOF 5
ENDMDL
MODEL 3
REMARK VINA RESULT:      -7.8      8.609     11.098
REMARK  Name = 
REMARK  6 active torsions:
REMARK  status: ('A' for Active; 'I' for Inactive)
REMARK    1  A    between atoms: C_1  and  C_2
REMARK    2  A    between atoms: C_2  and  C_3
REMARK    3  A    between atoms: C_3  and  N_4
REMARK    4  A    between atoms: C_3  and  C_14
REMARK    5  A    between atoms: N_4  and  C_5
REMARK    6  A    between atoms: N_23  and  C_24
REMARK                            x       y       z     vdW  Elec       q    Type
REMARK                         _______ _______ _______ _____ _____    ______ ____
ROOT
ATOM      1  C   UNL     1      -0.808  13.071  19.496  0.00  0.00    +0.000 A 
ATOM      2  N   UNL     1      -0.724  14.177  18.804  0.00  0.00    +0.000 NA
ATOM      3  N   UNL     1       0.374  14.922  19.021  0.00  0.00    +0.000 N 
ATOM      4  C   UNL     1       0.653  16.119  18.413  0.00  0.00    +0.000 A 
ATOM      5  C   UNL     1       1.884  16.556  18.853  0.00  0.00    +0.000 A 
ATOM      6  C   UNL     1       2.345  15.606  19.795  0.00  0.00    +0.000 A 
ATOM      7  C   UNL     1       1.376  14.627  19.889  0.00  0.00    +0.000 A 
ATOM      8  C   UNL     1       1.306  13.443  20.689  0.00  0.00    +0.000 A 
ATOM      9  O   UNL     1       2.183  13.163  21.495  0.00  0.00    +0.000 OA
ATOM     10  N   UNL     1       0.175  12.650  20.412  0.00  0.00    +0.000 N 
ENDROOT
BRANCH  10  11
ATOM     11  C   UNL     1       0.103  11.398  21.088  0.00  0.00    +0.000 A 
ATOM     12  C   UNL     1       0.660  10.243  20.521  0.00  0.00    +0.000 A 
ATOM     13  C   UNL     1       0.632   9.032  21.218  0.00  0.00    +0.000 A 
ATOM     14  C   UNL     1       0.026   8.964  22.471  0.00  0.00    +0.000 A 
ATOM     15  C   UNL     1      -0.592  10.092  23.009  0.00  0.00    +0.000 A 
ATOM     16  C   UNL     1      -0.563  11.303  22.317  0.00  0.00    +0.000 A 
ENDBRANCH  10  11
BRANCH   1  17
ATOM     17  C   UNL     1      -2.150  12.263  19.357  0.00  0.00    +0.000 C 
BRANCH  17  19
ATOM     18  C   UNL     1      -1.881  10.195  17.759  0.00  0.00    +0.000 C 
ATOM     19  C   UNL     1      -2.416  11.606  17.983  0.00  0.00    +0.000 C 
ENDBRANCH  17  19
BRANCH  17  20
ATOM     20  N   UNL     1      -3.272  13.142  19.642  0.00  0.00    +0.000 N 
ATOM     21  H   UNL     1      -3.379  14.003  19.119  0.00  0.00    +0.000 HD
BRANCH  20  22
ATOM     22  C   UNL     1      -4.049  13.013  20.768  0.00  0.00    +0.000 A 
ATOM     23  N   UNL     1      -3.613  13.437  21.983  0.00  0.00    +0.000 NA
ATOM     24  C   UNL     1      -4.409  13.255  23.059  0.00  0.00    +0.000 A 
ATOM     25  N   UNL     1      -5.633  12.688  23.110  0.00  0.00    +0.000 NA
ATOM     26  C   UNL     1      -6.012  12.287  21.889  0.00  0.00    +0.000 A 
ATOM     27  N   UNL     1      -7.176  11.660  21.550  0.00  0.00    +0.000 N 
ATOM     28  C   UNL     1      -7.138  11.413  20.206  0.00  0.00    +0.000 A 
ATOM     29  N   UNL     1      -6.030  11.858  19.654  0.00  0.00    +0.000 NA
ATOM     30  C   UNL     1      -5.315  12.407  20.702  0.00  0.00    +0.000 A 
ATOM     31  H   UNL     1      -7.916  11.418  22.193  0.00  0.00    +0.000 HD
ENDBRANCH  20  22
ENDBRANCH  17  20
ENDBRANCH   1  17
TORSDOF 5
ENDMDL
MODEL 4
REMARK VINA RESULT:      -7.8      8.417     10.944
REMARK  Name = 
REMARK  6 active torsions:
REMARK  status: ('A' for Active; 'I' for Inactive)
REMARK    1  A    between atoms: C_1  and  C_2
REMARK    2  A    between atoms: C_2  and  C_3
REMARK    3  A    between atoms: C_3  and  N_4
REMARK    4  A    between atoms: C_3  and  C_14
REMARK    5  A    between atoms: N_4  and  C_5
REMARK    6  A    between atoms: N_23  and  C_24
REMARK                            x       y       z     vdW  Elec       q    Type
REMARK                         _______ _______ _______ _____ _____    ______ ____
ROOT
ATOM      1  C   UNL     1      -0.653  13.028  19.443  0.00  0.00    +0.000 A 
ATOM      2  N   UNL     1      -0.558  14.158  18.794  0.00  0.00    +0.000 NA
ATOM      3  N   UNL     1       0.555  14.875  19.027  0.00  0.00    +0.000 N 
ATOM      4  C   UNL     1       0.848  16.090  18.462  0.00  0.00    +0.000 A 
ATOM      5  C   UNL     1       2.092  16.489  18.904  0.00  0.00    +0.000 A 
ATOM      6  C   UNL     1       2.547  15.494  19.803  0.00  0.00    +0.000 A 
ATOM      7  C   UNL     1       1.562  14.529  19.870  0.00  0.00    +0.000 A 
ATOM      8  C   UNL     1       1.480  13.316  20.624  0.00  0.00    +0.000 A 
ATOM      9  O   UNL     1       2.361  12.990  21.407  0.00  0.00    +0.000 OA
ATOM     10  N   UNL     1       0.333  12.554  20.331  0.00  0.00    +0.000 N 
ENDROOT
BRANCH  10  11
ATOM     11  C   UNL     1       0.246  11.278  20.958  0.00  0.00    +0.000 A 
ATOM     12  C   UNL     1      -0.352  11.137  22.219  0.00  0.00    +0.000 A 
ATOM     13  C   UNL     1      -0.481   9.873  22.800  0.00  0.00    +0.000 A 
ATOM     14  C   UNL     1       0.009   8.749  22.137  0.00  0.00    +0.000 A 
ATOM     15  C   UNL     1       0.668   8.891  20.917  0.00  0.00    +0.000 A 
ATOM     16  C   UNL     1       0.795  10.152  20.333  0.00  0.00    +0.000 A 
ENDBRANCH  10  11
BRANCH   1  17
ATOM     17  C   UNL     1      -2.012  12.249  19.290  0.00  0.00    +0.000 C 
BRANCH  17  19
ATOM     18  C   UNL     1      -2.125  10.100  17.782  0.00  0.00    +0.000 C 
ATOM     19  C   UNL     1      -2.285  11.612  17.907  0.00  0.00    +0.000 C 
ENDBRANCH  17  19
BRANCH  17  20
ATOM     20  N   UNL     1      -3.116  13.147  19.579  0.00  0.00    +0.000 N 
ATOM     21  H   UNL     1      -3.007  14.143  19.423  0.00  0.00    +0.000 HD
BRANCH  20  22
ATOM     22  C   UNL     1      -4.214  12.763  20.312  0.00  0.00    +0.000 A 
ATOM     23  N   UNL     1      -5.346  12.313  19.711  0.00  0.00    +0.000 NA
ATOM     24  C   UNL     1      -6.403  11.981  20.484  0.00  0.00    +0.000 A 
ATOM     25  N   UNL     1      -6.507  12.029  21.828  0.00  0.00    +0.000 NA
ATOM     26  C   UNL     1      -5.367  12.480  22.368  0.00  0.00    +0.000 A 
ATOM     27  N   UNL     1      -5.102  12.678  23.692  0.00  0.00    +0.000 N 
ATOM     28  C   UNL     1      -3.829  13.168  23.791  0.00  0.00    +0.000 A 
ATOM     29  N   UNL     1      -3.251  13.281  22.615  0.00  0.00    +0.000 NA
ATOM     30  C   UNL     1      -4.208  12.853  21.714  0.00  0.00    +0.000 A 
ATOM     31  H   UNL     1      -5.747  12.502  24.448  0.00  0.00    +0.000 HD
ENDBRANCH  20  22
ENDBRANCH  17  20
ENDBRANCH   1  17
TORSDOF 5
ENDMDL
MODEL 5
REMARK VINA RESULT:      -7.8      2.558      6.949
REMARK  Name = 
REMARK  6 active torsions:
REMARK  status: ('A' for Active; 'I' for Inactive)
REMARK    1  A    between atoms: C_1  and  C_2
REMARK    2  A    between atoms: C_2  and  C_3
REMARK    3  A    between atoms: C_3  and  N_4
REMARK    4  A    between atoms: C_3  and  C_14
REMARK    5  A    between atoms: N_4  and  C_5
REMARK    6  A    between atoms: N_23  and  C_24
REMARK                            x       y       z     vdW  Elec       q    Type
REMARK                         _______ _______ _______ _____ _____    ______ ____
ROOT
ATOM      1  C   UNL     1       2.467   6.381  18.290  0.00  0.00    +0.000 A 
ATOM      2  N   UNL     1       2.532   7.542  17.694  0.00  0.00    +0.000 NA
ATOM      3  N   UNL     1       2.050   8.586  18.390  0.00  0.00    +0.000 N 
ATOM      4  C   UNL     1       2.010   9.883  17.948  0.00  0.00    +0.000 A 
ATOM      5  C   UNL     1       1.493  10.672  18.954  0.00  0.00    +0.000 A 
ATOM      6  C   UNL     1       1.170   9.809  20.028  0.00  0.00    +0.000 A 
ATOM      7  C   UNL     1       1.505   8.529  19.633  0.00  0.00    +0.000 A 
ATOM      8  C   UNL     1       1.386   7.273  20.306  0.00  0.00    +0.000 A 
ATOM      9  O   UNL     1       0.880   7.188  21.417  0.00  0.00    +0.000 OA
ATOM     10  N   UNL     1       1.941   6.198  19.584  0.00  0.00    +0.000 N 
ENDROOT
BRANCH  10  11
ATOM     11  C   UNL     1       1.963   4.937  20.247  0.00  0.00    +0.000 A 
ATOM     12  C   UNL     1       0.798   4.165  20.357  0.00  0.00    +0.000 A 
ATOM     13  C   UNL     1       0.842   2.905  20.960  0.00  0.00    +0.000 A 
ATOM     14  C   UNL     1       2.044   2.424  21.478  0.00  0.00    +0.000 A 
ATOM     15  C   UNL     1       3.189   3.216  21.434  0.00  0.00    +0.000 A 
ATOM     16  C   UNL     1       3.148   4.473  20.830  0.00  0.00    +0.000 A 
ENDBRANCH  10  11
BRANCH   1  17
ATOM     17  C   UNL     1       2.896   5.133  17.433  0.00  0.00    +0.000 C 
BRANCH  17  19
ATOM     18  C   UNL     1       2.575   2.527  17.535  0.00  0.00    +0.000 C 
ATOM     19  C   UNL     1       1.944   3.914  17.474  0.00  0.00    +0.000 C 
ENDBRANCH  17  19
BRANCH  17  20
ATOM     20  N   UNL     1       4.204   4.676  17.871  0.00  0.00    +0.000 N 
ATOM     21  H   UNL     1       4.277   4.050  18.665  0.00  0.00    +0.000 HD
BRANCH  20  22
ATOM     22  C   UNL     1       5.374   5.257  17.445  0.00  0.00    +0.000 A 
ATOM     23  N   UNL     1       6.028   6.175  18.205  0.00  0.00    +0.000 NA
ATOM     24  C   UNL     1       7.157   6.734  17.718  0.00  0.00    +0.000 A 
ATOM     25  N   UNL     1       7.763   6.506  16.535  0.00  0.00    +0.000 NA
ATOM     26  C   UNL     1       7.078   5.598  15.827  0.00  0.00    +0.000 A 
ATOM     27  N   UNL     1       7.374   5.128  14.580  0.00  0.00    +0.000 N 
ATOM     28  C   UNL     1       6.399   4.235  14.232  0.00  0.00    +0.000 A 
ATOM     29  N   UNL     1       5.502   4.087  15.183  0.00  0.00    +0.000 NA
ATOM     30  C   UNL     1       5.918   4.940  16.189  0.00  0.00    +0.000 A 
ATOM     31  H   UNL     1       8.168   5.409  14.025  0.00  0.00    +0.000 HD
ENDBRANCH  20  22
ENDBRANCH  17  20
ENDBRANCH   1  17
TORSDOF 5
ENDMDL
MODEL 6
REMARK VINA RESULT:      -7.8      8.057     10.832
REMARK  Name = 
REMARK  6 active torsions:
REMARK  status: ('A' for Active; 'I' for Inactive)
REMARK    1  A    between atoms: C_1  and  C_2
REMARK    2  A    between atoms: C_2  and  C_3
REMARK    3  A    between atoms: C_3  and  N_4
REMARK    4  A    between atoms: C_3  and  C_14
REMARK    5  A    between atoms: N_4  and  C_5
REMARK    6  A    between atoms: N_23  and  C_24
REMARK                            x       y       z     vdW  Elec       q    Type
REMARK                         _______ _______ _______ _____ _____    ______ ____
ROOT
ATOM      1  C   UNL     1      -0.749  12.686  19.391  0.00  0.00    +0.000 A 
ATOM      2  N   UNL     1      -0.805  13.849  18.798  0.00  0.00    +0.000 NA
ATOM      3  N   UNL     1       0.212  14.688  19.059  0.00  0.00    +0.000 N 
ATOM      4  C   UNL     1       0.343  15.956  18.552  0.00  0.00    +0.000 A 
ATOM      5  C   UNL     1       1.532  16.487  19.006  0.00  0.00    +0.000 A 
ATOM      6  C   UNL     1       2.119  15.517  19.853  0.00  0.00    +0.000 A 
ATOM      7  C   UNL     1       1.264  14.433  19.878  0.00  0.00    +0.000 A 
ATOM      8  C   UNL     1       1.344  13.185  20.573  0.00  0.00    +0.000 A 
ATOM      9  O   UNL     1       2.269  12.935  21.334  0.00  0.00    +0.000 OA
ATOM     10  N   UNL     1       0.299  12.298  20.249  0.00  0.00    +0.000 N 
ENDROOT
BRANCH  10  11
ATOM     11  C   UNL     1       0.381  10.993  20.814  0.00  0.00    +0.000 A 
ATOM     12  C   UNL     1       0.990   9.944  20.111  0.00  0.00    +0.000 A 
ATOM     13  C   UNL     1       1.115   8.682  20.697  0.00  0.00    +0.000 A 
ATOM     14  C   UNL     1       0.608   8.456  21.976  0.00  0.00    +0.000 A 
ATOM     15  C   UNL     1      -0.061   9.474  22.651  0.00  0.00    +0.000 A 
ATOM     16  C   UNL     1      -0.184  10.736  22.069  0.00  0.00    +0.000 A 
ENDBRANCH  10  11
BRANCH   1  17
ATOM     17  C   UNL     1      -2.000  11.749  19.207  0.00  0.00    +0.000 C 
BRANCH  17  19
ATOM     18  C   UNL     1      -2.528  11.245  16.683  0.00  0.00    +0.000 C 
ATOM     19  C   UNL     1      -1.953  10.768  18.013  0.00  0.00    +0.000 C 
ENDBRANCH  17  19
BRANCH  17  20
ATOM     20  N   UNL     1      -3.192  12.565  19.051  0.00  0.00    +0.000 N 
ATOM     21  H   UNL     1      -3.167  13.379  18.446  0.00  0.00    +0.000 HD
BRANCH  20  22
ATOM     22  C   UNL     1      -4.278  12.461  19.886  0.00  0.00    +0.000 A 
ATOM     23  N   UNL     1      -4.267  12.996  21.135  0.00  0.00    +0.000 NA
ATOM     24  C   UNL     1      -5.354  12.834  21.921  0.00  0.00    +0.000 A 
ATOM     25  N   UNL     1      -6.505  12.190  21.637  0.00  0.00    +0.000 NA
ATOM     26  C   UNL     1      -6.462  11.681  20.399  0.00  0.00    +0.000 A 
ATOM     27  N   UNL     1      -7.431  10.954  19.770  0.00  0.00    +0.000 N 
ATOM     28  C   UNL     1      -6.960  10.619  18.531  0.00  0.00    +0.000 A 
ATOM     29  N   UNL     1      -5.755  11.100  18.315  0.00  0.00    +0.000 NA
ATOM     30  C   UNL     1      -5.431  11.767  19.482  0.00  0.00    +0.000 A 
ATOM     31  H   UNL     1      -8.324  10.707  20.169  0.00  0.00    +0.000 HD
ENDBRANCH  20  22
ENDBRANCH  17  20
ENDBRANCH   1  17
TORSDOF 5
ENDMDL
MODEL 7
REMARK VINA RESULT:      -7.7      2.187      3.123
REMARK  Name = 
REMARK  6 active torsions:
REMARK  status: ('A' for Active; 'I' for Inactive)
REMARK    1  A    between atoms: C_1  and  C_2
REMARK    2  A    between atoms: C_2  and  C_3
REMARK    3  A    between atoms: C_3  and  N_4
REMARK    4  A    between atoms: C_3  and  C_14
REMARK    5  A    between atoms: N_4  and  C_5
REMARK    6  A    between atoms: N_23  and  C_24
REMARK                            x       y       z     vdW  Elec       q    Type
REMARK                         _______ _______ _______ _____ _____    ______ ____
ROOT
ATOM      1  C   UNL     1       5.269   4.231  15.505  0.00  0.00    +0.000 A 
ATOM      2  N   UNL     1       4.792   3.607  14.460  0.00  0.00    +0.000 NA
ATOM      3  N   UNL     1       5.538   3.679  13.345  0.00  0.00    +0.000 N 
ATOM      4  C   UNL     1       5.219   3.109  12.139  0.00  0.00    +0.000 A 
ATOM      5  C   UNL     1       6.245   3.357  11.252  0.00  0.00    +0.000 A 
ATOM      6  C   UNL     1       7.201   4.143  11.940  0.00  0.00    +0.000 A 
ATOM      7  C   UNL     1       6.718   4.340  13.218  0.00  0.00    +0.000 A 
ATOM      8  C   UNL     1       7.256   5.063  14.329  0.00  0.00    +0.000 A 
ATOM      9  O   UNL     1       8.306   5.686  14.238  0.00  0.00    +0.000 OA
ATOM     10  N   UNL     1       6.488   4.935  15.502  0.00  0.00    +0.000 N 
ENDROOT
BRANCH  10  11
ATOM     11  C   UNL     1       7.029   5.532  16.678  0.00  0.00    +0.000 A 
ATOM     12  C   UNL     1       7.507   4.740  17.730  0.00  0.00    +0.000 A 
ATOM     13  C   UNL     1       8.085   5.335  18.854  0.00  0.00    +0.000 A 
ATOM     14  C   UNL     1       8.165   6.724  18.943  0.00  0.00    +0.000 A 
ATOM     15  C   UNL     1       7.627   7.519  17.932  0.00  0.00    +0.000 A 
ATOM     16  C   UNL     1       7.052   6.927  16.807  0.00  0.00    +0.000 A 
ENDBRANCH  10  11
BRANCH   1  17
ATOM     17  C   UNL     1       4.339   4.275  16.774  0.00  0.00    +0.000 C 
BRANCH  17  19
ATOM     18  C   UNL     1       3.353   6.478  17.812  0.00  0.00    +0.000 C 
ATOM     19  C   UNL     1       4.514   5.494  17.710  0.00  0.00    +0.000 C 
ENDBRANCH  17  19
BRANCH  17  20
ATOM     20  N   UNL     1       4.558   3.081  17.572  0.00  0.00    +0.000 N 
ATOM     21  H   UNL     1       4.998   2.270  17.151  0.00  0.00    +0.000 HD
BRANCH  20  22
ATOM     22  C   UNL     1       3.958   2.883  18.793  0.00  0.00    +0.000 A 
ATOM     23  N   UNL     1       4.689   2.625  19.909  0.00  0.00    +0.000 NA
ATOM     24  C   UNL     1       4.040   2.407  21.074  0.00  0.00    +0.000 A 
ATOM     25  N   UNL     1       2.711   2.410  21.306  0.00  0.00    +0.000 NA
ATOM     26  C   UNL     1       2.040   2.667  20.175  0.00  0.00    +0.000 A 
ATOM     27  N   UNL     1       0.687   2.734  20.015  0.00  0.00    +0.000 N 
ATOM     28  C   UNL     1       0.438   2.996  18.696  0.00  0.00    +0.000 A 
ATOM     29  N   UNL     1       1.547   3.118  18.000  0.00  0.00    +0.000 NA
ATOM     30  C   UNL     1       2.559   2.912  18.918  0.00  0.00    +0.000 A 
ATOM     31  H   UNL     1       0.006   2.600  20.748  0.00  0.00    +0.000 HD
ENDBRANCH  20  22
ENDBRANCH  17  20
ENDBRANCH   1  17
TORSDOF 5
ENDMDL
MODEL 8
REMARK VINA RESULT:      -7.6      6.772      9.690
REMARK  Name = 
REMARK  6 active torsions:
REMARK  status: ('A' for Active; 'I' for Inactive)
REMARK    1  A    between atoms: C_1  and  C_2
REMARK    2  A    between atoms: C_2  and  C_3
REMARK    3  A    between atoms: C_3  and  N_4
REMARK    4  A    between atoms: C_3  and  C_14
REMARK    5  A    between atoms: N_4  and  C_5
REMARK    6  A    between atoms: N_23  and  C_24
REMARK                            x       y       z     vdW  Elec       q    Type
REMARK                         _______ _______ _______ _____ _____    ______ ____
ROOT
ATOM      1  C   UNL     1       1.370  11.764  19.111  0.00  0.00    +0.000 A 
ATOM      2  N   UNL     1       2.007  12.480  18.224  0.00  0.00    +0.000 NA
ATOM      3  N   UNL     1       2.481  13.662  18.655  0.00  0.00    +0.000 N 
ATOM      4  C   UNL     1       3.166  14.569  17.888  0.00  0.00    +0.000 A 
ATOM      5  C   UNL     1       3.527  15.633  18.687  0.00  0.00    +0.000 A 
ATOM      6  C   UNL     1       3.003  15.374  19.976  0.00  0.00    +0.000 A 
ATOM      7  C   UNL     1       2.345  14.163  19.910  0.00  0.00    +0.000 A 
ATOM      8  C   UNL     1       1.624  13.425  20.901  0.00  0.00    +0.000 A 
ATOM      9  O   UNL     1       1.467  13.861  22.034  0.00  0.00    +0.000 OA
ATOM     10  N   UNL     1       1.179  12.168  20.447  0.00  0.00    +0.000 N 
ENDROOT
BRANCH  10  11
ATOM     11  C   UNL     1       0.558  11.331  21.418  0.00  0.00    +0.000 A 
ATOM     12  C   UNL     1       1.102  10.080  21.740  0.00  0.00    +0.000 A 
ATOM     13  C   UNL     1       0.515   9.291  22.733  0.00  0.00    +0.000 A 
ATOM     14  C   UNL     1      -0.631   9.737  23.389  0.00  0.00    +0.000 A 
ATOM     15  C   UNL     1      -1.217  10.948  23.024  0.00  0.00    +0.000 A 
ATOM     16  C   UNL     1      -0.632  11.738  22.035  0.00  0.00    +0.000 A 
ENDBRANCH  10  11
BRANCH   1  17
ATOM     17  C   UNL     1       0.689  10.446  18.585  0.00  0.00    +0.000 C 
BRANCH  17  19
ATOM     18  C   UNL     1       1.969   8.172  18.889  0.00  0.00    +0.000 C 
ATOM     19  C   UNL     1       1.636   9.370  18.005  0.00  0.00    +0.000 C 
ENDBRANCH  17  19
BRANCH  17  20
ATOM     20  N   UNL     1      -0.272  10.783  17.549  0.00  0.00    +0.000 N 
ATOM     21  H   UNL     1       0.052  10.970  16.606  0.00  0.00    +0.000 HD
BRANCH  20  22
ATOM     22  C   UNL     1      -1.572  11.133  17.826  0.00  0.00    +0.000 A 
ATOM     23  N   UNL     1      -1.930  11.628  19.040  0.00  0.00    +0.000 NA
ATOM     24  C   UNL     1      -3.228  11.924  19.263  0.00  0.00    +0.000 A 
ATOM     25  N   UNL     1      -4.274  11.798  18.420  0.00  0.00    +0.000 NA
ATOM     26  C   UNL     1      -3.866  11.306  17.242  0.00  0.00    +0.000 A 
ATOM     27  N   UNL     1      -4.639  11.028  16.152  0.00  0.00    +0.000 N 
ATOM     28  C   UNL     1      -3.819  10.521  15.182  0.00  0.00    +0.000 A 
ATOM     29  N   UNL     1      -2.564  10.472  15.573  0.00  0.00    +0.000 NA
ATOM     30  C   UNL     1      -2.583  10.961  16.866  0.00  0.00    +0.000 A 
ATOM     31  H   UNL     1      -5.637  11.166  16.094  0.00  0.00    +0.000 HD
ENDBRANCH  20  22
ENDBRANCH  17  20
ENDBRANCH   1  17
TORSDOF 5
ENDMDL
MODEL 9
REMARK VINA RESULT:      -7.6      8.961     11.257
REMARK  Name = 
REMARK  6 active torsions:
REMARK  status: ('A' for Active; 'I' for Inactive)
REMARK    1  A    between atoms: C_1  and  C_2
REMARK    2  A    between atoms: C_2  and  C_3
REMARK    3  A    between atoms: C_3  and  N_4
REMARK    4  A    between atoms: C_3  and  C_14
REMARK    5  A    between atoms: N_4  and  C_5
REMARK    6  A    between atoms: N_23  and  C_24
REMARK                            x       y       z     vdW  Elec       q    Type
REMARK                         _______ _______ _______ _____ _____    ______ ____
ROOT
ATOM      1  C   UNL     1      -0.915  12.970  19.447  0.00  0.00    +0.000 A 
ATOM      2  N   UNL     1      -0.930  14.042  18.701  0.00  0.00    +0.000 NA
ATOM      3  N   UNL     1      -0.219  15.086  19.160  0.00  0.00    +0.000 N 
ATOM      4  C   UNL     1      -0.110  16.305  18.542  0.00  0.00    +0.000 A 
ATOM      5  C   UNL     1       0.738  17.099  19.286  0.00  0.00    +0.000 A 
ATOM      6  C   UNL     1       1.121  16.341  20.419  0.00  0.00    +0.000 A 
ATOM      7  C   UNL     1       0.492  15.116  20.317  0.00  0.00    +0.000 A 
ATOM      8  C   UNL     1       0.507  13.974  21.178  0.00  0.00    +0.000 A 
ATOM      9  O   UNL     1       1.121  13.980  22.237  0.00  0.00    +0.000 OA
ATOM     10  N   UNL     1      -0.201  12.874  20.658  0.00  0.00    +0.000 N 
ENDROOT
BRANCH  10  11
ATOM     11  C   UNL     1      -0.129  11.665  21.408  0.00  0.00    +0.000 A 
ATOM     12  C   UNL     1       0.810  10.676  21.086  0.00  0.00    +0.000 A 
ATOM     13  C   UNL     1       0.909   9.518  21.863  0.00  0.00    +0.000 A 
ATOM     14  C   UNL     1       0.054   9.333  22.948  0.00  0.00    +0.000 A 
ATOM     15  C   UNL     1      -0.929  10.280  23.230  0.00  0.00    +0.000 A 
ATOM     16  C   UNL     1      -1.028  11.438  22.458  0.00  0.00    +0.000 A 
ENDBRANCH  10  11
BRANCH   1  17
ATOM     17  C   UNL     1      -1.855  11.792  18.994  0.00  0.00    +0.000 C 
BRANCH  17  19
ATOM     18  C   UNL     1      -2.201   9.735  17.398  0.00  0.00    +0.000 C 
ATOM     19  C   UNL     1      -1.275  10.817  17.944  0.00  0.00    +0.000 C 
ENDBRANCH  17  19
BRANCH  17  20
ATOM     20  N   UNL     1      -3.082  12.342  18.444  0.00  0.00    +0.000 N 
ATOM     21  H   UNL     1      -3.042  13.162  17.848  0.00  0.00    +0.000 HD
BRANCH  20  22
ATOM     22  C   UNL     1      -4.328  11.983  18.901  0.00  0.00    +0.000 A 
ATOM     23  N   UNL     1      -5.218  11.337  18.103  0.00  0.00    +0.000 NA
ATOM     24  C   UNL     1      -6.438  11.039  18.599  0.00  0.00    +0.000 A 
ATOM     25  N   UNL     1      -6.928  11.297  19.830  0.00  0.00    +0.000 NA
ATOM     26  C   UNL     1      -6.013  11.934  20.572  0.00  0.00    +0.000 A 
ATOM     27  N   UNL     1      -6.152  12.371  21.858  0.00  0.00    +0.000 N 
ATOM     28  C   UNL     1      -4.984  12.986  22.214  0.00  0.00    +0.000 A 
ATOM     29  N   UNL     1      -4.096  12.958  21.245  0.00  0.00    +0.000 NA
ATOM     30  C   UNL     1      -4.732  12.302  20.208  0.00  0.00    +0.000 A 
ATOM     31  H   UNL     1      -6.980  12.261  22.424  0.00  0.00    +0.000 HD
ENDBRANCH  20  22
ENDBRANCH  17  20
ENDBRANCH   1  17
TORSDOF 5
ENDMDL
