MODEL 1
REMARK VINA RESULT:      -6.4      0.000      0.000
REMARK  Name = 
REMARK  9 active torsions:
REMARK  status: ('A' for Active; 'I' for Inactive)
REMARK    1  A    between atoms: C_1  and  C_2
REMARK    2  A    between atoms: C_2  and  C_3
REMARK    3  A    between atoms: N_7  and  C_8
REMARK    4  A    between atoms: C_8  and  C_9
REMARK    5  A    between atoms: C_9  and  O_10
REMARK    6  A    between atoms: O_10  and  C_11
REMARK    7  A    between atoms: C_11  and  C_12
REMARK    8  A    between atoms: C_12  and  S_13
REMARK    9  A    between atoms: S_13  and  C_14
REMARK                            x       y       z     vdW  Elec       q    Type
REMARK                         _______ _______ _______ _____ _____    ______ ____
ROOT
ATOM      1  C   UNL     1       4.148   4.289  16.499  0.00  0.00    +0.000 C 
ENDROOT
BRANCH   1   8
ATOM      2  C   UNL     1       8.035   5.491  19.268  0.00  0.00    +0.000 C 
ATOM      3  C   UNL     1       7.335   5.743  17.943  0.00  0.00    +0.000 C 
ATOM      4  C   UNL     1       7.540   7.183  17.472  0.00  0.00    +0.000 C 
ATOM      5  N   UNL     1       7.711   4.819  16.903  0.00  0.00    +0.000 N 
ATOM      6  C   UNL     1       6.609   4.415  16.167  0.00  0.00    +0.000 C 
ATOM      7  O   UNL     1       6.678   3.875  15.083  0.00  0.00    +0.000 OA
ATOM      8  N   UNL     1       5.487   4.737  16.871  0.00  0.00    +0.000 N 
ATOM      9  C   UNL     1       5.822   5.438  18.001  0.00  0.00    +0.000 C 
ATOM     10  O   UNL     1       5.064   5.831  18.870  0.00  0.00    +0.000 OA
ATOM     11  H   UNL     1       8.640   4.704  16.516  0.00  0.00    +0.000 HD
ENDBRANCH   1   8
BRANCH   1  12
ATOM     12  C   UNL     1       3.479   3.501  17.632  0.00  0.00    +0.000 C 
BRANCH  12  13
ATOM     13  O   UNL     1       2.179   4.019  17.965  0.00  0.00    +0.000 OA
BRANCH  13  14
ATOM     14  C   UNL     1       1.677   3.331  19.124  0.00  0.00    +0.000 C 
BRANCH  14  15
ATOM     15  C   UNL     1       1.003   4.296  20.096  0.00  0.00    +0.000 C 
BRANCH  15  16
ATOM     16  S   UNL     1       2.297   5.390  20.792  0.00  0.00    +0.000 S 
BRANCH  16  17
ATOM     17  C   UNL     1       1.921   6.990  20.095  0.00  0.00    +0.000 A 
ATOM     18  C   UNL     1       1.247   7.895  20.927  0.00  0.00    +0.000 A 
ATOM     19  C   UNL     1       0.862   9.151  20.458  0.00  0.00    +0.000 A 
ATOM     20  C   UNL     1       1.179   9.532  19.157  0.00  0.00    +0.000 A 
ATOM     21  C   UNL     1       1.892   8.661  18.336  0.00  0.00    +0.000 A 
ATOM     22  C   UNL     1       2.263   7.393  18.803  0.00  0.00    +0.000 A 
ENDBRANCH  16  17
ENDBRANCH  15  16
ENDBRANCH  14  15
ENDBRANCH  13  14
ENDBRANCH  12  13
ENDBRANCH   1  12
TORSDOF 7
ENDMDL
MODEL 2
REMARK VINA RESULT:      -6.4      1.315      1.933
REMARK  Name = 
REMARK  9 active torsions:
REMARK  status: ('A' for Active; 'I' for Inactive)
REMARK    1  A    between atoms: C_1  and  C_2
REMARK    2  A    between atoms: C_2  and  C_3
REMARK    3  A    between atoms: N_7  and  C_8
REMARK    4  A    between atoms: C_8  and  C_9
REMARK    5  A    between atoms: C_9  and  O_10
REMARK    6  A    between atoms: O_10  and  C_11
REMARK    7  A    between atoms: C_11  and  C_12
REMARK    8  A    between atoms: C_12  and  S_13
REMARK    9  A    between atoms: S_13  and  C_14
REMARK                            x       y       z     vdW  Elec       q    Type
REMARK                         _______ _______ _______ _____ _____    ______ ____
ROOT
ATOM      1  C   UNL     1       4.369   3.168  17.450  0.00  0.00    +0.000 C 
ENDROOT
BRANCH   1   8
ATOM      2  C   UNL     1       7.925   6.243  18.908  0.00  0.00    +0.000 C 
ATOM      3  C   UNL     1       6.869   5.988  17.846  0.00  0.00    +0.000 C 
ATOM      4  C   UNL     1       6.304   7.300  17.300  0.00  0.00    +0.000 C 
ATOM      5  N   UNL     1       7.325   5.152  16.763  0.00  0.00    +0.000 N 
ATOM      6  C   UNL     1       6.356   4.231  16.398  0.00  0.00    +0.000 C 
ATOM      7  O   UNL     1       6.369   3.610  15.357  0.00  0.00    +0.000 OA
ATOM      8  N   UNL     1       5.429   4.171  17.396  0.00  0.00    +0.000 N 
ATOM      9  C   UNL     1       5.708   5.108  18.358  0.00  0.00    +0.000 C 
ATOM     10  O   UNL     1       5.107   5.284  19.404  0.00  0.00    +0.000 OA
ATOM     11  H   UNL     1       8.078   5.368  16.121  0.00  0.00    +0.000 HD
ENDBRANCH   1   8
BRANCH   1  12
ATOM     12  C   UNL     1       4.467   2.308  18.716  0.00  0.00    +0.000 C 
BRANCH  12  13
ATOM     13  O   UNL     1       3.175   1.984  19.257  0.00  0.00    +0.000 OA
BRANCH  13  14
ATOM     14  C   UNL     1       2.186   2.087  18.218  0.00  0.00    +0.000 C 
BRANCH  14  15
ATOM     15  C   UNL     1       0.840   2.548  18.774  0.00  0.00    +0.000 C 
BRANCH  15  16
ATOM     16  S   UNL     1       1.156   3.475  20.322  0.00  0.00    +0.000 S 
BRANCH  16  17
ATOM     17  C   UNL     1       1.618   5.103  19.755  0.00  0.00    +0.000 A 
ATOM     18  C   UNL     1       1.877   5.241  18.384  0.00  0.00    +0.000 A 
ATOM     19  C   UNL     1       2.296   6.461  17.852  0.00  0.00    +0.000 A 
ATOM     20  C   UNL     1       2.425   7.571  18.682  0.00  0.00    +0.000 A 
ATOM     21  C   UNL     1       2.122   7.460  20.038  0.00  0.00    +0.000 A 
ATOM     22  C   UNL     1       1.718   6.230  20.574  0.00  0.00    +0.000 A 
ENDBRANCH  16  17
ENDBRANCH  15  16
ENDBRANCH  14  15
ENDBRANCH  13  14
ENDBRANCH  12  13
ENDBRANCH   1  12
TORSDOF 7
ENDMDL
MODEL 3
REMARK VINA RESULT:      -6.4      2.468      4.311
REMARK  Name = 
REMARK  9 active torsions:
REMARK  status: ('A' for Active; 'I' for Inactive)
REMARK    1  A    between atoms: C_1  and  C_2
REMARK    2  A    between atoms: C_2  and  C_3
REMARK    3  A    between atoms: N_7  and  C_8
REMARK    4  A    between atoms: C_8  and  C_9
REMARK    5  A    between atoms: C_9  and  O_10
REMARK    6  A    between atoms: O_10  and  C_11
REMARK    7  A    between atoms: C_11  and  C_12
REMARK    8  A    between atoms: C_12  and  S_13
REMARK    9  A    between atoms: S_13  and  C_14
REMARK                            x       y       z     vdW  Elec       q    Type
REMARK                         _______ _______ _______ _____ _____    ______ ____
ROOT
ATOM      1  C   UNL     1       4.323   4.075  16.885  0.00  0.00    +0.000 C 
ENDROOT
BRANCH   1   8
ATOM      2  C   UNL     1       0.938   2.417  20.051  0.00  0.00    +0.000 C 
ATOM      3  C   UNL     1       1.997   3.481  19.817  0.00  0.00    +0.000 C 
ATOM      4  C   UNL     1       1.612   4.802  20.485  0.00  0.00    +0.000 C 
ATOM      5  N   UNL     1       3.321   3.082  20.225  0.00  0.00    +0.000 N 
ATOM      6  C   UNL     1       4.273   3.478  19.299  0.00  0.00    +0.000 C 
ATOM      7  O   UNL     1       5.463   3.519  19.525  0.00  0.00    +0.000 OA
ATOM      8  N   UNL     1       3.630   3.802  18.141  0.00  0.00    +0.000 N 
ATOM      9  C   UNL     1       2.271   3.731  18.318  0.00  0.00    +0.000 C 
ATOM     10  O   UNL     1       1.413   3.909  17.472  0.00  0.00    +0.000 OA
ATOM     11  H   UNL     1       3.607   2.846  21.167  0.00  0.00    +0.000 HD
ENDBRANCH   1   8
BRANCH   1  12
ATOM     12  C   UNL     1       4.465   5.581  16.633  0.00  0.00    +0.000 C 
BRANCH  12  13
ATOM     13  O   UNL     1       4.705   6.318  17.844  0.00  0.00    +0.000 OA
BRANCH  13  14
ATOM     14  C   UNL     1       4.029   7.585  17.769  0.00  0.00    +0.000 C 
BRANCH  14  15
ATOM     15  C   UNL     1       2.525   7.428  17.982  0.00  0.00    +0.000 C 
BRANCH  15  16
ATOM     16  S   UNL     1       1.765   9.092  17.888  0.00  0.00    +0.000 S 
BRANCH  16  17
ATOM     17  C   UNL     1       1.150   9.371  19.540  0.00  0.00    +0.000 A 
ATOM     18  C   UNL     1       0.403  10.540  19.742  0.00  0.00    +0.000 A 
ATOM     19  C   UNL     1      -0.077  10.875  21.009  0.00  0.00    +0.000 A 
ATOM     20  C   UNL     1       0.155  10.022  22.085  0.00  0.00    +0.000 A 
ATOM     21  C   UNL     1       0.853   8.833  21.887  0.00  0.00    +0.000 A 
ATOM     22  C   UNL     1       1.348   8.506  20.618  0.00  0.00    +0.000 A 
ENDBRANCH  16  17
ENDBRANCH  15  16
ENDBRANCH  14  15
ENDBRANCH  13  14
ENDBRANCH  12  13
ENDBRANCH   1  12
TORSDOF 7
ENDMDL
MODEL 4
REMARK VINA RESULT:      -6.4      0.478      1.148
REMARK  Name = 
REMARK  9 active torsions:
REMARK  status: ('A' for Active; 'I' for Inactive)
REMARK    1  A    between atoms: C_1  and  C_2
REMARK    2  A    between atoms: C_2  and  C_3
REMARK    3  A    between atoms: N_7  and  C_8
REMARK    4  A    between atoms: C_8  and  C_9
REMARK    5  A    between atoms: C_9  and  O_10
REMARK    6  A    between atoms: O_10  and  C_11
REMARK    7  A    between atoms: C_11  and  C_12
REMARK    8  A    between atoms: C_12  and  S_13
REMARK    9  A    between atoms: S_13  and  C_14
REMARK                            x       y       z     vdW  Elec       q    Type
REMARK                         _______ _______ _______ _____ _____    ______ ____
ROOT
ATOM      1  C   UNL     1       4.241   3.636  16.691  0.00  0.00    +0.000 C 
ENDROOT
BRANCH   1   8
ATOM      2  C   UNL     1       8.139   5.480  19.064  0.00  0.00    +0.000 C 
ATOM      3  C   UNL     1       7.240   5.642  17.850  0.00  0.00    +0.000 C 
ATOM      4  C   UNL     1       7.098   7.113  17.457  0.00  0.00    +0.000 C 
ATOM      5  N   UNL     1       7.654   4.859  16.712  0.00  0.00    +0.000 N 
ATOM      6  C   UNL     1       6.567   4.273  16.084  0.00  0.00    +0.000 C 
ATOM      7  O   UNL     1       6.601   3.805  14.966  0.00  0.00    +0.000 OA
ATOM      8  N   UNL     1       5.502   4.330  16.934  0.00  0.00    +0.000 N 
ATOM      9  C   UNL     1       5.835   5.035  18.063  0.00  0.00    +0.000 C 
ATOM     10  O   UNL     1       5.132   5.228  19.039  0.00  0.00    +0.000 OA
ATOM     11  H   UNL     1       8.530   4.952  16.214  0.00  0.00    +0.000 HD
ENDBRANCH   1   8
BRANCH   1  12
ATOM     12  C   UNL     1       3.644   3.074  17.987  0.00  0.00    +0.000 C 
BRANCH  12  13
ATOM     13  O   UNL     1       2.230   3.317  18.089  0.00  0.00    +0.000 OA
BRANCH  13  14
ATOM     14  C   UNL     1       1.767   2.885  19.380  0.00  0.00    +0.000 C 
BRANCH  14  15
ATOM     15  C   UNL     1       0.994   3.993  20.093  0.00  0.00    +0.000 C 
BRANCH  15  16
ATOM     16  S   UNL     1       2.211   5.107  20.889  0.00  0.00    +0.000 S 
BRANCH  16  17
ATOM     17  C   UNL     1       1.932   6.679  20.092  0.00  0.00    +0.000 A 
ATOM     18  C   UNL     1       2.312   6.776  18.746  0.00  0.00    +0.000 A 
ATOM     19  C   UNL     1       2.184   7.978  18.049  0.00  0.00    +0.000 A 
ATOM     20  C   UNL     1       1.638   9.091  18.682  0.00  0.00    +0.000 A 
ATOM     21  C   UNL     1       1.211   8.994  20.005  0.00  0.00    +0.000 A 
ATOM     22  C   UNL     1       1.355   7.792  20.708  0.00  0.00    +0.000 A 
ENDBRANCH  16  17
ENDBRANCH  15  16
ENDBRANCH  14  15
ENDBRANCH  13  14
ENDBRANCH  12  13
ENDBRANCH   1  12
TORSDOF 7
ENDMDL
MODEL 5
REMARK VINA RESULT:      -6.3      1.197      1.406
REMARK  Name = 
REMARK  9 active torsions:
REMARK  status: ('A' for Active; 'I' for Inactive)
REMARK    1  A    between atoms: C_1  and  C_2
REMARK    2  A    between atoms: C_2  and  C_3
REMARK    3  A    between atoms: N_7  and  C_8
REMARK    4  A    between atoms: C_8  and  C_9
REMARK    5  A    between atoms: C_9  and  O_10
REMARK    6  A    between atoms: O_10  and  C_11
REMARK    7  A    between atoms: C_11  and  C_12
REMARK    8  A    between atoms: C_12  and  S_13
REMARK    9  A    between atoms: S_13  and  C_14
REMARK                            x       y       z     vdW  Elec       q    Type
REMARK                         _______ _______ _______ _____ _____    ______ ____
ROOT
ATOM      1  C   UNL     1       4.165   3.754  17.026  0.00  0.00    +0.000 C 
ENDROOT
BRANCH   1   8
ATOM      2  C   UNL     1       8.215   5.550  19.172  0.00  0.00    +0.000 C 
ATOM      3  C   UNL     1       7.279   5.690  17.983  0.00  0.00    +0.000 C 
ATOM      4  C   UNL     1       7.179   7.146  17.524  0.00  0.00    +0.000 C 
ATOM      5  N   UNL     1       7.621   4.839  16.871  0.00  0.00    +0.000 N 
ATOM      6  C   UNL     1       6.491   4.267  16.309  0.00  0.00    +0.000 C 
ATOM      7  O   UNL     1       6.467   3.746  15.215  0.00  0.00    +0.000 OA
ATOM      8  N   UNL     1       5.461   4.407  17.192  0.00  0.00    +0.000 N 
ATOM      9  C   UNL     1       5.861   5.151  18.273  0.00  0.00    +0.000 C 
ATOM     10  O   UNL     1       5.201   5.417  19.262  0.00  0.00    +0.000 OA
ATOM     11  H   UNL     1       8.482   4.873  16.339  0.00  0.00    +0.000 HD
ENDBRANCH   1   8
BRANCH   1  12
ATOM     12  C   UNL     1       4.189   2.310  17.542  0.00  0.00    +0.000 C 
BRANCH  12  13
ATOM     13  O   UNL     1       4.231   2.243  18.978  0.00  0.00    +0.000 OA
BRANCH  13  14
ATOM     14  C   UNL     1       2.889   2.155  19.488  0.00  0.00    +0.000 C 
BRANCH  14  15
ATOM     15  C   UNL     1       2.717   2.997  20.751  0.00  0.00    +0.000 C 
BRANCH  15  16
ATOM     16  S   UNL     1       1.139   3.915  20.606  0.00  0.00    +0.000 S 
BRANCH  16  17
ATOM     17  C   UNL     1       1.613   5.456  19.841  0.00  0.00    +0.000 A 
ATOM     18  C   UNL     1       1.623   6.590  20.666  0.00  0.00    +0.000 A 
ATOM     19  C   UNL     1       1.929   7.850  20.151  0.00  0.00    +0.000 A 
ATOM     20  C   UNL     1       2.266   7.986  18.807  0.00  0.00    +0.000 A 
ATOM     21  C   UNL     1       2.308   6.860  17.988  0.00  0.00    +0.000 A 
ATOM     22  C   UNL     1       1.985   5.598  18.502  0.00  0.00    +0.000 A 
ENDBRANCH  16  17
ENDBRANCH  15  16
ENDBRANCH  14  15
ENDBRANCH  13  14
ENDBRANCH  12  13
ENDBRANCH   1  12
TORSDOF 7
ENDMDL
MODEL 6
REMARK VINA RESULT:      -6.3      3.116      6.633
REMARK  Name = 
REMARK  9 active torsions:
REMARK  status: ('A' for Active; 'I' for Inactive)
REMARK    1  A    between atoms: C_1  and  C_2
REMARK    2  A    between atoms: C_2  and  C_3
REMARK    3  A    between atoms: N_7  and  C_8
REMARK    4  A    between atoms: C_8  and  C_9
REMARK    5  A    between atoms: C_9  and  O_10
REMARK    6  A    between atoms: O_10  and  C_11
REMARK    7  A    between atoms: C_11  and  C_12
REMARK    8  A    between atoms: C_12  and  S_13
REMARK    9  A    between atoms: S_13  and  C_14
REMARK                            x       y       z     vdW  Elec       q    Type
REMARK                         _______ _______ _______ _____ _____    ______ ____
ROOT
ATOM      1  C   UNL     1       2.052   5.995  18.084  0.00  0.00    +0.000 C 
ENDROOT
BRANCH   1   8
ATOM      2  C   UNL     1       1.352   2.536  21.515  0.00  0.00    +0.000 C 
ATOM      3  C   UNL     1       2.263   2.994  20.389  0.00  0.00    +0.000 C 
ATOM      4  C   UNL     1       3.719   2.621  20.667  0.00  0.00    +0.000 C 
ATOM      5  N   UNL     1       1.864   2.516  19.089  0.00  0.00    +0.000 N 
ATOM      6  C   UNL     1       1.985   3.509  18.130  0.00  0.00    +0.000 C 
ATOM      7  O   UNL     1       1.986   3.301  16.935  0.00  0.00    +0.000 OA
ATOM      8  N   UNL     1       2.102   4.707  18.771  0.00  0.00    +0.000 N 
ATOM      9  C   UNL     1       2.169   4.514  20.127  0.00  0.00    +0.000 C 
ATOM     10  O   UNL     1       2.226   5.375  20.987  0.00  0.00    +0.000 OA
ATOM     11  H   UNL     1       1.813   1.547  18.802  0.00  0.00    +0.000 HD
ENDBRANCH   1   8
BRANCH   1  12
ATOM     12  C   UNL     1       3.391   6.737  18.174  0.00  0.00    +0.000 C 
BRANCH  12  13
ATOM     13  O   UNL     1       4.395   6.158  17.322  0.00  0.00    +0.000 OA
BRANCH  13  14
ATOM     14  C   UNL     1       5.282   5.351  18.115  0.00  0.00    +0.000 C 
BRANCH  14  15
ATOM     15  C   UNL     1       6.150   4.450  17.238  0.00  0.00    +0.000 C 
BRANCH  15  16
ATOM     16  S   UNL     1       7.169   5.525  16.160  0.00  0.00    +0.000 S 
BRANCH  16  17
ATOM     17  C   UNL     1       6.907   4.858  14.526  0.00  0.00    +0.000 A 
ATOM     18  C   UNL     1       5.803   4.010  14.363  0.00  0.00    +0.000 A 
ATOM     19  C   UNL     1       5.544   3.396  13.137  0.00  0.00    +0.000 A 
ATOM     20  C   UNL     1       6.368   3.655  12.045  0.00  0.00    +0.000 A 
ATOM     21  C   UNL     1       7.439   4.535  12.181  0.00  0.00    +0.000 A 
ATOM     22  C   UNL     1       7.709   5.137  13.416  0.00  0.00    +0.000 A 
ENDBRANCH  16  17
ENDBRANCH  15  16
ENDBRANCH  14  15
ENDBRANCH  13  14
ENDBRANCH  12  13
ENDBRANCH   1  12
TORSDOF 7
ENDMDL
MODEL 7
REMARK VINA RESULT:      -6.3      3.639      7.447
REMARK  Name = 
REMARK  9 active torsions:
REMARK  status: ('A' for Active; 'I' for Inactive)
REMARK    1  A    between atoms: C_1  and  C_2
REMARK    2  A    between atoms: C_2  and  C_3
REMARK    3  A    between atoms: N_7  and  C_8
REMARK    4  A    between atoms: C_8  and  C_9
REMARK    5  A    between atoms: C_9  and  O_10
REMARK    6  A    between atoms: O_10  and  C_11
REMARK    7  A    between atoms: C_11  and  C_12
REMARK    8  A    between atoms: C_12  and  S_13
REMARK    9  A    between atoms: S_13  and  C_14
REMARK                            x       y       z     vdW  Elec       q    Type
REMARK                         _______ _______ _______ _____ _____    ______ ____
ROOT
ATOM      1  C   UNL     1       4.906   4.901  19.396  0.00  0.00    +0.000 C 
ENDROOT
BRANCH   1   8
ATOM      2  C   UNL     1       0.719   2.390  18.764  0.00  0.00    +0.000 C 
ATOM      3  C   UNL     1       1.775   2.800  19.777  0.00  0.00    +0.000 C 
ATOM      4  C   UNL     1       1.169   2.970  21.171  0.00  0.00    +0.000 C 
ATOM      5  N   UNL     1       2.906   1.908  19.830  0.00  0.00    +0.000 N 
ATOM      6  C   UNL     1       4.096   2.610  19.930  0.00  0.00    +0.000 C 
ATOM      7  O   UNL     1       5.150   2.115  20.267  0.00  0.00    +0.000 OA
ATOM      8  N   UNL     1       3.852   3.909  19.594  0.00  0.00    +0.000 N 
ATOM      9  C   UNL     1       2.510   4.099  19.381  0.00  0.00    +0.000 C 
ATOM     10  O   UNL     1       1.965   5.127  19.018  0.00  0.00    +0.000 OA
ATOM     11  H   UNL     1       2.880   0.928  20.087  0.00  0.00    +0.000 HD
ENDBRANCH   1   8
BRANCH   1  12
ATOM     12  C   UNL     1       5.548   4.775  18.009  0.00  0.00    +0.000 C 
BRANCH  12  13
ATOM     13  O   UNL     1       6.962   4.526  18.082  0.00  0.00    +0.000 OA
BRANCH  13  14
ATOM     14  C   UNL     1       7.490   4.395  16.751  0.00  0.00    +0.000 C 
BRANCH  14  15
ATOM     15  C   UNL     1       6.372   4.366  15.709  0.00  0.00    +0.000 C 
BRANCH  15  16
ATOM     16  S   UNL     1       7.085   4.885  14.104  0.00  0.00    +0.000 S 
BRANCH  16  17
ATOM     17  C   UNL     1       6.268   3.831  12.917  0.00  0.00    +0.000 A 
ATOM     18  C   UNL     1       7.065   2.872  12.276  0.00  0.00    +0.000 A 
ATOM     19  C   UNL     1       6.532   2.036  11.294  0.00  0.00    +0.000 A 
ATOM     20  C   UNL     1       5.181   2.126  10.967  0.00  0.00    +0.000 A 
ATOM     21  C   UNL     1       4.368   3.041  11.632  0.00  0.00    +0.000 A 
ATOM     22  C   UNL     1       4.908   3.890  12.606  0.00  0.00    +0.000 A 
ENDBRANCH  16  17
ENDBRANCH  15  16
ENDBRANCH  14  15
ENDBRANCH  13  14
ENDBRANCH  12  13
ENDBRANCH   1  12
TORSDOF 7
ENDMDL
MODEL 8
REMARK VINA RESULT:      -6.3      3.082      5.210
REMARK  Name = 
REMARK  9 active torsions:
REMARK  status: ('A' for Active; 'I' for Inactive)
REMARK    1  A    between atoms: C_1  and  C_2
REMARK    2  A    between atoms: C_2  and  C_3
REMARK    3  A    between atoms: N_7  and  C_8
REMARK    4  A    between atoms: C_8  and  C_9
REMARK    5  A    between atoms: C_9  and  O_10
REMARK    6  A    between atoms: O_10  and  C_11
REMARK    7  A    between atoms: C_11  and  C_12
REMARK    8  A    between atoms: C_12  and  S_13
REMARK    9  A    between atoms: S_13  and  C_14
REMARK                            x       y       z     vdW  Elec       q    Type
REMARK                         _______ _______ _______ _____ _____    ______ ____
ROOT
ATOM      1  C   UNL     1       3.307   6.623  17.771  0.00  0.00    +0.000 C 
ENDROOT
BRANCH   1   8
ATOM      2  C   UNL     1       2.253   1.870  18.502  0.00  0.00    +0.000 C 
ATOM      3  C   UNL     1       2.407   3.222  19.179  0.00  0.00    +0.000 C 
ATOM      4  C   UNL     1       1.454   3.357  20.368  0.00  0.00    +0.000 C 
ATOM      5  N   UNL     1       3.758   3.517  19.586  0.00  0.00    +0.000 N 
ATOM      6  C   UNL     1       4.089   4.834  19.312  0.00  0.00    +0.000 C 
ATOM      7  O   UNL     1       5.040   5.409  19.796  0.00  0.00    +0.000 OA
ATOM      8  N   UNL     1       3.169   5.330  18.435  0.00  0.00    +0.000 N 
ATOM      9  C   UNL     1       2.182   4.404  18.211  0.00  0.00    +0.000 C 
ATOM     10  O   UNL     1       1.241   4.509  17.444  0.00  0.00    +0.000 OA
ATOM     11  H   UNL     1       4.304   2.993  20.259  0.00  0.00    +0.000 HD
ENDBRANCH   1   8
BRANCH   1  12
ATOM     12  C   UNL     1       2.336   7.661  18.346  0.00  0.00    +0.000 C 
BRANCH  12  13
ATOM     13  O   UNL     1       2.119   7.484  19.757  0.00  0.00    +0.000 OA
BRANCH  13  14
ATOM     14  C   UNL     1       1.441   8.640  20.280  0.00  0.00    +0.000 C 
BRANCH  14  15
ATOM     15  C   UNL     1       1.068   9.618  19.168  0.00  0.00    +0.000 C 
BRANCH  15  16
ATOM     16  S   UNL     1      -0.145  10.810  19.849  0.00  0.00    +0.000 S 
BRANCH  16  17
ATOM     17  C   UNL     1      -1.470  10.797  18.653  0.00  0.00    +0.000 A 
ATOM     18  C   UNL     1      -1.343   9.898  17.585  0.00  0.00    +0.000 A 
ATOM     19  C   UNL     1      -2.300   9.849  16.570  0.00  0.00    +0.000 A 
ATOM     20  C   UNL     1      -3.417  10.677  16.632  0.00  0.00    +0.000 A 
ATOM     21  C   UNL     1      -3.580  11.541  17.713  0.00  0.00    +0.000 A 
ATOM     22  C   UNL     1      -2.611  11.600  18.723  0.00  0.00    +0.000 A 
ENDBRANCH  16  17
ENDBRANCH  15  16
ENDBRANCH  14  15
ENDBRANCH  13  14
ENDBRANCH  12  13
ENDBRANCH   1  12
TORSDOF 7
ENDMDL
MODEL 9
REMARK VINA RESULT:      -6.2      2.512      4.441
REMARK  Name = 
REMARK  9 active torsions:
REMARK  status: ('A' for Active; 'I' for Inactive)
REMARK    1  A    between atoms: C_1  and  C_2
REMARK    2  A    between atoms: C_2  and  C_3
REMARK    3  A    between atoms: N_7  and  C_8
REMARK    4  A    between atoms: C_8  and  C_9
REMARK    5  A    between atoms: C_9  and  O_10
REMARK    6  A    between atoms: O_10  and  C_11
REMARK    7  A    between atoms: C_11  and  C_12
REMARK    8  A    between atoms: C_12  and  S_13
REMARK    9  A    between atoms: S_13  and  C_14
REMARK                            x       y       z     vdW  Elec       q    Type
REMARK                         _______ _______ _______ _____ _____    ______ ____
ROOT
ATOM      1  C   UNL     1       4.118   3.867  16.947  0.00  0.00    +0.000 C 
ENDROOT
BRANCH   1   8
ATOM      2  C   UNL     1       0.419   2.828  20.024  0.00  0.00    +0.000 C 
ATOM      3  C   UNL     1       1.659   3.684  19.824  0.00  0.00    +0.000 C 
ATOM      4  C   UNL     1       1.506   5.047  20.499  0.00  0.00    +0.000 C 
ATOM      5  N   UNL     1       2.879   3.048  20.254  0.00  0.00    +0.000 N 
ATOM      6  C   UNL     1       3.906   3.271  19.352  0.00  0.00    +0.000 C 
ATOM      7  O   UNL     1       5.079   3.092  19.602  0.00  0.00    +0.000 OA
ATOM      8  N   UNL     1       3.359   3.715  18.185  0.00  0.00    +0.000 N 
ATOM      9  C   UNL     1       2.006   3.892  18.333  0.00  0.00    +0.000 C 
ATOM     10  O   UNL     1       1.214   4.230  17.472  0.00  0.00    +0.000 OA
ATOM     11  H   UNL     1       3.096   2.756  21.199  0.00  0.00    +0.000 HD
ENDBRANCH   1   8
BRANCH   1  12
ATOM     12  C   UNL     1       4.485   5.333  16.684  0.00  0.00    +0.000 C 
BRANCH  12  13
ATOM     13  O   UNL     1       4.295   6.160  17.845  0.00  0.00    +0.000 OA
BRANCH  13  14
ATOM     14  C   UNL     1       3.391   7.231  17.520  0.00  0.00    +0.000 C 
BRANCH  14  15
ATOM     15  C   UNL     1       2.614   7.696  18.750  0.00  0.00    +0.000 C 
BRANCH  15  16
ATOM     16  S   UNL     1       1.591   9.135  18.260  0.00  0.00    +0.000 S 
BRANCH  16  17
ATOM     17  C   UNL     1       0.752   9.592  19.767  0.00  0.00    +0.000 A 
ATOM     18  C   UNL     1       0.952   8.757  20.875  0.00  0.00    +0.000 A 
ATOM     19  C   UNL     1       0.298   9.000  22.084  0.00  0.00    +0.000 A 
ATOM     20  C   UNL     1      -0.538  10.106  22.209  0.00  0.00    +0.000 A 
ATOM     21  C   UNL     1      -0.706  10.972  21.131  0.00  0.00    +0.000 A 
ATOM     22  C   UNL     1      -0.062  10.718  19.913  0.00  0.00    +0.000 A 
ENDBRANCH  16  17
ENDBRANCH  15  16
ENDBRANCH  14  15
ENDBRANCH  13  14
ENDBRANCH  12  13
ENDBRANCH   1  12
TORSDOF 7
ENDMDL
