MODEL 1
REMARK VINA RESULT:      -8.3      0.000      0.000
REMARK  Name = 
REMARK  6 active torsions:
REMARK  status: ('A' for Active; 'I' for Inactive)
REMARK    1  A    between atoms: C_1  and  C_2
REMARK    2  A    between atoms: C_2  and  N_3
REMARK    3  A    between atoms: C_12  and  C_13
REMARK    4  A    between atoms: N_14  and  N_15
REMARK    5  A    between atoms: C_16  and  C_18
REMARK    6  A    between atoms: C_23  and  C_24
REMARK                            x       y       z     vdW  Elec       q    Type
REMARK                         _______ _______ _______ _____ _____    ______ ____
ROOT
ATOM      1  N   UNL     1       3.939   5.016  18.264  0.00  0.00    +0.000 N 
ATOM      2  C   UNL     1       3.640   4.142  19.293  0.00  0.00    +0.000 A 
ATOM      3  C   UNL     1       4.083   2.834  19.555  0.00  0.00    +0.000 A 
ATOM      4  C   UNL     1       3.577   2.175  20.677  0.00  0.00    +0.000 A 
ATOM      5  C   UNL     1       2.660   2.799  21.517  0.00  0.00    +0.000 A 
ATOM      6  C   UNL     1       2.235   4.107  21.258  0.00  0.00    +0.000 A 
ATOM      7  C   UNL     1       2.733   4.796  20.130  0.00  0.00    +0.000 A 
ATOM      8  C   UNL     1       2.519   6.107  19.597  0.00  0.00    +0.000 A 
ATOM      9  C   UNL     1       1.731   7.206  20.004  0.00  0.00    +0.000 A 
ATOM     10  C   UNL     1       1.746   8.390  19.251  0.00  0.00    +0.000 A 
ATOM     11  C   UNL     1       2.531   8.489  18.104  0.00  0.00    +0.000 A 
ATOM     12  C   UNL     1       3.317   7.409  17.680  0.00  0.00    +0.000 A 
ATOM     13  C   UNL     1       3.293   6.226  18.440  0.00  0.00    +0.000 A 
ENDROOT
BRANCH   1  15
ATOM     14  C   UNL     1       6.245   5.009  17.373  0.00  0.00    +0.000 C 
ATOM     15  C   UNL     1       4.784   4.680  17.128  0.00  0.00    +0.000 C 
ENDBRANCH   1  15
BRANCH  10  16
ATOM     16  C   UNL     1       0.930   9.552  19.672  0.00  0.00    +0.000 C 
ATOM     17  N   UNL     1       0.222   9.506  20.753  0.00  0.00    +0.000 NA
BRANCH  17  18
ATOM     18  N   UNL     1      -0.498  10.617  21.087  0.00  0.00    +0.000 N 
ATOM     19  C   UNL     1      -0.603  10.949  22.436  0.00  0.00    +0.000 C 
ATOM     20  O   UNL     1      -0.086  10.296  23.340  0.00  0.00    +0.000 OA
ATOM     21  H   UNL     1      -0.873  11.206  20.357  0.00  0.00    +0.000 HD
BRANCH  19  22
ATOM     22  C   UNL     1      -1.405  12.171  22.771  0.00  0.00    +0.000 A 
ATOM     23  C   UNL     1      -2.644  12.037  23.424  0.00  0.00    +0.000 A 
ATOM     24  C   UNL     1      -3.385  13.164  23.792  0.00  0.00    +0.000 A 
ATOM     25  C   UNL     1      -2.894  14.438  23.528  0.00  0.00    +0.000 A 
ATOM     26  C   UNL     1      -1.664  14.590  22.892  0.00  0.00    +0.000 A 
ATOM     27  C   UNL     1      -0.908  13.470  22.499  0.00  0.00    +0.000 A 
ATOM     28  C   UNL     1       0.403  13.713  21.798  0.00  0.00    +0.000 C 
ENDBRANCH  19  22
ENDBRANCH  17  18
ENDBRANCH  10  16
TORSDOF 4
ENDMDL
MODEL 2
REMARK VINA RESULT:      -8.2      1.578      3.151
REMARK  Name = 
REMARK  6 active torsions:
REMARK  status: ('A' for Active; 'I' for Inactive)
REMARK    1  A    between atoms: C_1  and  C_2
REMARK    2  A    between atoms: C_2  and  N_3
REMARK    3  A    between atoms: C_12  and  C_13
REMARK    4  A    between atoms: N_14  and  N_15
REMARK    5  A    between atoms: C_16  and  C_18
REMARK    6  A    between atoms: C_23  and  C_24
REMARK                            x       y       z     vdW  Elec       q    Type
REMARK                         _______ _______ _______ _____ _____    ______ ____
ROOT
ATOM      1  N   UNL     1       3.142   3.596  17.952  0.00  0.00    +0.000 N 
ATOM      2  C   UNL     1       3.977   4.234  17.053  0.00  0.00    +0.000 A 
ATOM      3  C   UNL     1       4.727   3.736  15.974  0.00  0.00    +0.000 A 
ATOM      4  C   UNL     1       5.516   4.630  15.247  0.00  0.00    +0.000 A 
ATOM      5  C   UNL     1       5.556   5.980  15.581  0.00  0.00    +0.000 A 
ATOM      6  C   UNL     1       4.796   6.470  16.649  0.00  0.00    +0.000 A 
ATOM      7  C   UNL     1       3.988   5.587  17.398  0.00  0.00    +0.000 A 
ATOM      8  C   UNL     1       3.105   5.757  18.512  0.00  0.00    +0.000 A 
ATOM      9  C   UNL     1       2.708   6.876  19.276  0.00  0.00    +0.000 A 
ATOM     10  C   UNL     1       1.792   6.711  20.327  0.00  0.00    +0.000 A 
ATOM     11  C   UNL     1       1.274   5.453  20.624  0.00  0.00    +0.000 A 
ATOM     12  C   UNL     1       1.658   4.328  19.881  0.00  0.00    +0.000 A 
ATOM     13  C   UNL     1       2.578   4.503  18.831  0.00  0.00    +0.000 A 
ENDROOT
BRANCH   1  15
ATOM     14  C   UNL     1       3.966   1.439  18.833  0.00  0.00    +0.000 C 
ATOM     15  C   UNL     1       2.929   2.157  17.990  0.00  0.00    +0.000 C 
ENDBRANCH   1  15
BRANCH  10  16
ATOM     16  C   UNL     1       1.362   7.879  21.131  0.00  0.00    +0.000 C 
ATOM     17  N   UNL     1       0.982   8.974  20.556  0.00  0.00    +0.000 NA
BRANCH  17  18
ATOM     18  N   UNL     1       0.588  10.006  21.358  0.00  0.00    +0.000 N 
ATOM     19  C   UNL     1      -0.379  10.883  20.870  0.00  0.00    +0.000 C 
ATOM     20  O   UNL     1      -0.894  10.778  19.759  0.00  0.00    +0.000 OA
ATOM     21  H   UNL     1       0.947  10.071  22.300  0.00  0.00    +0.000 HD
BRANCH  19  22
ATOM     22  C   UNL     1      -0.786  12.010  21.772  0.00  0.00    +0.000 A 
ATOM     23  C   UNL     1      -1.842  11.830  22.683  0.00  0.00    +0.000 A 
ATOM     24  C   UNL     1      -2.204  12.848  23.569  0.00  0.00    +0.000 A 
ATOM     25  C   UNL     1      -1.509  14.052  23.570  0.00  0.00    +0.000 A 
ATOM     26  C   UNL     1      -0.453  14.244  22.682  0.00  0.00    +0.000 A 
ATOM     27  C   UNL     1      -0.080  13.239  21.771  0.00  0.00    +0.000 A 
ATOM     28  C   UNL     1       1.059  13.526  20.828  0.00  0.00    +0.000 C 
ENDBRANCH  19  22
ENDBRANCH  17  18
ENDBRANCH  10  16
TORSDOF 4
ENDMDL
MODEL 3
REMARK VINA RESULT:      -8.2      1.618      3.321
REMARK  Name = 
REMARK  6 active torsions:
REMARK  status: ('A' for Active; 'I' for Inactive)
REMARK    1  A    between atoms: C_1  and  C_2
REMARK    2  A    between atoms: C_2  and  N_3
REMARK    3  A    between atoms: C_12  and  C_13
REMARK    4  A    between atoms: N_14  and  N_15
REMARK    5  A    between atoms: C_16  and  C_18
REMARK    6  A    between atoms: C_23  and  C_24
REMARK                            x       y       z     vdW  Elec       q    Type
REMARK                         _______ _______ _______ _____ _____    ______ ____
ROOT
ATOM      1  N   UNL     1       3.524   3.862  18.446  0.00  0.00    +0.000 N 
ATOM      2  C   UNL     1       4.229   4.388  17.379  0.00  0.00    +0.000 A 
ATOM      3  C   UNL     1       4.996   3.765  16.380  0.00  0.00    +0.000 A 
ATOM      4  C   UNL     1       5.627   4.572  15.430  0.00  0.00    +0.000 A 
ATOM      5  C   UNL     1       5.496   5.956  15.470  0.00  0.00    +0.000 A 
ATOM      6  C   UNL     1       4.719   6.567  16.461  0.00  0.00    +0.000 A 
ATOM      7  C   UNL     1       4.069   5.774  17.431  0.00  0.00    +0.000 A 
ATOM      8  C   UNL     1       3.216   6.071  18.542  0.00  0.00    +0.000 A 
ATOM      9  C   UNL     1       2.701   7.271  19.079  0.00  0.00    +0.000 A 
ATOM     10  C   UNL     1       1.858   7.225  20.201  0.00  0.00    +0.000 A 
ATOM     11  C   UNL     1       1.528   6.006  20.790  0.00  0.00    +0.000 A 
ATOM     12  C   UNL     1       2.032   4.804  20.275  0.00  0.00    +0.000 A 
ATOM     13  C   UNL     1       2.878   4.861  19.152  0.00  0.00    +0.000 A 
ENDROOT
BRANCH   1  15
ATOM     14  C   UNL     1       4.418   2.136  19.974  0.00  0.00    +0.000 C 
ATOM     15  C   UNL     1       3.511   2.450  18.798  0.00  0.00    +0.000 C 
ENDBRANCH   1  15
BRANCH  10  16
ATOM     16  C   UNL     1       1.305   8.476  20.769  0.00  0.00    +0.000 C 
ATOM     17  N   UNL     1       1.164   9.531  20.034  0.00  0.00    +0.000 NA
BRANCH  17  18
ATOM     18  N   UNL     1       0.638  10.646  20.620  0.00  0.00    +0.000 N 
ATOM     19  C   UNL     1      -0.637  11.053  20.230  0.00  0.00    +0.000 C 
ATOM     20  O   UNL     1      -1.310  10.464  19.388  0.00  0.00    +0.000 OA
ATOM     21  H   UNL     1       1.145  11.105  21.364  0.00  0.00    +0.000 HD
BRANCH  19  22
ATOM     22  C   UNL     1      -1.183  12.284  20.887  0.00  0.00    +0.000 A 
ATOM     23  C   UNL     1      -1.363  13.458  20.133  0.00  0.00    +0.000 A 
ATOM     24  C   UNL     1      -1.919  14.602  20.712  0.00  0.00    +0.000 A 
ATOM     25  C   UNL     1      -2.319  14.587  22.043  0.00  0.00    +0.000 A 
ATOM     26  C   UNL     1      -2.159  13.429  22.802  0.00  0.00    +0.000 A 
ATOM     27  C   UNL     1      -1.588  12.271  22.246  0.00  0.00    +0.000 A 
ATOM     28  C   UNL     1      -1.430  11.064  23.133  0.00  0.00    +0.000 C 
ENDBRANCH  19  22
ENDBRANCH  17  18
ENDBRANCH  10  16
TORSDOF 4
ENDMDL
MODEL 4
REMARK VINA RESULT:      -8.1      3.215      4.601
REMARK  Name = 
REMARK  6 active torsions:
REMARK  status: ('A' for Active; 'I' for Inactive)
REMARK    1  A    between atoms: C_1  and  C_2
REMARK    2  A    between atoms: C_2  and  N_3
REMARK    3  A    between atoms: C_12  and  C_13
REMARK    4  A    between atoms: N_14  and  N_15
REMARK    5  A    between atoms: C_16  and  C_18
REMARK    6  A    between atoms: C_23  and  C_24
REMARK                            x       y       z     vdW  Elec       q    Type
REMARK                         _______ _______ _______ _____ _____    ______ ____
ROOT
ATOM      1  N   UNL     1       2.816   5.475  19.730  0.00  0.00    +0.000 N 
ATOM      2  C   UNL     1       3.595   5.170  18.630  0.00  0.00    +0.000 A 
ATOM      3  C   UNL     1       4.285   3.995  18.282  0.00  0.00    +0.000 A 
ATOM      4  C   UNL     1       5.028   3.989  17.099  0.00  0.00    +0.000 A 
ATOM      5  C   UNL     1       5.080   5.116  16.284  0.00  0.00    +0.000 A 
ATOM      6  C   UNL     1       4.379   6.276  16.631  0.00  0.00    +0.000 A 
ATOM      7  C   UNL     1       3.620   6.307  17.821  0.00  0.00    +0.000 A 
ATOM      8  C   UNL     1       2.800   7.301  18.446  0.00  0.00    +0.000 A 
ATOM      9  C   UNL     1       2.441   8.623  18.102  0.00  0.00    +0.000 A 
ATOM     10  C   UNL     1       1.587   9.353  18.944  0.00  0.00    +0.000 A 
ATOM     11  C   UNL     1       1.093   8.785  20.116  0.00  0.00    +0.000 A 
ATOM     12  C   UNL     1       1.440   7.476  20.478  0.00  0.00    +0.000 A 
ATOM     13  C   UNL     1       2.299   6.754  19.629  0.00  0.00    +0.000 A 
ENDROOT
BRANCH   1  15
ATOM     14  C   UNL     1       1.372   3.721  20.704  0.00  0.00    +0.000 C 
ATOM     15  C   UNL     1       2.613   4.580  20.860  0.00  0.00    +0.000 C 
ENDBRANCH   1  15
BRANCH  10  16
ATOM     16  C   UNL     1       1.198  10.738  18.590  0.00  0.00    +0.000 C 
ATOM     17  N   UNL     1       2.095  11.639  18.359  0.00  0.00    +0.000 NA
BRANCH  17  18
ATOM     18  N   UNL     1       1.665  12.891  18.027  0.00  0.00    +0.000 N 
ATOM     19  C   UNL     1       1.779  13.899  18.982  0.00  0.00    +0.000 C 
ATOM     20  O   UNL     1       2.244  13.721  20.106  0.00  0.00    +0.000 OA
ATOM     21  H   UNL     1       1.344  13.075  17.086  0.00  0.00    +0.000 HD
BRANCH  19  22
ATOM     22  C   UNL     1       1.292  15.261  18.589  0.00  0.00    +0.000 A 
ATOM     23  C   UNL     1      -0.054  15.611  18.803  0.00  0.00    +0.000 A 
ATOM     24  C   UNL     1      -0.519  16.892  18.493  0.00  0.00    +0.000 A 
ATOM     25  C   UNL     1       0.355  17.846  17.981  0.00  0.00    +0.000 A 
ATOM     26  C   UNL     1       1.693  17.520  17.773  0.00  0.00    +0.000 A 
ATOM     27  C   UNL     1       2.180  16.233  18.064  0.00  0.00    +0.000 A 
ATOM     28  C   UNL     1       3.635  15.949  17.795  0.00  0.00    +0.000 C 
ENDBRANCH  19  22
ENDBRANCH  17  18
ENDBRANCH  10  16
TORSDOF 4
ENDMDL
MODEL 5
REMARK VINA RESULT:      -8.1      1.802      3.309
REMARK  Name = 
REMARK  6 active torsions:
REMARK  status: ('A' for Active; 'I' for Inactive)
REMARK    1  A    between atoms: C_1  and  C_2
REMARK    2  A    between atoms: C_2  and  N_3
REMARK    3  A    between atoms: C_12  and  C_13
REMARK    4  A    between atoms: N_14  and  N_15
REMARK    5  A    between atoms: C_16  and  C_18
REMARK    6  A    between atoms: C_23  and  C_24
REMARK                            x       y       z     vdW  Elec       q    Type
REMARK                         _______ _______ _______ _____ _____    ______ ____
ROOT
ATOM      1  N   UNL     1       3.644   3.785  18.396  0.00  0.00    +0.000 N 
ATOM      2  C   UNL     1       4.342   4.277  17.309  0.00  0.00    +0.000 A 
ATOM      3  C   UNL     1       5.114   3.623  16.333  0.00  0.00    +0.000 A 
ATOM      4  C   UNL     1       5.737   4.399  15.353  0.00  0.00    +0.000 A 
ATOM      5  C   UNL     1       5.594   5.783  15.341  0.00  0.00    +0.000 A 
ATOM      6  C   UNL     1       4.812   6.424  16.308  0.00  0.00    +0.000 A 
ATOM      7  C   UNL     1       4.170   5.662  17.309  0.00  0.00    +0.000 A 
ATOM      8  C   UNL     1       3.315   5.993  18.408  0.00  0.00    +0.000 A 
ATOM      9  C   UNL     1       2.789   7.208  18.901  0.00  0.00    +0.000 A 
ATOM     10  C   UNL     1       1.948   7.197  20.024  0.00  0.00    +0.000 A 
ATOM     11  C   UNL     1       1.630   5.998  20.659  0.00  0.00    +0.000 A 
ATOM     12  C   UNL     1       2.145   4.783  20.190  0.00  0.00    +0.000 A 
ATOM     13  C   UNL     1       2.989   4.804  19.064  0.00  0.00    +0.000 A 
ENDROOT
BRANCH   1  15
ATOM     14  C   UNL     1       4.473   2.145  20.050  0.00  0.00    +0.000 C 
ATOM     15  C   UNL     1       3.644   2.388  18.802  0.00  0.00    +0.000 C 
ENDBRANCH   1  15
BRANCH  10  16
ATOM     16  C   UNL     1       1.384   8.464  20.545  0.00  0.00    +0.000 C 
ATOM     17  N   UNL     1       1.100   9.440  19.745  0.00  0.00    +0.000 NA
BRANCH  17  18
ATOM     18  N   UNL     1       0.572  10.574  20.292  0.00  0.00    +0.000 N 
ATOM     19  C   UNL     1      -0.695  10.977  19.874  0.00  0.00    +0.000 C 
ATOM     20  O   UNL     1      -1.361  10.367  19.040  0.00  0.00    +0.000 OA
ATOM     21  H   UNL     1       1.072  11.051  21.030  0.00  0.00    +0.000 HD
BRANCH  19  22
ATOM     22  C   UNL     1      -1.242  12.229  20.488  0.00  0.00    +0.000 A 
ATOM     23  C   UNL     1      -1.905  12.168  21.728  0.00  0.00    +0.000 A 
ATOM     24  C   UNL     1      -2.378  13.330  22.344  0.00  0.00    +0.000 A 
ATOM     25  C   UNL     1      -2.183  14.568  21.742  0.00  0.00    +0.000 A 
ATOM     26  C   UNL     1      -1.519  14.649  20.520  0.00  0.00    +0.000 A 
ATOM     27  C   UNL     1      -1.048  13.492  19.874  0.00  0.00    +0.000 A 
ATOM     28  C   UNL     1      -0.356  13.655  18.545  0.00  0.00    +0.000 C 
ENDBRANCH  19  22
ENDBRANCH  17  18
ENDBRANCH  10  16
TORSDOF 4
ENDMDL
MODEL 6
REMARK VINA RESULT:      -8.1      1.094      3.075
REMARK  Name = 
REMARK  6 active torsions:
REMARK  status: ('A' for Active; 'I' for Inactive)
REMARK    1  A    between atoms: C_1  and  C_2
REMARK    2  A    between atoms: C_2  and  N_3
REMARK    3  A    between atoms: C_12  and  C_13
REMARK    4  A    between atoms: N_14  and  N_15
REMARK    5  A    between atoms: C_16  and  C_18
REMARK    6  A    between atoms: C_23  and  C_24
REMARK                            x       y       z     vdW  Elec       q    Type
REMARK                         _______ _______ _______ _____ _____    ______ ____
ROOT
ATOM      1  N   UNL     1       3.005   4.422  19.105  0.00  0.00    +0.000 N 
ATOM      2  C   UNL     1       3.781   4.688  17.992  0.00  0.00    +0.000 A 
ATOM      3  C   UNL     1       4.535   3.837  17.165  0.00  0.00    +0.000 A 
ATOM      4  C   UNL     1       5.253   4.405  16.111  0.00  0.00    +0.000 A 
ATOM      5  C   UNL     1       5.221   5.776  15.882  0.00  0.00    +0.000 A 
ATOM      6  C   UNL     1       4.456   6.615  16.702  0.00  0.00    +0.000 A 
ATOM      7  C   UNL     1       3.719   6.065  17.773  0.00  0.00    +0.000 A 
ATOM      8  C   UNL     1       2.852   6.623  18.767  0.00  0.00    +0.000 A 
ATOM      9  C   UNL     1       2.405   7.934  19.043  0.00  0.00    +0.000 A 
ATOM     10  C   UNL     1       1.524   8.158  20.112  0.00  0.00    +0.000 A 
ATOM     11  C   UNL     1       1.089   7.098  20.905  0.00  0.00    +0.000 A 
ATOM     12  C   UNL     1       1.523   5.790  20.651  0.00  0.00    +0.000 A 
ATOM     13  C   UNL     1       2.408   5.576  19.578  0.00  0.00    +0.000 A 
ENDROOT
BRANCH   1  15
ATOM     14  C   UNL     1       1.812   2.257  19.054  0.00  0.00    +0.000 C 
ATOM     15  C   UNL     1       2.880   3.108  19.718  0.00  0.00    +0.000 C 
ENDBRANCH   1  15
BRANCH  10  16
ATOM     16  C   UNL     1       1.043   9.528  20.407  0.00  0.00    +0.000 C 
ATOM     17  N   UNL     1      -0.172   9.731  20.800  0.00  0.00    +0.000 NA
BRANCH  17  18
ATOM     18  N   UNL     1      -0.546  11.018  21.064  0.00  0.00    +0.000 N 
ATOM     19  C   UNL     1      -0.590  11.428  22.395  0.00  0.00    +0.000 C 
ATOM     20  O   UNL     1      -0.313  10.694  23.342  0.00  0.00    +0.000 OA
ATOM     21  H   UNL     1      -0.710  11.657  20.298  0.00  0.00    +0.000 HD
BRANCH  19  22
ATOM     22  C   UNL     1      -1.010  12.843  22.653  0.00  0.00    +0.000 A 
ATOM     23  C   UNL     1      -0.162  13.902  22.281  0.00  0.00    +0.000 A 
ATOM     24  C   UNL     1      -0.555  15.232  22.464  0.00  0.00    +0.000 A 
ATOM     25  C   UNL     1      -1.803  15.522  23.003  0.00  0.00    +0.000 A 
ATOM     26  C   UNL     1      -2.660  14.486  23.367  0.00  0.00    +0.000 A 
ATOM     27  C   UNL     1      -2.281  13.141  23.206  0.00  0.00    +0.000 A 
ATOM     28  C   UNL     1      -3.253  12.075  23.639  0.00  0.00    +0.000 C 
ENDBRANCH  19  22
ENDBRANCH  17  18
ENDBRANCH  10  16
TORSDOF 4
ENDMDL
MODEL 7
REMARK VINA RESULT:      -8.0      1.037      2.893
REMARK  Name = 
REMARK  6 active torsions:
REMARK  status: ('A' for Active; 'I' for Inactive)
REMARK    1  A    between atoms: C_1  and  C_2
REMARK    2  A    between atoms: C_2  and  N_3
REMARK    3  A    between atoms: C_12  and  C_13
REMARK    4  A    between atoms: N_14  and  N_15
REMARK    5  A    between atoms: C_16  and  C_18
REMARK    6  A    between atoms: C_23  and  C_24
REMARK                            x       y       z     vdW  Elec       q    Type
REMARK                         _______ _______ _______ _____ _____    ______ ____
ROOT
ATOM      1  N   UNL     1       4.091   4.117  18.850  0.00  0.00    +0.000 N 
ATOM      2  C   UNL     1       4.737   4.531  17.700  0.00  0.00    +0.000 A 
ATOM      3  C   UNL     1       5.633   3.859  16.850  0.00  0.00    +0.000 A 
ATOM      4  C   UNL     1       6.157   4.555  15.758  0.00  0.00    +0.000 A 
ATOM      5  C   UNL     1       5.799   5.877  15.517  0.00  0.00    +0.000 A 
ATOM      6  C   UNL     1       4.896   6.534  16.361  0.00  0.00    +0.000 A 
ATOM      7  C   UNL     1       4.350   5.852  17.470  0.00  0.00    +0.000 A 
ATOM      8  C   UNL     1       3.420   6.216  18.495  0.00  0.00    +0.000 A 
ATOM      9  C   UNL     1       2.695   7.395  18.777  0.00  0.00    +0.000 A 
ATOM     10  C   UNL     1       1.831   7.432  19.883  0.00  0.00    +0.000 A 
ATOM     11  C   UNL     1       1.684   6.317  20.705  0.00  0.00    +0.000 A 
ATOM     12  C   UNL     1       2.398   5.139  20.446  0.00  0.00    +0.000 A 
ATOM     13  C   UNL     1       3.263   5.112  19.337  0.00  0.00    +0.000 A 
ENDROOT
BRANCH   1  15
ATOM     14  C   UNL     1       3.424   1.736  18.879  0.00  0.00    +0.000 C 
ATOM     15  C   UNL     1       4.297   2.822  19.481  0.00  0.00    +0.000 C 
ENDBRANCH   1  15
BRANCH  10  16
ATOM     16  C   UNL     1       1.059   8.660  20.184  0.00  0.00    +0.000 C 
ATOM     17  N   UNL     1       0.033   8.620  20.970  0.00  0.00    +0.000 NA
BRANCH  17  18
ATOM     18  N   UNL     1      -0.625   9.791  21.213  0.00  0.00    +0.000 N 
ATOM     19  C   UNL     1      -0.241  10.542  22.322  0.00  0.00    +0.000 C 
ATOM     20  O   UNL     1       0.656  10.207  23.093  0.00  0.00    +0.000 OA
ATOM     21  H   UNL     1      -1.318  10.120  20.554  0.00  0.00    +0.000 HD
BRANCH  19  22
ATOM     22  C   UNL     1      -0.988  11.819  22.565  0.00  0.00    +0.000 A 
ATOM     23  C   UNL     1      -2.224  11.790  23.235  0.00  0.00    +0.000 A 
ATOM     24  C   UNL     1      -2.913  12.973  23.519  0.00  0.00    +0.000 A 
ATOM     25  C   UNL     1      -2.372  14.200  23.153  0.00  0.00    +0.000 A 
ATOM     26  C   UNL     1      -1.143  14.249  22.497  0.00  0.00    +0.000 A 
ATOM     27  C   UNL     1      -0.439  13.071  22.189  0.00  0.00    +0.000 A 
ATOM     28  C   UNL     1       0.874  13.202  21.462  0.00  0.00    +0.000 C 
ENDBRANCH  19  22
ENDBRANCH  17  18
ENDBRANCH  10  16
TORSDOF 4
ENDMDL
MODEL 8
REMARK VINA RESULT:      -7.9      3.211      9.978
REMARK  Name = 
REMARK  6 active torsions:
REMARK  status: ('A' for Active; 'I' for Inactive)
REMARK    1  A    between atoms: C_1  and  C_2
REMARK    2  A    between atoms: C_2  and  N_3
REMARK    3  A    between atoms: C_12  and  C_13
REMARK    4  A    between atoms: N_14  and  N_15
REMARK    5  A    between atoms: C_16  and  C_18
REMARK    6  A    between atoms: C_23  and  C_24
REMARK                            x       y       z     vdW  Elec       q    Type
REMARK                         _______ _______ _______ _____ _____    ______ ____
ROOT
ATOM      1  N   UNL     1      -2.405  12.404  20.369  0.00  0.00    +0.000 N 
ATOM      2  C   UNL     1      -3.413  12.131  19.463  0.00  0.00    +0.000 A 
ATOM      3  C   UNL     1      -4.753  12.552  19.417  0.00  0.00    +0.000 A 
ATOM      4  C   UNL     1      -5.558  12.083  18.376  0.00  0.00    +0.000 A 
ATOM      5  C   UNL     1      -5.046  11.224  17.409  0.00  0.00    +0.000 A 
ATOM      6  C   UNL     1      -3.706  10.822  17.455  0.00  0.00    +0.000 A 
ATOM      7  C   UNL     1      -2.871  11.283  18.496  0.00  0.00    +0.000 A 
ATOM      8  C   UNL     1      -1.492  11.079  18.822  0.00  0.00    +0.000 A 
ATOM      9  C   UNL     1      -0.449  10.341  18.221  0.00  0.00    +0.000 A 
ATOM     10  C   UNL     1       0.832  10.351  18.796  0.00  0.00    +0.000 A 
ATOM     11  C   UNL     1       1.082  11.082  19.955  0.00  0.00    +0.000 A 
ATOM     12  C   UNL     1       0.060  11.818  20.570  0.00  0.00    +0.000 A 
ATOM     13  C   UNL     1      -1.221  11.799  19.988  0.00  0.00    +0.000 A 
ENDROOT
BRANCH   1  15
ATOM     14  C   UNL     1      -2.851  12.315  22.799  0.00  0.00    +0.000 C 
ATOM     15  C   UNL     1      -2.588  13.185  21.584  0.00  0.00    +0.000 C 
ENDBRANCH   1  15
BRANCH  10  16
ATOM     16  C   UNL     1       1.936   9.587  18.170  0.00  0.00    +0.000 C 
ATOM     17  N   UNL     1       1.867   8.301  18.053  0.00  0.00    +0.000 NA
BRANCH  17  18
ATOM     18  N   UNL     1       2.915   7.662  17.456  0.00  0.00    +0.000 N 
ATOM     19  C   UNL     1       3.543   6.634  18.157  0.00  0.00    +0.000 C 
ATOM     20  O   UNL     1       3.205   6.273  19.282  0.00  0.00    +0.000 OA
ATOM     21  H   UNL     1       3.165   7.896  16.504  0.00  0.00    +0.000 HD
BRANCH  19  22
ATOM     22  C   UNL     1       4.694   5.957  17.477  0.00  0.00    +0.000 A 
ATOM     23  C   UNL     1       5.927   6.625  17.359  0.00  0.00    +0.000 A 
ATOM     24  C   UNL     1       7.030   5.994  16.775  0.00  0.00    +0.000 A 
ATOM     25  C   UNL     1       6.923   4.686  16.316  0.00  0.00    +0.000 A 
ATOM     26  C   UNL     1       5.713   4.006  16.434  0.00  0.00    +0.000 A 
ATOM     27  C   UNL     1       4.586   4.625  17.005  0.00  0.00    +0.000 A 
ATOM     28  C   UNL     1       3.306   3.833  17.081  0.00  0.00    +0.000 C 
ENDBRANCH  19  22
ENDBRANCH  17  18
ENDBRANCH  10  16
TORSDOF 4
ENDMDL
MODEL 9
REMARK VINA RESULT:      -7.8      1.283      1.421
REMARK  Name = 
REMARK  6 active torsions:
REMARK  status: ('A' for Active; 'I' for Inactive)
REMARK    1  A    between atoms: C_1  and  C_2
REMARK    2  A    between atoms: C_2  and  N_3
REMARK    3  A    between atoms: C_12  and  C_13
REMARK    4  A    between atoms: N_14  and  N_15
REMARK    5  A    between atoms: C_16  and  C_18
REMARK    6  A    between atoms: C_23  and  C_24
REMARK                            x       y       z     vdW  Elec       q    Type
REMARK                         _______ _______ _______ _____ _____    ______ ____
ROOT
ATOM      1  N   UNL     1       4.400   4.722  17.271  0.00  0.00    +0.000 N 
ATOM      2  C   UNL     1       3.708   3.671  17.842  0.00  0.00    +0.000 A 
ATOM      3  C   UNL     1       3.950   2.287  17.828  0.00  0.00    +0.000 A 
ATOM      4  C   UNL     1       3.045   1.448  18.482  0.00  0.00    +0.000 A 
ATOM      5  C   UNL     1       1.933   1.971  19.135  0.00  0.00    +0.000 A 
ATOM      6  C   UNL     1       1.706   3.352  19.156  0.00  0.00    +0.000 A 
ATOM      7  C   UNL     1       2.608   4.221  18.504  0.00  0.00    +0.000 A 
ATOM      8  C   UNL     1       2.675   5.642  18.348  0.00  0.00    +0.000 A 
ATOM      9  C   UNL     1       1.863   6.709  18.793  0.00  0.00    +0.000 A 
ATOM     10  C   UNL     1       2.213   8.030  18.472  0.00  0.00    +0.000 A 
ATOM     11  C   UNL     1       3.353   8.297  17.717  0.00  0.00    +0.000 A 
ATOM     12  C   UNL     1       4.169   7.253  17.262  0.00  0.00    +0.000 A 
ATOM     13  C   UNL     1       3.809   5.932  17.586  0.00  0.00    +0.000 A 
ENDROOT
BRANCH   1  15
ATOM     14  C   UNL     1       5.198   4.451  14.947  0.00  0.00    +0.000 C 
ATOM     15  C   UNL     1       5.566   4.562  16.415  0.00  0.00    +0.000 C 
ENDBRANCH   1  15
BRANCH  10  16
ATOM     16  C   UNL     1       1.374   9.158  18.940  0.00  0.00    +0.000 C 
ATOM     17  N   UNL     1       0.916   9.184  20.149  0.00  0.00    +0.000 NA
BRANCH  17  18
ATOM     18  N   UNL     1       0.159  10.259  20.516  0.00  0.00    +0.000 N 
ATOM     19  C   UNL     1       0.155  10.631  21.859  0.00  0.00    +0.000 C 
ATOM     20  O   UNL     1       0.794  10.043  22.729  0.00  0.00    +0.000 OA
ATOM     21  H   UNL     1      -0.319  10.798  19.807  0.00  0.00    +0.000 HD
BRANCH  19  22
ATOM     22  C   UNL     1      -0.691  11.811  22.231  0.00  0.00    +0.000 A 
ATOM     23  C   UNL     1      -1.891  11.616  22.939  0.00  0.00    +0.000 A 
ATOM     24  C   UNL     1      -2.670  12.705  23.341  0.00  0.00    +0.000 A 
ATOM     25  C   UNL     1      -2.255  14.001  23.059  0.00  0.00    +0.000 A 
ATOM     26  C   UNL     1      -1.064  14.214  22.368  0.00  0.00    +0.000 A 
ATOM     27  C   UNL     1      -0.272  13.134  21.940  0.00  0.00    +0.000 A 
ATOM     28  C   UNL     1       0.994  13.441  21.182  0.00  0.00    +0.000 C 
ENDBRANCH  19  22
ENDBRANCH  17  18
ENDBRANCH  10  16
TORSDOF 4
ENDMDL
