MODEL 1
REMARK VINA RESULT:      -7.0      0.000      0.000
REMARK  Name = 
REMARK  9 active torsions:
REMARK  status: ('A' for Active; 'I' for Inactive)
REMARK    1  A    between atoms: C_1  and  C_2
REMARK    2  A    between atoms: C_4  and  C_5
REMARK    3  A    between atoms: C_6  and  N_7
REMARK    4  A    between atoms: C_8  and  C_10
REMARK    5  A    between atoms: C_10  and  N_11
REMARK    6  A    between atoms: N_11  and  C_12
REMARK    7  A    between atoms: N_11  and  C_13
REMARK    8  A    between atoms: N_17  and  C_18
REMARK    9  A    between atoms: C_21  and  C_22
REMARK                            x       y       z     vdW  Elec       q    Type
REMARK                         _______ _______ _______ _____ _____    ______ ____
ROOT
ATOM      1  N   UNL     1       2.616   6.462  20.115  0.00  0.00    +0.000 N 
ATOM      2  C   UNL     1       2.044   5.227  19.846  0.00  0.00    +0.000 C 
ATOM      3  O   UNL     1       1.070   5.016  19.129  0.00  0.00    +0.000 OA
ATOM      4  H   UNL     1       3.069   6.469  21.023  0.00  0.00    +0.000 HD
ENDROOT
BRANCH   1  10
ATOM      5  C   UNL     1       0.449  11.473  18.346  0.00  0.00    +0.000 C 
ATOM      6  C   UNL     1       1.008  10.159  18.805  0.00  0.00    +0.000 A 
ATOM      7  C   UNL     1       0.718   9.651  20.073  0.00  0.00    +0.000 A 
ATOM      8  C   UNL     1       1.254   8.426  20.506  0.00  0.00    +0.000 A 
ATOM      9  C   UNL     1       0.861   7.911  21.864  0.00  0.00    +0.000 C 
ATOM     10  C   UNL     1       2.090   7.686  19.642  0.00  0.00    +0.000 A 
ATOM     11  C   UNL     1       2.425   8.209  18.376  0.00  0.00    +0.000 A 
ATOM     12  C   UNL     1       3.403   7.561  17.431  0.00  0.00    +0.000 C 
ATOM     13  C   UNL     1       1.857   9.431  17.966  0.00  0.00    +0.000 A 
ENDBRANCH   1  10
BRANCH   2  14
ATOM     14  C   UNL     1       2.772   4.086  20.575  0.00  0.00    +0.000 C 
BRANCH  14  15
ATOM     15  N   UNL     1       3.767   3.396  19.688  0.00  0.00    +0.000 NA
ATOM     16  C   UNL     1       3.116   2.194  19.122  0.00  0.00    +0.000 C 
BRANCH  15  17
ATOM     17  C   UNL     1       4.198   4.311  18.578  0.00  0.00    +0.000 C 
ATOM     18  C   UNL     1       4.184   3.659  17.186  0.00  0.00    +0.000 C 
ATOM     19  C   UNL     1       5.569   3.831  16.646  0.00  0.00    +0.000 C 
ATOM     20  O   UNL     1       5.905   3.511  15.517  0.00  0.00    +0.000 OA
ATOM     21  N   UNL     1       6.359   4.381  17.606  0.00  0.00    +0.000 N 
ATOM     22  C   UNL     1       7.765   4.652  17.446  0.00  0.00    +0.000 C 
ATOM     23  C   UNL     1       5.654   4.767  18.710  0.00  0.00    +0.000 C 
ATOM     24  O   UNL     1       6.112   5.426  19.633  0.00  0.00    +0.000 OA
ENDBRANCH  15  17
ENDBRANCH  14  15
ENDBRANCH   2  14
TORSDOF 4
ENDMDL
MODEL 2
REMARK VINA RESULT:      -6.8      0.627      1.922
REMARK  Name = 
REMARK  9 active torsions:
REMARK  status: ('A' for Active; 'I' for Inactive)
REMARK    1  A    between atoms: C_1  and  C_2
REMARK    2  A    between atoms: C_4  and  C_5
REMARK    3  A    between atoms: C_6  and  N_7
REMARK    4  A    between atoms: C_8  and  C_10
REMARK    5  A    between atoms: C_10  and  N_11
REMARK    6  A    between atoms: N_11  and  C_12
REMARK    7  A    between atoms: N_11  and  C_13
REMARK    8  A    between atoms: N_17  and  C_18
REMARK    9  A    between atoms: C_21  and  C_22
REMARK                            x       y       z     vdW  Elec       q    Type
REMARK                         _______ _______ _______ _____ _____    ______ ____
ROOT
ATOM      1  N   UNL     1       2.354   6.981  20.429  0.00  0.00    +0.000 N 
ATOM      2  C   UNL     1       1.950   5.678  20.172  0.00  0.00    +0.000 C 
ATOM      3  O   UNL     1       0.999   5.334  19.476  0.00  0.00    +0.000 OA
ATOM      4  H   UNL     1       2.820   7.052  21.327  0.00  0.00    +0.000 HD
ENDROOT
BRANCH   1  10
ATOM      5  C   UNL     1      -0.442  11.561  18.395  0.00  0.00    +0.000 C 
ATOM      6  C   UNL     1       0.295  10.369  18.929  0.00  0.00    +0.000 A 
ATOM      7  C   UNL     1       1.222   9.678  18.145  0.00  0.00    +0.000 A 
ATOM      8  C   UNL     1       1.902   8.554  18.644  0.00  0.00    +0.000 A 
ATOM      9  C   UNL     1       2.925   7.886  17.765  0.00  0.00    +0.000 C 
ATOM     10  C   UNL     1       1.656   8.120  19.965  0.00  0.00    +0.000 A 
ATOM     11  C   UNL     1       0.692   8.783  20.751  0.00  0.00    +0.000 A 
ATOM     12  C   UNL     1       0.268   8.327  22.123  0.00  0.00    +0.000 C 
ATOM     13  C   UNL     1       0.041   9.917  20.227  0.00  0.00    +0.000 A 
ENDBRANCH   1  10
BRANCH   2  14
ATOM     14  C   UNL     1       2.841   4.650  20.887  0.00  0.00    +0.000 C 
BRANCH  14  15
ATOM     15  N   UNL     1       3.705   3.889  19.924  0.00  0.00    +0.000 NA
ATOM     16  C   UNL     1       2.873   2.840  19.295  0.00  0.00    +0.000 C 
BRANCH  15  17
ATOM     17  C   UNL     1       4.246   4.811  18.869  0.00  0.00    +0.000 C 
ATOM     18  C   UNL     1       3.973   4.345  17.430  0.00  0.00    +0.000 C 
ATOM     19  C   UNL     1       5.314   4.271  16.769  0.00  0.00    +0.000 C 
ATOM     20  O   UNL     1       5.478   4.019  15.585  0.00  0.00    +0.000 OA
ATOM     21  N   UNL     1       6.281   4.518  17.690  0.00  0.00    +0.000 N 
ATOM     22  C   UNL     1       7.696   4.490  17.413  0.00  0.00    +0.000 C 
ATOM     23  C   UNL     1       5.773   4.917  18.893  0.00  0.00    +0.000 C 
ATOM     24  O   UNL     1       6.442   5.347  19.823  0.00  0.00    +0.000 OA
ENDBRANCH  15  17
ENDBRANCH  14  15
ENDBRANCH   2  14
TORSDOF 4
ENDMDL
MODEL 3
REMARK VINA RESULT:      -6.2      6.212     10.387
REMARK  Name = 
REMARK  9 active torsions:
REMARK  status: ('A' for Active; 'I' for Inactive)
REMARK    1  A    between atoms: C_1  and  C_2
REMARK    2  A    between atoms: C_4  and  C_5
REMARK    3  A    between atoms: C_6  and  N_7
REMARK    4  A    between atoms: C_8  and  C_10
REMARK    5  A    between atoms: C_10  and  N_11
REMARK    6  A    between atoms: N_11  and  C_12
REMARK    7  A    between atoms: N_11  and  C_13
REMARK    8  A    between atoms: N_17  and  C_18
REMARK    9  A    between atoms: C_21  and  C_22
REMARK                            x       y       z     vdW  Elec       q    Type
REMARK                         _______ _______ _______ _____ _____    ______ ____
ROOT
ATOM      1  N   UNL     1      -1.334  11.664  21.404  0.00  0.00    +0.000 N 
ATOM      2  C   UNL     1      -0.940  12.800  22.096  0.00  0.00    +0.000 C 
ATOM      3  O   UNL     1       0.182  13.298  22.101  0.00  0.00    +0.000 OA
ATOM      4  H   UNL     1      -2.101  11.194  21.872  0.00  0.00    +0.000 HD
ENDROOT
BRANCH   1  10
ATOM      5  C   UNL     1       2.236   8.298  18.427  0.00  0.00    +0.000 C 
ATOM      6  C   UNL     1       1.310   9.182  19.208  0.00  0.00    +0.000 A 
ATOM      7  C   UNL     1       0.930   8.861  20.513  0.00  0.00    +0.000 A 
ATOM      8  C   UNL     1       0.053   9.685  21.238  0.00  0.00    +0.000 A 
ATOM      9  C   UNL     1      -0.276   9.309  22.658  0.00  0.00    +0.000 C 
ATOM     10  C   UNL     1      -0.447  10.865  20.645  0.00  0.00    +0.000 A 
ATOM     11  C   UNL     1      -0.105  11.177  19.314  0.00  0.00    +0.000 A 
ATOM     12  C   UNL     1      -0.678  12.342  18.550  0.00  0.00    +0.000 C 
ATOM     13  C   UNL     1       0.792  10.340  18.621  0.00  0.00    +0.000 A 
ENDBRANCH   1  10
BRANCH   2  14
ATOM     14  C   UNL     1      -2.095  13.403  22.912  0.00  0.00    +0.000 C 
BRANCH  14  15
ATOM     15  N   UNL     1      -3.330  12.551  22.853  0.00  0.00    +0.000 NA
ATOM     16  C   UNL     1      -3.803  12.338  24.238  0.00  0.00    +0.000 C 
BRANCH  15  17
ATOM     17  C   UNL     1      -4.398  13.237  22.051  0.00  0.00    +0.000 C 
ATOM     18  C   UNL     1      -5.783  13.233  22.717  0.00  0.00    +0.000 C 
ATOM     19  C   UNL     1      -6.707  12.604  21.722  0.00  0.00    +0.000 C 
ATOM     20  O   UNL     1      -7.915  12.514  21.875  0.00  0.00    +0.000 OA
ATOM     21  N   UNL     1      -5.986  12.161  20.659  0.00  0.00    +0.000 N 
ATOM     22  C   UNL     1      -6.547  11.467  19.527  0.00  0.00    +0.000 C 
ATOM     23  C   UNL     1      -4.678  12.547  20.713  0.00  0.00    +0.000 C 
ATOM     24  O   UNL     1      -3.872  12.408  19.802  0.00  0.00    +0.000 OA
ENDBRANCH  15  17
ENDBRANCH  14  15
ENDBRANCH   2  14
TORSDOF 4
ENDMDL
MODEL 4
REMARK VINA RESULT:      -6.1      1.615      2.899
REMARK  Name = 
REMARK  9 active torsions:
REMARK  status: ('A' for Active; 'I' for Inactive)
REMARK    1  A    between atoms: C_1  and  C_2
REMARK    2  A    between atoms: C_4  and  C_5
REMARK    3  A    between atoms: C_6  and  N_7
REMARK    4  A    between atoms: C_8  and  C_10
REMARK    5  A    between atoms: C_10  and  N_11
REMARK    6  A    between atoms: N_11  and  C_12
REMARK    7  A    between atoms: N_11  and  C_13
REMARK    8  A    between atoms: N_17  and  C_18
REMARK    9  A    between atoms: C_21  and  C_22
REMARK                            x       y       z     vdW  Elec       q    Type
REMARK                         _______ _______ _______ _____ _____    ______ ____
ROOT
ATOM      1  N   UNL     1       3.018   6.481  18.709  0.00  0.00    +0.000 N 
ATOM      2  C   UNL     1       2.556   5.423  17.940  0.00  0.00    +0.000 C 
ATOM      3  O   UNL     1       1.382   5.137  17.724  0.00  0.00    +0.000 OA
ATOM      4  H   UNL     1       3.925   6.274  19.114  0.00  0.00    +0.000 HD
ENDROOT
BRANCH   1  10
ATOM      5  C   UNL     1      -0.456  10.107  21.486  0.00  0.00    +0.000 C 
ATOM      6  C   UNL     1       0.459   9.163  20.764  0.00  0.00    +0.000 A 
ATOM      7  C   UNL     1       1.027   9.502  19.534  0.00  0.00    +0.000 A 
ATOM      8  C   UNL     1       1.874   8.610  18.854  0.00  0.00    +0.000 A 
ATOM      9  C   UNL     1       2.494   9.057  17.557  0.00  0.00    +0.000 C 
ATOM     10  C   UNL     1       2.168   7.354  19.427  0.00  0.00    +0.000 A 
ATOM     11  C   UNL     1       1.567   6.983  20.647  0.00  0.00    +0.000 A 
ATOM     12  C   UNL     1       1.717   5.624  21.279  0.00  0.00    +0.000 C 
ATOM     13  C   UNL     1       0.737   7.907  21.311  0.00  0.00    +0.000 A 
ENDBRANCH   1  10
BRANCH   2  14
ATOM     14  C   UNL     1       3.709   4.587  17.361  0.00  0.00    +0.000 C 
BRANCH  14  15
ATOM     15  N   UNL     1       4.674   4.148  18.425  0.00  0.00    +0.000 NA
ATOM     16  C   UNL     1       4.368   2.741  18.764  0.00  0.00    +0.000 C 
BRANCH  15  17
ATOM     17  C   UNL     1       6.085   4.255  17.924  0.00  0.00    +0.000 C 
ATOM     18  C   UNL     1       6.723   5.637  18.138  0.00  0.00    +0.000 C 
ATOM     19  C   UNL     1       7.166   6.091  16.782  0.00  0.00    +0.000 C 
ATOM     20  O   UNL     1       7.799   7.115  16.579  0.00  0.00    +0.000 OA
ATOM     21  N   UNL     1       6.748   5.195  15.851  0.00  0.00    +0.000 N 
ATOM     22  C   UNL     1       6.964   5.333  14.433  0.00  0.00    +0.000 C 
ATOM     23  C   UNL     1       6.197   4.076  16.408  0.00  0.00    +0.000 C 
ATOM     24  O   UNL     1       5.895   3.066  15.786  0.00  0.00    +0.000 OA
ENDBRANCH  15  17
ENDBRANCH  14  15
ENDBRANCH   2  14
TORSDOF 4
ENDMDL
MODEL 5
REMARK VINA RESULT:      -6.1      4.902      9.136
REMARK  Name = 
REMARK  9 active torsions:
REMARK  status: ('A' for Active; 'I' for Inactive)
REMARK    1  A    between atoms: C_1  and  C_2
REMARK    2  A    between atoms: C_4  and  C_5
REMARK    3  A    between atoms: C_6  and  N_7
REMARK    4  A    between atoms: C_8  and  C_10
REMARK    5  A    between atoms: C_10  and  N_11
REMARK    6  A    between atoms: N_11  and  C_12
REMARK    7  A    between atoms: N_11  and  C_13
REMARK    8  A    between atoms: N_17  and  C_18
REMARK    9  A    between atoms: C_21  and  C_22
REMARK                            x       y       z     vdW  Elec       q    Type
REMARK                         _______ _______ _______ _____ _____    ______ ____
ROOT
ATOM      1  N   UNL     1       0.016  10.654  20.216  0.00  0.00    +0.000 N 
ATOM      2  C   UNL     1       0.487  11.772  20.888  0.00  0.00    +0.000 C 
ATOM      3  O   UNL     1       1.604  11.912  21.377  0.00  0.00    +0.000 OA
ATOM      4  H   UNL     1      -0.991  10.566  20.306  0.00  0.00    +0.000 HD
ENDROOT
BRANCH   1  10
ATOM      5  C   UNL     1       2.947   5.745  19.716  0.00  0.00    +0.000 C 
ATOM      6  C   UNL     1       2.188   7.031  19.851  0.00  0.00    +0.000 A 
ATOM      7  C   UNL     1       1.367   7.276  20.954  0.00  0.00    +0.000 A 
ATOM      8  C   UNL     1       0.647   8.477  21.072  0.00  0.00    +0.000 A 
ATOM      9  C   UNL     1      -0.179   8.700  22.310  0.00  0.00    +0.000 C 
ATOM     10  C   UNL     1       0.762   9.462  20.066  0.00  0.00    +0.000 A 
ATOM     11  C   UNL     1       1.553   9.208  18.927  0.00  0.00    +0.000 A 
ATOM     12  C   UNL     1       1.646  10.136  17.745  0.00  0.00    +0.000 C 
ATOM     13  C   UNL     1       2.276   8.001  18.849  0.00  0.00    +0.000 A 
ENDBRANCH   1  10
BRANCH   2  14
ATOM     14  C   UNL     1      -0.578  12.877  20.980  0.00  0.00    +0.000 C 
BRANCH  14  15
ATOM     15  N   UNL     1      -1.954  12.314  21.194  0.00  0.00    +0.000 NA
ATOM     16  C   UNL     1      -2.365  12.630  22.579  0.00  0.00    +0.000 C 
BRANCH  15  17
ATOM     17  C   UNL     1      -2.923  12.926  20.224  0.00  0.00    +0.000 C 
ATOM     18  C   UNL     1      -4.363  13.023  20.752  0.00  0.00    +0.000 C 
ATOM     19  C   UNL     1      -5.210  12.303  19.750  0.00  0.00    +0.000 C 
ATOM     20  O   UNL     1      -6.429  12.254  19.798  0.00  0.00    +0.000 OA
ATOM     21  N   UNL     1      -4.408  11.729  18.816  0.00  0.00    +0.000 N 
ATOM     22  C   UNL     1      -4.883  10.923  17.719  0.00  0.00    +0.000 C 
ATOM     23  C   UNL     1      -3.099  12.094  18.950  0.00  0.00    +0.000 C 
ATOM     24  O   UNL     1      -2.218  11.838  18.140  0.00  0.00    +0.000 OA
ENDBRANCH  15  17
ENDBRANCH  14  15
ENDBRANCH   2  14
TORSDOF 4
ENDMDL
MODEL 6
REMARK VINA RESULT:      -6.0      1.911      3.354
REMARK  Name = 
REMARK  9 active torsions:
REMARK  status: ('A' for Active; 'I' for Inactive)
REMARK    1  A    between atoms: C_1  and  C_2
REMARK    2  A    between atoms: C_4  and  C_5
REMARK    3  A    between atoms: C_6  and  N_7
REMARK    4  A    between atoms: C_8  and  C_10
REMARK    5  A    between atoms: C_10  and  N_11
REMARK    6  A    between atoms: N_11  and  C_12
REMARK    7  A    between atoms: N_11  and  C_13
REMARK    8  A    between atoms: N_17  and  C_18
REMARK    9  A    between atoms: C_21  and  C_22
REMARK                            x       y       z     vdW  Elec       q    Type
REMARK                         _______ _______ _______ _____ _____    ______ ____
ROOT
ATOM      1  N   UNL     1       2.048   8.551  19.649  0.00  0.00    +0.000 N 
ATOM      2  C   UNL     1       2.172   7.672  18.582  0.00  0.00    +0.000 C 
ATOM      3  O   UNL     1       1.549   7.715  17.526  0.00  0.00    +0.000 OA
ATOM      4  H   UNL     1       2.280   8.101  20.528  0.00  0.00    +0.000 HD
ENDROOT
BRANCH   1  10
ATOM      5  C   UNL     1      -1.829  12.773  19.948  0.00  0.00    +0.000 C 
ATOM      6  C   UNL     1      -0.821  11.665  19.864  0.00  0.00    +0.000 A 
ATOM      7  C   UNL     1      -0.908  10.541  20.688  0.00  0.00    +0.000 A 
ATOM      8  C   UNL     1       0.045   9.511  20.616  0.00  0.00    +0.000 A 
ATOM      9  C   UNL     1      -0.136   8.303  21.496  0.00  0.00    +0.000 C 
ATOM     10  C   UNL     1       1.104   9.604  19.686  0.00  0.00    +0.000 A 
ATOM     11  C   UNL     1       1.227  10.753  18.880  0.00  0.00    +0.000 A 
ATOM     12  C   UNL     1       2.383  11.006  17.948  0.00  0.00    +0.000 C 
ATOM     13  C   UNL     1       0.245  11.760  18.964  0.00  0.00    +0.000 A 
ENDBRANCH   1  10
BRANCH   2  14
ATOM     14  C   UNL     1       3.207   6.571  18.865  0.00  0.00    +0.000 C 
BRANCH  14  15
ATOM     15  N   UNL     1       3.654   5.883  17.608  0.00  0.00    +0.000 NA
ATOM     16  C   UNL     1       5.097   6.153  17.428  0.00  0.00    +0.000 C 
BRANCH  15  17
ATOM     17  C   UNL     1       3.422   4.403  17.714  0.00  0.00    +0.000 C 
ATOM     18  C   UNL     1       1.940   3.995  17.673  0.00  0.00    +0.000 C 
ATOM     19  C   UNL     1       1.704   3.208  18.923  0.00  0.00    +0.000 C 
ATOM     20  O   UNL     1       0.653   2.644  19.185  0.00  0.00    +0.000 OA
ATOM     21  N   UNL     1       2.825   3.237  19.689  0.00  0.00    +0.000 N 
ATOM     22  C   UNL     1       2.943   2.614  20.984  0.00  0.00    +0.000 C 
ATOM     23  C   UNL     1       3.883   3.820  19.052  0.00  0.00    +0.000 C 
ATOM     24  O   UNL     1       5.033   3.821  19.471  0.00  0.00    +0.000 OA
ENDBRANCH  15  17
ENDBRANCH  14  15
ENDBRANCH   2  14
TORSDOF 4
ENDMDL
MODEL 7
REMARK VINA RESULT:      -6.0      2.203      3.563
REMARK  Name = 
REMARK  9 active torsions:
REMARK  status: ('A' for Active; 'I' for Inactive)
REMARK    1  A    between atoms: C_1  and  C_2
REMARK    2  A    between atoms: C_4  and  C_5
REMARK    3  A    between atoms: C_6  and  N_7
REMARK    4  A    between atoms: C_8  and  C_10
REMARK    5  A    between atoms: C_10  and  N_11
REMARK    6  A    between atoms: N_11  and  C_12
REMARK    7  A    between atoms: N_11  and  C_13
REMARK    8  A    between atoms: N_17  and  C_18
REMARK    9  A    between atoms: C_21  and  C_22
REMARK                            x       y       z     vdW  Elec       q    Type
REMARK                         _______ _______ _______ _____ _____    ______ ____
ROOT
ATOM      1  N   UNL     1       0.979   8.597  19.347  0.00  0.00    +0.000 N 
ATOM      2  C   UNL     1       2.003   8.820  18.436  0.00  0.00    +0.000 C 
ATOM      3  O   UNL     1       2.428   9.911  18.070  0.00  0.00    +0.000 OA
ATOM      4  H   UNL     1       0.506   7.719  19.163  0.00  0.00    +0.000 HD
ENDROOT
BRANCH   1  10
ATOM      5  C   UNL     1      -1.990  12.821  21.853  0.00  0.00    +0.000 C 
ATOM      6  C   UNL     1      -1.220  11.711  21.201  0.00  0.00    +0.000 A 
ATOM      7  C   UNL     1      -0.236  11.005  21.896  0.00  0.00    +0.000 A 
ATOM      8  C   UNL     1       0.493   9.974  21.279  0.00  0.00    +0.000 A 
ATOM      9  C   UNL     1       1.503   9.218  22.100  0.00  0.00    +0.000 C 
ATOM     10  C   UNL     1       0.220   9.635  19.936  0.00  0.00    +0.000 A 
ATOM     11  C   UNL     1      -0.740  10.369  19.210  0.00  0.00    +0.000 A 
ATOM     12  C   UNL     1      -1.018  10.169  17.743  0.00  0.00    +0.000 C 
ATOM     13  C   UNL     1      -1.466  11.384  19.864  0.00  0.00    +0.000 A 
ENDBRANCH   1  10
BRANCH   2  14
ATOM     14  C   UNL     1       2.578   7.503  17.889  0.00  0.00    +0.000 C 
BRANCH  14  15
ATOM     15  N   UNL     1       2.194   6.326  18.736  0.00  0.00    +0.000 NA
ATOM     16  C   UNL     1       1.789   5.227  17.833  0.00  0.00    +0.000 C 
BRANCH  15  17
ATOM     17  C   UNL     1       3.358   5.889  19.579  0.00  0.00    +0.000 C 
ATOM     18  C   UNL     1       4.692   5.819  18.818  0.00  0.00    +0.000 C 
ATOM     19  C   UNL     1       5.192   4.421  19.008  0.00  0.00    +0.000 C 
ATOM     20  O   UNL     1       6.278   4.026  18.615  0.00  0.00    +0.000 OA
ATOM     21  N   UNL     1       4.252   3.695  19.668  0.00  0.00    +0.000 N 
ATOM     22  C   UNL     1       4.381   2.295  19.988  0.00  0.00    +0.000 C 
ATOM     23  C   UNL     1       3.210   4.460  20.108  0.00  0.00    +0.000 C 
ATOM     24  O   UNL     1       2.327   4.066  20.858  0.00  0.00    +0.000 OA
ENDBRANCH  15  17
ENDBRANCH  14  15
ENDBRANCH   2  14
TORSDOF 4
ENDMDL
MODEL 8
REMARK VINA RESULT:      -6.0      3.300      7.848
REMARK  Name = 
REMARK  9 active torsions:
REMARK  status: ('A' for Active; 'I' for Inactive)
REMARK    1  A    between atoms: C_1  and  C_2
REMARK    2  A    between atoms: C_4  and  C_5
REMARK    3  A    between atoms: C_6  and  N_7
REMARK    4  A    between atoms: C_8  and  C_10
REMARK    5  A    between atoms: C_10  and  N_11
REMARK    6  A    between atoms: N_11  and  C_12
REMARK    7  A    between atoms: N_11  and  C_13
REMARK    8  A    between atoms: N_17  and  C_18
REMARK    9  A    between atoms: C_21  and  C_22
REMARK                            x       y       z     vdW  Elec       q    Type
REMARK                         _______ _______ _______ _____ _____    ______ ____
ROOT
ATOM      1  N   UNL     1       2.579   7.207  19.387  0.00  0.00    +0.000 N 
ATOM      2  C   UNL     1       1.879   8.113  18.604  0.00  0.00    +0.000 C 
ATOM      3  O   UNL     1       1.392   7.897  17.498  0.00  0.00    +0.000 OA
ATOM      4  H   UNL     1       3.245   7.677  19.991  0.00  0.00    +0.000 HD
ENDROOT
BRANCH   1  10
ATOM      5  C   UNL     1       3.717   1.829  17.739  0.00  0.00    +0.000 C 
ATOM      6  C   UNL     1       3.425   3.233  18.176  0.00  0.00    +0.000 A 
ATOM      7  C   UNL     1       2.421   3.509  19.106  0.00  0.00    +0.000 A 
ATOM      8  C   UNL     1       2.141   4.828  19.505  0.00  0.00    +0.000 A 
ATOM      9  C   UNL     1       1.080   5.052  20.549  0.00  0.00    +0.000 C 
ATOM     10  C   UNL     1       2.895   5.894  18.968  0.00  0.00    +0.000 A 
ATOM     11  C   UNL     1       3.882   5.632  17.996  0.00  0.00    +0.000 A 
ATOM     12  C   UNL     1       4.654   6.704  17.273  0.00  0.00    +0.000 C 
ATOM     13  C   UNL     1       4.150   4.298  17.632  0.00  0.00    +0.000 A 
ENDBRANCH   1  10
BRANCH   2  14
ATOM     14  C   UNL     1       1.773   9.491  19.277  0.00  0.00    +0.000 C 
BRANCH  14  15
ATOM     15  N   UNL     1       0.390   9.759  19.796  0.00  0.00    +0.000 NA
ATOM     16  C   UNL     1       0.489  10.003  21.252  0.00  0.00    +0.000 C 
BRANCH  15  17
ATOM     17  C   UNL     1      -0.196  10.963  19.117  0.00  0.00    +0.000 C 
ATOM     18  C   UNL     1      -0.786  12.003  20.083  0.00  0.00    +0.000 C 
ATOM     19  C   UNL     1      -2.207  12.192  19.654  0.00  0.00    +0.000 C 
ATOM     20  O   UNL     1      -2.963  13.018  20.142  0.00  0.00    +0.000 OA
ATOM     21  N   UNL     1      -2.497  11.308  18.664  0.00  0.00    +0.000 N 
ATOM     22  C   UNL     1      -3.790  11.182  18.038  0.00  0.00    +0.000 C 
ATOM     23  C   UNL     1      -1.398  10.623  18.231  0.00  0.00    +0.000 C 
ATOM     24  O   UNL     1      -1.375   9.894  17.249  0.00  0.00    +0.000 OA
ENDBRANCH  15  17
ENDBRANCH  14  15
ENDBRANCH   2  14
TORSDOF 4
ENDMDL
MODEL 9
REMARK VINA RESULT:      -6.0      2.402      4.009
REMARK  Name = 
REMARK  9 active torsions:
REMARK  status: ('A' for Active; 'I' for Inactive)
REMARK    1  A    between atoms: C_1  and  C_2
REMARK    2  A    between atoms: C_4  and  C_5
REMARK    3  A    between atoms: C_6  and  N_7
REMARK    4  A    between atoms: C_8  and  C_10
REMARK    5  A    between atoms: C_10  and  N_11
REMARK    6  A    between atoms: N_11  and  C_12
REMARK    7  A    between atoms: N_11  and  C_13
REMARK    8  A    between atoms: N_17  and  C_18
REMARK    9  A    between atoms: C_21  and  C_22
REMARK                            x       y       z     vdW  Elec       q    Type
REMARK                         _______ _______ _______ _____ _____    ______ ____
ROOT
ATOM      1  N   UNL     1       0.346   9.022  18.929  0.00  0.00    +0.000 N 
ATOM      2  C   UNL     1       1.583   9.106  18.306  0.00  0.00    +0.000 C 
ATOM      3  O   UNL     1       2.258  10.121  18.159  0.00  0.00    +0.000 OA
ATOM      4  H   UNL     1      -0.205   8.257  18.554  0.00  0.00    +0.000 HD
ENDROOT
BRANCH   1  10
ATOM      5  C   UNL     1      -2.615  13.548  20.849  0.00  0.00    +0.000 C 
ATOM      6  C   UNL     1      -1.835  12.371  20.343  0.00  0.00    +0.000 A 
ATOM      7  C   UNL     1      -2.115  11.795  19.102  0.00  0.00    +0.000 A 
ATOM      8  C   UNL     1      -1.391  10.684  18.636  0.00  0.00    +0.000 A 
ATOM      9  C   UNL     1      -1.708  10.144  17.267  0.00  0.00    +0.000 C 
ATOM     10  C   UNL     1      -0.354  10.145  19.428  0.00  0.00    +0.000 A 
ATOM     11  C   UNL     1      -0.092  10.690  20.701  0.00  0.00    +0.000 A 
ATOM     12  C   UNL     1       0.905  10.114  21.672  0.00  0.00    +0.000 C 
ATOM     13  C   UNL     1      -0.823  11.814  21.131  0.00  0.00    +0.000 A 
ENDBRANCH   1  10
BRANCH   2  14
ATOM     14  C   UNL     1       2.052   7.741  17.776  0.00  0.00    +0.000 C 
BRANCH  14  15
ATOM     15  N   UNL     1       2.994   7.062  18.728  0.00  0.00    +0.000 NA
ATOM     16  C   UNL     1       2.230   6.692  19.939  0.00  0.00    +0.000 C 
BRANCH  15  17
ATOM     17  C   UNL     1       3.574   5.830  18.096  0.00  0.00    +0.000 C 
ATOM     18  C   UNL     1       2.522   4.830  17.588  0.00  0.00    +0.000 C 
ATOM     19  C   UNL     1       2.838   3.534  18.265  0.00  0.00    +0.000 C 
ATOM     20  O   UNL     1       2.260   2.484  18.031  0.00  0.00    +0.000 OA
ATOM     21  N   UNL     1       3.843   3.728  19.158  0.00  0.00    +0.000 N 
ATOM     22  C   UNL     1       4.379   2.702  20.018  0.00  0.00    +0.000 C 
ATOM     23  C   UNL     1       4.385   4.979  19.077  0.00  0.00    +0.000 C 
ATOM     24  O   UNL     1       5.398   5.338  19.662  0.00  0.00    +0.000 OA
ENDBRANCH  15  17
ENDBRANCH  14  15
ENDBRANCH   2  14
TORSDOF 4
ENDMDL
