MODEL 1
REMARK VINA RESULT:      -8.5      0.000      0.000
REMARK  Name = 
REMARK  8 active torsions:
REMARK  status: ('A' for Active; 'I' for Inactive)
REMARK    1  A    between atoms: C_1  and  O_2
REMARK    2  A    between atoms: O_2  and  C_3
REMARK    3  A    between atoms: C_6  and  C_7
REMARK    4  A    between atoms: C_7  and  N_8
REMARK    5  A    between atoms: C_9  and  C_11
REMARK    6  A    between atoms: C_11  and  S_12
REMARK    7  A    between atoms: S_12  and  C_13
REMARK    8  A    between atoms: N_17  and  C_18
REMARK                            x       y       z     vdW  Elec       q    Type
REMARK                         _______ _______ _______ _____ _____    ______ ____
ROOT
ATOM      1  C   UNL     1       2.593   3.532  19.099  0.00  0.00    +0.000 C 
ENDROOT
BRANCH   1   3
ATOM      2  N   UNL     1       2.195   5.883  19.990  0.00  0.00    +0.000 N 
ATOM      3  C   UNL     1       1.691   4.547  19.946  0.00  0.00    +0.000 C 
ATOM      4  O   UNL     1       0.646   4.216  20.501  0.00  0.00    +0.000 OA
ATOM      5  H   UNL     1       3.131   6.022  19.632  0.00  0.00    +0.000 HD
BRANCH   2   6
ATOM      6  C   UNL     1       1.693   7.028  20.827  0.00  0.00    +0.000 C 
BRANCH   6  10
ATOM      7  C   UNL     1       1.098  10.969  18.855  0.00  0.00    +0.000 A 
ATOM      8  C   UNL     1       0.685  10.716  20.166  0.00  0.00    +0.000 A 
ATOM      9  C   UNL     1       0.855   9.457  20.782  0.00  0.00    +0.000 A 
ATOM     10  C   UNL     1       1.422   8.375  20.104  0.00  0.00    +0.000 A 
ATOM     11  C   UNL     1       1.842   8.640  18.769  0.00  0.00    +0.000 A 
ATOM     12  C   UNL     1       1.679   9.920  18.151  0.00  0.00    +0.000 A 
BRANCH   7  14
ATOM     13  C   UNL     1      -0.454  12.799  18.590  0.00  0.00    +0.000 C 
ATOM     14  O   UNL     1       0.840  12.235  18.409  0.00  0.00    +0.000 OA
ENDBRANCH   7  14
ENDBRANCH   6  10
ENDBRANCH   2   6
ENDBRANCH   1   3
BRANCH   1  15
ATOM     15  S   UNL     1       4.496   3.219  19.578  0.00  0.00    +0.000 S 
BRANCH  15  16
ATOM     16  C   UNL     1       5.369   4.404  18.580  0.00  0.00    +0.000 A 
ATOM     17  C   UNL     1       5.870   5.394  19.293  0.00  0.00    +0.000 A 
ATOM     18  C   UNL     1       7.291   5.528  18.978  0.00  0.00    +0.000 A 
ATOM     19  O   UNL     1       8.137   5.182  19.792  0.00  0.00    +0.000 OA
ATOM     20  N   UNL     1       7.540   5.924  17.695  0.00  0.00    +0.000 N 
ATOM     21  C   UNL     1       7.477   7.366  17.506  0.00  0.00    +0.000 C 
ATOM     22  C   UNL     1       6.862   5.179  16.696  0.00  0.00    +0.000 A 
ATOM     23  C   UNL     1       7.331   5.364  15.378  0.00  0.00    +0.000 A 
ATOM     24  C   UNL     1       6.629   4.832  14.318  0.00  0.00    +0.000 A 
ATOM     25  C   UNL     1       5.460   4.128  14.606  0.00  0.00    +0.000 A 
ATOM     26  C   UNL     1       5.021   3.887  15.955  0.00  0.00    +0.000 A 
ATOM     27  C   UNL     1       5.735   4.375  17.071  0.00  0.00    +0.000 A 
ENDBRANCH  15  16
ENDBRANCH   1  15
TORSDOF 6
ENDMDL
MODEL 2
REMARK VINA RESULT:      -8.4      1.835      2.313
REMARK  Name = 
REMARK  8 active torsions:
REMARK  status: ('A' for Active; 'I' for Inactive)
REMARK    1  A    between atoms: C_1  and  O_2
REMARK    2  A    between atoms: O_2  and  C_3
REMARK    3  A    between atoms: C_6  and  C_7
REMARK    4  A    between atoms: C_7  and  N_8
REMARK    5  A    between atoms: C_9  and  C_11
REMARK    6  A    between atoms: C_11  and  S_12
REMARK    7  A    between atoms: S_12  and  C_13
REMARK    8  A    between atoms: N_17  and  C_18
REMARK                            x       y       z     vdW  Elec       q    Type
REMARK                         _______ _______ _______ _____ _____    ______ ____
ROOT
ATOM      1  C   UNL     1       2.536   4.546  20.084  0.00  0.00    +0.000 C 
ENDROOT
BRANCH   1   3
ATOM      2  N   UNL     1       2.131   7.058  20.134  0.00  0.00    +0.000 N 
ATOM      3  C   UNL     1       2.271   5.912  19.293  0.00  0.00    +0.000 C 
ATOM      4  O   UNL     1       2.208   5.980  18.069  0.00  0.00    +0.000 OA
ATOM      5  H   UNL     1       2.049   6.880  21.126  0.00  0.00    +0.000 HD
BRANCH   2   6
ATOM      6  C   UNL     1       1.711   8.446  19.733  0.00  0.00    +0.000 C 
BRANCH   6  10
ATOM      7  C   UNL     1      -0.802  10.702  22.626  0.00  0.00    +0.000 A 
ATOM      8  C   UNL     1      -0.717  11.051  21.275  0.00  0.00    +0.000 A 
ATOM      9  C   UNL     1       0.099  10.346  20.364  0.00  0.00    +0.000 A 
ATOM     10  C   UNL     1       0.897   9.271  20.766  0.00  0.00    +0.000 A 
ATOM     11  C   UNL     1       0.803   8.920  22.144  0.00  0.00    +0.000 A 
ATOM     12  C   UNL     1      -0.033   9.629  23.062  0.00  0.00    +0.000 A 
BRANCH   7  14
ATOM     13  C   UNL     1      -1.633  12.907  23.152  0.00  0.00    +0.000 C 
ATOM     14  O   UNL     1      -1.624  11.500  23.372  0.00  0.00    +0.000 OA
ENDBRANCH   7  14
ENDBRANCH   6  10
ENDBRANCH   2   6
ENDBRANCH   1   3
BRANCH   1  15
ATOM     15  S   UNL     1       4.135   3.433  19.686  0.00  0.00    +0.000 S 
BRANCH  15  16
ATOM     16  C   UNL     1       5.152   4.515  18.708  0.00  0.00    +0.000 A 
ATOM     17  C   UNL     1       5.659   5.506  19.413  0.00  0.00    +0.000 A 
ATOM     18  C   UNL     1       7.106   5.541  19.203  0.00  0.00    +0.000 A 
ATOM     19  O   UNL     1       7.866   5.185  20.094  0.00  0.00    +0.000 OA
ATOM     20  N   UNL     1       7.474   5.858  17.927  0.00  0.00    +0.000 N 
ATOM     21  C   UNL     1       7.516   7.291  17.670  0.00  0.00    +0.000 C 
ATOM     22  C   UNL     1       6.827   5.107  16.912  0.00  0.00    +0.000 A 
ATOM     23  C   UNL     1       7.402   5.200  15.627  0.00  0.00    +0.000 A 
ATOM     24  C   UNL     1       6.749   4.660  14.540  0.00  0.00    +0.000 A 
ATOM     25  C   UNL     1       5.520   4.041  14.768  0.00  0.00    +0.000 A 
ATOM     26  C   UNL     1       4.968   3.892  16.089  0.00  0.00    +0.000 A 
ATOM     27  C   UNL     1       5.626   4.390  17.234  0.00  0.00    +0.000 A 
ENDBRANCH  15  16
ENDBRANCH   1  15
TORSDOF 6
ENDMDL
MODEL 3
REMARK VINA RESULT:      -8.4      1.381      1.892
REMARK  Name = 
REMARK  8 active torsions:
REMARK  status: ('A' for Active; 'I' for Inactive)
REMARK    1  A    between atoms: C_1  and  O_2
REMARK    2  A    between atoms: O_2  and  C_3
REMARK    3  A    between atoms: C_6  and  C_7
REMARK    4  A    between atoms: C_7  and  N_8
REMARK    5  A    between atoms: C_9  and  C_11
REMARK    6  A    between atoms: C_11  and  S_12
REMARK    7  A    between atoms: S_12  and  C_13
REMARK    8  A    between atoms: N_17  and  C_18
REMARK                            x       y       z     vdW  Elec       q    Type
REMARK                         _______ _______ _______ _____ _____    ______ ____
ROOT
ATOM      1  C   UNL     1       2.575   3.342  19.055  0.00  0.00    +0.000 C 
ENDROOT
BRANCH   1   3
ATOM      2  N   UNL     1       2.539   5.868  18.744  0.00  0.00    +0.000 N 
ATOM      3  C   UNL     1       2.087   4.618  18.221  0.00  0.00    +0.000 C 
ATOM      4  O   UNL     1       1.396   4.536  17.209  0.00  0.00    +0.000 OA
ATOM      5  H   UNL     1       2.973   5.843  19.657  0.00  0.00    +0.000 HD
BRANCH   2   6
ATOM      6  C   UNL     1       2.128   7.249  18.310  0.00  0.00    +0.000 C 
BRANCH   6  10
ATOM      7  C   UNL     1       0.682  10.060  21.437  0.00  0.00    +0.000 A 
ATOM      8  C   UNL     1       0.747  10.411  20.086  0.00  0.00    +0.000 A 
ATOM      9  C   UNL     1       1.227   9.523  19.098  0.00  0.00    +0.000 A 
ATOM     10  C   UNL     1       1.696   8.246  19.419  0.00  0.00    +0.000 A 
ATOM     11  C   UNL     1       1.625   7.895  20.798  0.00  0.00    +0.000 A 
ATOM     12  C   UNL     1       1.128   8.792  21.794  0.00  0.00    +0.000 A 
BRANCH   7  14
ATOM     13  C   UNL     1      -1.055  10.887  22.895  0.00  0.00    +0.000 C 
ATOM     14  O   UNL     1       0.209  11.044  22.261  0.00  0.00    +0.000 OA
ENDBRANCH   7  14
ENDBRANCH   6  10
ENDBRANCH   2   6
ENDBRANCH   1   3
BRANCH   1  15
ATOM     15  S   UNL     1       4.476   3.153  19.605  0.00  0.00    +0.000 S 
BRANCH  15  16
ATOM     16  C   UNL     1       5.316   4.349  18.592  0.00  0.00    +0.000 A 
ATOM     17  C   UNL     1       5.802   5.353  19.294  0.00  0.00    +0.000 A 
ATOM     18  C   UNL     1       7.218   5.514  18.966  0.00  0.00    +0.000 A 
ATOM     19  O   UNL     1       8.078   5.191  19.774  0.00  0.00    +0.000 OA
ATOM     20  N   UNL     1       7.448   5.906  17.678  0.00  0.00    +0.000 N 
ATOM     21  C   UNL     1       7.354   7.346  17.480  0.00  0.00    +0.000 C 
ATOM     22  C   UNL     1       6.777   5.141  16.690  0.00  0.00    +0.000 A 
ATOM     23  C   UNL     1       7.230   5.326  15.366  0.00  0.00    +0.000 A 
ATOM     24  C   UNL     1       6.530   4.773  14.316  0.00  0.00    +0.000 A 
ATOM     25  C   UNL     1       5.378   4.047  14.619  0.00  0.00    +0.000 A 
ATOM     26  C   UNL     1       4.956   3.807  15.974  0.00  0.00    +0.000 A 
ATOM     27  C   UNL     1       5.669   4.316  17.080  0.00  0.00    +0.000 A 
ENDBRANCH  15  16
ENDBRANCH   1  15
TORSDOF 6
ENDMDL
MODEL 4
REMARK VINA RESULT:      -8.4      4.271      7.286
REMARK  Name = 
REMARK  8 active torsions:
REMARK  status: ('A' for Active; 'I' for Inactive)
REMARK    1  A    between atoms: C_1  and  O_2
REMARK    2  A    between atoms: O_2  and  C_3
REMARK    3  A    between atoms: C_6  and  C_7
REMARK    4  A    between atoms: C_7  and  N_8
REMARK    5  A    between atoms: C_9  and  C_11
REMARK    6  A    between atoms: C_11  and  S_12
REMARK    7  A    between atoms: S_12  and  C_13
REMARK    8  A    between atoms: N_17  and  C_18
REMARK                            x       y       z     vdW  Elec       q    Type
REMARK                         _______ _______ _______ _____ _____    ______ ____
ROOT
ATOM      1  C   UNL     1       6.747   7.325  16.701  0.00  0.00    +0.000 C 
ENDROOT
BRANCH   1   3
ATOM      2  N   UNL     1       8.079   8.987  18.095  0.00  0.00    +0.000 N 
ATOM      3  C   UNL     1       7.718   7.613  17.941  0.00  0.00    +0.000 C 
ATOM      4  O   UNL     1       8.110   6.737  18.707  0.00  0.00    +0.000 OA
ATOM      5  H   UNL     1       7.830   9.605  17.334  0.00  0.00    +0.000 HD
BRANCH   2   6
ATOM      6  C   UNL     1       9.096   9.569  19.038  0.00  0.00    +0.000 C 
BRANCH   6  10
ATOM      7  C   UNL     1      10.807  13.519  17.927  0.00  0.00    +0.000 A 
ATOM      8  C   UNL     1      11.487  12.612  18.744  0.00  0.00    +0.000 A 
ATOM      9  C   UNL     1      10.931  11.367  19.113  0.00  0.00    +0.000 A 
ATOM     10  C   UNL     1       9.651  10.980  18.706  0.00  0.00    +0.000 A 
ATOM     11  C   UNL     1       8.966  11.910  17.872  0.00  0.00    +0.000 A 
ATOM     12  C   UNL     1       9.536  13.165  17.491  0.00  0.00    +0.000 A 
BRANCH   7  14
ATOM     13  C   UNL     1      10.784  15.809  17.160  0.00  0.00    +0.000 C 
ATOM     14  O   UNL     1      11.482  14.684  17.683  0.00  0.00    +0.000 OA
ENDBRANCH   7  14
ENDBRANCH   6  10
ENDBRANCH   2   6
ENDBRANCH   1   3
BRANCH   1  15
ATOM     15  S   UNL     1       6.162   5.473  16.276  0.00  0.00    +0.000 S 
BRANCH  15  16
ATOM     16  C   UNL     1       4.762   5.232  17.345  0.00  0.00    +0.000 A 
ATOM     17  C   UNL     1       4.568   3.962  17.645  0.00  0.00    +0.000 A 
ATOM     18  C   UNL     1       4.476   3.831  19.098  0.00  0.00    +0.000 A 
ATOM     19  O   UNL     1       5.391   3.320  19.730  0.00  0.00    +0.000 OA
ATOM     20  N   UNL     1       3.381   4.441  19.642  0.00  0.00    +0.000 N 
ATOM     21  C   UNL     1       2.178   3.622  19.605  0.00  0.00    +0.000 C 
ATOM     22  C   UNL     1       3.180   5.784  19.235  0.00  0.00    +0.000 A 
ATOM     23  C   UNL     1       2.252   6.520  20.003  0.00  0.00    +0.000 A 
ATOM     24  C   UNL     1       1.849   7.769  19.584  0.00  0.00    +0.000 A 
ATOM     25  C   UNL     1       2.384   8.253  18.391  0.00  0.00    +0.000 A 
ATOM     26  C   UNL     1       3.379   7.528  17.645  0.00  0.00    +0.000 A 
ATOM     27  C   UNL     1       3.853   6.266  18.062  0.00  0.00    +0.000 A 
ENDBRANCH  15  16
ENDBRANCH   1  15
TORSDOF 6
ENDMDL
MODEL 5
REMARK VINA RESULT:      -8.3      0.649      1.126
REMARK  Name = 
REMARK  8 active torsions:
REMARK  status: ('A' for Active; 'I' for Inactive)
REMARK    1  A    between atoms: C_1  and  O_2
REMARK    2  A    between atoms: O_2  and  C_3
REMARK    3  A    between atoms: C_6  and  C_7
REMARK    4  A    between atoms: C_7  and  N_8
REMARK    5  A    between atoms: C_9  and  C_11
REMARK    6  A    between atoms: C_11  and  S_12
REMARK    7  A    between atoms: S_12  and  C_13
REMARK    8  A    between atoms: N_17  and  C_18
REMARK                            x       y       z     vdW  Elec       q    Type
REMARK                         _______ _______ _______ _____ _____    ______ ____
ROOT
ATOM      1  C   UNL     1       2.366   3.854  18.858  0.00  0.00    +0.000 C 
ENDROOT
BRANCH   1   3
ATOM      2  N   UNL     1       2.170   6.188  19.855  0.00  0.00    +0.000 N 
ATOM      3  C   UNL     1       1.664   4.852  19.893  0.00  0.00    +0.000 C 
ATOM      4  O   UNL     1       0.757   4.511  20.647  0.00  0.00    +0.000 OA
ATOM      5  H   UNL     1       3.012   6.334  19.313  0.00  0.00    +0.000 HD
BRANCH   2   6
ATOM      6  C   UNL     1       1.857   7.317  20.799  0.00  0.00    +0.000 C 
BRANCH   6  10
ATOM      7  C   UNL     1      -0.305  10.756  18.992  0.00  0.00    +0.000 A 
ATOM      8  C   UNL     1       0.711  10.072  18.319  0.00  0.00    +0.000 A 
ATOM      9  C   UNL     1       1.411   8.994  18.904  0.00  0.00    +0.000 A 
ATOM     10  C   UNL     1       1.149   8.565  20.208  0.00  0.00    +0.000 A 
ATOM     11  C   UNL     1       0.111   9.266  20.887  0.00  0.00    +0.000 A 
ATOM     12  C   UNL     1      -0.604  10.350  20.288  0.00  0.00    +0.000 A 
BRANCH   7  14
ATOM     13  C   UNL     1      -0.245  13.067  18.295  0.00  0.00    +0.000 C 
ATOM     14  O   UNL     1      -0.865  11.785  18.287  0.00  0.00    +0.000 OA
ENDBRANCH   7  14
ENDBRANCH   6  10
ENDBRANCH   2   6
ENDBRANCH   1   3
BRANCH   1  15
ATOM     15  S   UNL     1       4.226   3.220  19.157  0.00  0.00    +0.000 S 
BRANCH  15  16
ATOM     16  C   UNL     1       5.209   4.402  18.267  0.00  0.00    +0.000 A 
ATOM     17  C   UNL     1       5.659   5.371  19.041  0.00  0.00    +0.000 A 
ATOM     18  C   UNL     1       7.106   5.482  18.863  0.00  0.00    +0.000 A 
ATOM     19  O   UNL     1       7.865   5.107  19.747  0.00  0.00    +0.000 OA
ATOM     20  N   UNL     1       7.482   5.893  17.616  0.00  0.00    +0.000 N 
ATOM     21  C   UNL     1       7.463   7.339  17.447  0.00  0.00    +0.000 C 
ATOM     22  C   UNL     1       6.888   5.177  16.545  0.00  0.00    +0.000 A 
ATOM     23  C   UNL     1       7.481   5.373  15.280  0.00  0.00    +0.000 A 
ATOM     24  C   UNL     1       6.872   4.872  14.150  0.00  0.00    +0.000 A 
ATOM     25  C   UNL     1       5.669   4.187  14.315  0.00  0.00    +0.000 A 
ATOM     26  C   UNL     1       5.101   3.933  15.613  0.00  0.00    +0.000 A 
ATOM     27  C   UNL     1       5.715   4.389  16.799  0.00  0.00    +0.000 A 
ENDBRANCH  15  16
ENDBRANCH   1  15
TORSDOF 6
ENDMDL
MODEL 6
REMARK VINA RESULT:      -8.3      3.164      5.025
REMARK  Name = 
REMARK  8 active torsions:
REMARK  status: ('A' for Active; 'I' for Inactive)
REMARK    1  A    between atoms: C_1  and  O_2
REMARK    2  A    between atoms: O_2  and  C_3
REMARK    3  A    between atoms: C_6  and  C_7
REMARK    4  A    between atoms: C_7  and  N_8
REMARK    5  A    between atoms: C_9  and  C_11
REMARK    6  A    between atoms: C_11  and  S_12
REMARK    7  A    between atoms: S_12  and  C_13
REMARK    8  A    between atoms: N_17  and  C_18
REMARK                            x       y       z     vdW  Elec       q    Type
REMARK                         _______ _______ _______ _____ _____    ______ ____
ROOT
ATOM      1  C   UNL     1       2.085   8.276  17.917  0.00  0.00    +0.000 C 
ENDROOT
BRANCH   1   3
ATOM      2  N   UNL     1       0.490  10.038  18.830  0.00  0.00    +0.000 N 
ATOM      3  C   UNL     1       1.685   9.818  18.078  0.00  0.00    +0.000 C 
ATOM      4  O   UNL     1       2.351  10.738  17.612  0.00  0.00    +0.000 OA
ATOM      5  H   UNL     1      -0.065   9.219  19.042  0.00  0.00    +0.000 HD
BRANCH   2   6
ATOM      6  C   UNL     1      -0.249  11.334  19.021  0.00  0.00    +0.000 C 
BRANCH   6  10
ATOM      7  C   UNL     1      -4.602  11.207  18.121  0.00  0.00    +0.000 A 
ATOM      8  C   UNL     1      -3.673  10.412  17.444  0.00  0.00    +0.000 A 
ATOM      9  C   UNL     1      -2.289  10.471  17.717  0.00  0.00    +0.000 A 
ATOM     10  C   UNL     1      -1.760  11.353  18.663  0.00  0.00    +0.000 A 
ATOM     11  C   UNL     1      -2.713  12.158  19.350  0.00  0.00    +0.000 A 
ATOM     12  C   UNL     1      -4.116  12.089  19.079  0.00  0.00    +0.000 A 
BRANCH   7  14
ATOM     13  C   UNL     1      -6.932  10.944  18.694  0.00  0.00    +0.000 C 
ATOM     14  O   UNL     1      -5.898  11.038  17.720  0.00  0.00    +0.000 OA
ENDBRANCH   7  14
ENDBRANCH   6  10
ENDBRANCH   2   6
ENDBRANCH   1   3
BRANCH   1  15
ATOM     15  S   UNL     1       2.547   7.174  19.505  0.00  0.00    +0.000 S 
BRANCH  15  16
ATOM     16  C   UNL     1       3.197   5.682  18.791  0.00  0.00    +0.000 A 
ATOM     17  C   UNL     1       2.441   4.630  19.040  0.00  0.00    +0.000 A 
ATOM     18  C   UNL     1       2.143   3.956  17.777  0.00  0.00    +0.000 A 
ATOM     19  O   UNL     1       1.020   4.021  17.294  0.00  0.00    +0.000 OA
ATOM     20  N   UNL     1       3.236   3.405  17.171  0.00  0.00    +0.000 N 
ATOM     21  C   UNL     1       3.573   2.080  17.669  0.00  0.00    +0.000 C 
ATOM     22  C   UNL     1       4.348   4.274  17.037  0.00  0.00    +0.000 A 
ATOM     23  C   UNL     1       5.361   3.835  16.157  0.00  0.00    +0.000 A 
ATOM     24  C   UNL     1       6.560   4.511  16.096  0.00  0.00    +0.000 A 
ATOM     25  C   UNL     1       6.720   5.618  16.930  0.00  0.00    +0.000 A 
ATOM     26  C   UNL     1       5.662   6.100  17.778  0.00  0.00    +0.000 A 
ATOM     27  C   UNL     1       4.403   5.465  17.838  0.00  0.00    +0.000 A 
ENDBRANCH  15  16
ENDBRANCH   1  15
TORSDOF 6
ENDMDL
MODEL 7
REMARK VINA RESULT:      -8.0      1.422      1.856
REMARK  Name = 
REMARK  8 active torsions:
REMARK  status: ('A' for Active; 'I' for Inactive)
REMARK    1  A    between atoms: C_1  and  O_2
REMARK    2  A    between atoms: O_2  and  C_3
REMARK    3  A    between atoms: C_6  and  C_7
REMARK    4  A    between atoms: C_7  and  N_8
REMARK    5  A    between atoms: C_9  and  C_11
REMARK    6  A    between atoms: C_11  and  S_12
REMARK    7  A    between atoms: S_12  and  C_13
REMARK    8  A    between atoms: N_17  and  C_18
REMARK                            x       y       z     vdW  Elec       q    Type
REMARK                         _______ _______ _______ _____ _____    ______ ____
ROOT
ATOM      1  C   UNL     1       2.057   5.072  19.414  0.00  0.00    +0.000 C 
ENDROOT
BRANCH   1   3
ATOM      2  N   UNL     1       2.349   7.234  18.103  0.00  0.00    +0.000 N 
ATOM      3  C   UNL     1       2.186   6.667  19.404  0.00  0.00    +0.000 C 
ATOM      4  O   UNL     1       2.136   7.353  20.421  0.00  0.00    +0.000 OA
ATOM      5  H   UNL     1       2.528   6.584  17.349  0.00  0.00    +0.000 HD
BRANCH   2   6
ATOM      6  C   UNL     1       2.667   8.663  17.756  0.00  0.00    +0.000 C 
BRANCH   6  10
ATOM      7  C   UNL     1      -0.531  11.607  18.693  0.00  0.00    +0.000 A 
ATOM      8  C   UNL     1      -0.811  10.316  18.236  0.00  0.00    +0.000 A 
ATOM      9  C   UNL     1       0.207   9.391  17.919  0.00  0.00    +0.000 A 
ATOM     10  C   UNL     1       1.562   9.723  18.014  0.00  0.00    +0.000 A 
ATOM     11  C   UNL     1       1.839  11.039  18.481  0.00  0.00    +0.000 A 
ATOM     12  C   UNL     1       0.805  11.971  18.813  0.00  0.00    +0.000 A 
BRANCH   7  14
ATOM     13  C   UNL     1      -2.301  12.283  20.189  0.00  0.00    +0.000 C 
ATOM     14  O   UNL     1      -1.634  12.379  18.936  0.00  0.00    +0.000 OA
ENDBRANCH   7  14
ENDBRANCH   6  10
ENDBRANCH   2   6
ENDBRANCH   1   3
BRANCH   1  15
ATOM     15  S   UNL     1       3.672   3.920  19.534  0.00  0.00    +0.000 S 
BRANCH  15  16
ATOM     16  C   UNL     1       4.885   4.819  18.596  0.00  0.00    +0.000 A 
ATOM     17  C   UNL     1       5.477   5.761  19.305  0.00  0.00    +0.000 A 
ATOM     18  C   UNL     1       6.925   5.595  19.192  0.00  0.00    +0.000 A 
ATOM     19  O   UNL     1       7.573   5.175  20.142  0.00  0.00    +0.000 OA
ATOM     20  N   UNL     1       7.412   5.812  17.934  0.00  0.00    +0.000 N 
ATOM     21  C   UNL     1       7.664   7.216  17.640  0.00  0.00    +0.000 C 
ATOM     22  C   UNL     1       6.735   5.117  16.901  0.00  0.00    +0.000 A 
ATOM     23  C   UNL     1       7.397   5.083  15.655  0.00  0.00    +0.000 A 
ATOM     24  C   UNL     1       6.746   4.595  14.543  0.00  0.00    +0.000 A 
ATOM     25  C   UNL     1       5.433   4.154  14.705  0.00  0.00    +0.000 A 
ATOM     26  C   UNL     1       4.784   4.129  15.990  0.00  0.00    +0.000 A 
ATOM     27  C   UNL     1       5.430   4.578  17.162  0.00  0.00    +0.000 A 
ENDBRANCH  15  16
ENDBRANCH   1  15
TORSDOF 6
ENDMDL
MODEL 8
REMARK VINA RESULT:      -8.0      3.640      6.676
REMARK  Name = 
REMARK  8 active torsions:
REMARK  status: ('A' for Active; 'I' for Inactive)
REMARK    1  A    between atoms: C_1  and  O_2
REMARK    2  A    between atoms: O_2  and  C_3
REMARK    3  A    between atoms: C_6  and  C_7
REMARK    4  A    between atoms: C_7  and  N_8
REMARK    5  A    between atoms: C_9  and  C_11
REMARK    6  A    between atoms: C_11  and  S_12
REMARK    7  A    between atoms: S_12  and  C_13
REMARK    8  A    between atoms: N_17  and  C_18
REMARK                            x       y       z     vdW  Elec       q    Type
REMARK                         _______ _______ _______ _____ _____    ______ ____
ROOT
ATOM      1  C   UNL     1       5.806   6.493  16.483  0.00  0.00    +0.000 C 
ENDROOT
BRANCH   1   3
ATOM      2  N   UNL     1       7.489   7.993  17.665  0.00  0.00    +0.000 N 
ATOM      3  C   UNL     1       6.792   6.747  17.718  0.00  0.00    +0.000 C 
ATOM      4  O   UNL     1       6.932   5.951  18.643  0.00  0.00    +0.000 OA
ATOM      5  H   UNL     1       7.423   8.508  16.797  0.00  0.00    +0.000 HD
BRANCH   2   6
ATOM      6  C   UNL     1       8.602   8.463  18.562  0.00  0.00    +0.000 C 
BRANCH   6  10
ATOM      7  C   UNL     1       9.191  12.864  18.790  0.00  0.00    +0.000 A 
ATOM      8  C   UNL     1       8.529  12.251  17.723  0.00  0.00    +0.000 A 
ATOM      9  C   UNL     1       8.363  10.850  17.643  0.00  0.00    +0.000 A 
ATOM     10  C   UNL     1       8.879   9.989  18.614  0.00  0.00    +0.000 A 
ATOM     11  C   UNL     1       9.551  10.622  19.700  0.00  0.00    +0.000 A 
ATOM     12  C   UNL     1       9.708  12.041  19.784  0.00  0.00    +0.000 A 
BRANCH   7  14
ATOM     13  C   UNL     1       8.228  14.963  18.087  0.00  0.00    +0.000 C 
ATOM     14  O   UNL     1       9.280  14.226  18.701  0.00  0.00    +0.000 OA
ENDBRANCH   7  14
ENDBRANCH   6  10
ENDBRANCH   2   6
ENDBRANCH   1   3
BRANCH   1  15
ATOM     15  S   UNL     1       5.038   4.690  16.148  0.00  0.00    +0.000 S 
BRANCH  15  16
ATOM     16  C   UNL     1       3.742   4.567  17.358  0.00  0.00    +0.000 A 
ATOM     17  C   UNL     1       3.293   3.334  17.494  0.00  0.00    +0.000 A 
ATOM     18  C   UNL     1       3.328   2.975  18.911  0.00  0.00    +0.000 A 
ATOM     19  O   UNL     1       4.162   2.180  19.325  0.00  0.00    +0.000 OA
ATOM     20  N   UNL     1       2.467   3.697  19.688  0.00  0.00    +0.000 N 
ATOM     21  C   UNL     1       1.111   3.169  19.703  0.00  0.00    +0.000 C 
ATOM     22  C   UNL     1       2.540   5.103  19.514  0.00  0.00    +0.000 A 
ATOM     23  C   UNL     1       1.893   5.872  20.505  0.00  0.00    +0.000 A 
ATOM     24  C   UNL     1       1.747   7.231  20.334  0.00  0.00    +0.000 A 
ATOM     25  C   UNL     1       2.250   7.792  19.160  0.00  0.00    +0.000 A 
ATOM     26  C   UNL     1       2.966   7.015  18.183  0.00  0.00    +0.000 A 
ATOM     27  C   UNL     1       3.177   5.628  18.340  0.00  0.00    +0.000 A 
ENDBRANCH  15  16
ENDBRANCH   1  15
TORSDOF 6
ENDMDL
MODEL 9
REMARK VINA RESULT:      -7.9      3.142      5.006
REMARK  Name = 
REMARK  8 active torsions:
REMARK  status: ('A' for Active; 'I' for Inactive)
REMARK    1  A    between atoms: C_1  and  O_2
REMARK    2  A    between atoms: O_2  and  C_3
REMARK    3  A    between atoms: C_6  and  C_7
REMARK    4  A    between atoms: C_7  and  N_8
REMARK    5  A    between atoms: C_9  and  C_11
REMARK    6  A    between atoms: C_11  and  S_12
REMARK    7  A    between atoms: S_12  and  C_13
REMARK    8  A    between atoms: N_17  and  C_18
REMARK                            x       y       z     vdW  Elec       q    Type
REMARK                         _______ _______ _______ _____ _____    ______ ____
ROOT
ATOM      1  C   UNL     1       1.822   8.275  17.964  0.00  0.00    +0.000 C 
ENDROOT
BRANCH   1   3
ATOM      2  N   UNL     1       0.348  10.202  18.736  0.00  0.00    +0.000 N 
ATOM      3  C   UNL     1       1.563   9.851  18.071  0.00  0.00    +0.000 C 
ATOM      4  O   UNL     1       2.343  10.693  17.635  0.00  0.00    +0.000 OA
ATOM      5  H   UNL     1      -0.296   9.444  18.924  0.00  0.00    +0.000 HD
BRANCH   2   6
ATOM      6  C   UNL     1      -0.275  11.566  18.853  0.00  0.00    +0.000 C 
BRANCH   6  10
ATOM      7  C   UNL     1      -4.701  11.992  18.830  0.00  0.00    +0.000 A 
ATOM      8  C   UNL     1      -3.903  12.521  19.847  0.00  0.00    +0.000 A 
ATOM      9  C   UNL     1      -2.499  12.365  19.863  0.00  0.00    +0.000 A 
ATOM     10  C   UNL     1      -1.825  11.643  18.874  0.00  0.00    +0.000 A 
ATOM     11  C   UNL     1      -2.646  11.108  17.840  0.00  0.00    +0.000 A 
ATOM     12  C   UNL     1      -4.066  11.277  17.820  0.00  0.00    +0.000 A 
BRANCH   7  14
ATOM     13  C   UNL     1      -6.953  11.730  18.001  0.00  0.00    +0.000 C 
ATOM     14  O   UNL     1      -6.041  12.219  18.978  0.00  0.00    +0.000 OA
ENDBRANCH   7  14
ENDBRANCH   6  10
ENDBRANCH   2   6
ENDBRANCH   1   3
BRANCH   1  15
ATOM     15  S   UNL     1       2.520   7.252  19.519  0.00  0.00    +0.000 S 
BRANCH  15  16
ATOM     16  C   UNL     1       3.164   5.770  18.777  0.00  0.00    +0.000 A 
ATOM     17  C   UNL     1       2.433   4.708  19.053  0.00  0.00    +0.000 A 
ATOM     18  C   UNL     1       2.095   4.031  17.802  0.00  0.00    +0.000 A 
ATOM     19  O   UNL     1       0.953   4.080  17.364  0.00  0.00    +0.000 OA
ATOM     20  N   UNL     1       3.171   3.497  17.152  0.00  0.00    +0.000 N 
ATOM     21  C   UNL     1       3.547   2.176  17.634  0.00  0.00    +0.000 C 
ATOM     22  C   UNL     1       4.264   4.382  16.976  0.00  0.00    +0.000 A 
ATOM     23  C   UNL     1       5.248   3.959  16.056  0.00  0.00    +0.000 A 
ATOM     24  C   UNL     1       6.433   4.653  15.948  0.00  0.00    +0.000 A 
ATOM     25  C   UNL     1       6.611   5.760  16.778  0.00  0.00    +0.000 A 
ATOM     26  C   UNL     1       5.580   6.226  17.668  0.00  0.00    +0.000 A 
ATOM     27  C   UNL     1       4.334   5.572  17.776  0.00  0.00    +0.000 A 
ENDBRANCH  15  16
ENDBRANCH   1  15
TORSDOF 6
ENDMDL
