MODEL 1
REMARK VINA RESULT:      -8.6      0.000      0.000
REMARK  Name = 
REMARK  9 active torsions:
REMARK  status: ('A' for Active; 'I' for Inactive)
REMARK    1  A    between atoms: C_1  and  C_2
REMARK    2  A    between atoms: C_5  and  N_6
REMARK    3  A    between atoms: C_7  and  C_8
REMARK    4  A    between atoms: C_11  and  S_12
REMARK    5  A    between atoms: S_12  and  C_13
REMARK    6  A    between atoms: C_13  and  C_14
REMARK    7  A    between atoms: N_16  and  C_17
REMARK    8  A    between atoms: C_20  and  O_21
REMARK    9  A    between atoms: O_21  and  C_22
REMARK                            x       y       z     vdW  Elec       q    Type
REMARK                         _______ _______ _______ _____ _____    ______ ____
ROOT
ATOM      1  C   UNL     1       8.000   8.484  17.905  0.00  0.00    +0.000 C 
ATOM      2  O   UNL     1       8.520   7.820  18.798  0.00  0.00    +0.000 OA
ATOM      3  N   UNL     1       7.036   8.042  17.016  0.00  0.00    +0.000 N 
ATOM      4  H   UNL     1       6.898   8.602  16.175  0.00  0.00    +0.000 HD
ENDROOT
BRANCH   3   5
ATOM      5  C   UNL     1       6.354   6.812  17.070  0.00  0.00    +0.000 A 
ATOM      6  C   UNL     1       6.983   5.576  16.903  0.00  0.00    +0.000 A 
ATOM      7  C   UNL     1       6.257   4.389  17.025  0.00  0.00    +0.000 A 
ATOM      8  C   UNL     1       4.897   4.428  17.322  0.00  0.00    +0.000 A 
ATOM      9  C   UNL     1       4.248   5.660  17.423  0.00  0.00    +0.000 A 
ATOM     10  C   UNL     1       4.981   6.847  17.336  0.00  0.00    +0.000 A 
BRANCH   8  11
ATOM     11  O   UNL     1       4.271   3.210  17.449  0.00  0.00    +0.000 OA
BRANCH  11  12
ATOM     12  C   UNL     1       3.328   3.029  18.435  0.00  0.00    +0.000 A 
ATOM     13  C   UNL     1       2.020   2.827  17.990  0.00  0.00    +0.000 A 
ATOM     14  C   UNL     1       0.984   2.663  18.910  0.00  0.00    +0.000 A 
ATOM     15  C   UNL     1       1.254   2.698  20.278  0.00  0.00    +0.000 A 
ATOM     16  C   UNL     1       2.565   2.853  20.725  0.00  0.00    +0.000 A 
ATOM     17  C   UNL     1       3.605   2.987  19.805  0.00  0.00    +0.000 A 
ENDBRANCH  11  12
ENDBRANCH   8  11
ENDBRANCH   3   5
BRANCH   1  18
ATOM     18  C   UNL     1       8.407   9.927  17.678  0.00  0.00    +0.000 C 
BRANCH  18  19
ATOM     19  S   UNL     1       9.310  10.563  19.105  0.00  0.00    +0.000 S 
BRANCH  19  25
ATOM     20  N   UNL     1       9.960  13.115  18.161  0.00  0.00    +0.000 N 
ATOM     21  C   UNL     1      11.135  13.673  17.643  0.00  0.00    +0.000 A 
ATOM     22  C   UNL     1      11.294  15.005  17.007  0.00  0.00    +0.000 C 
ATOM     23  N   UNL     1      12.105  12.780  17.683  0.00  0.00    +0.000 NA
ATOM     24  N   UNL     1      11.599  11.608  18.162  0.00  0.00    +0.000 NA
ATOM     25  C   UNL     1      10.321  11.791  18.410  0.00  0.00    +0.000 A 
BRANCH  20  30
ATOM     26  C   UNL     1       4.816  15.330  19.461  0.00  0.00    +0.000 C 
ATOM     27  C   UNL     1       6.185  14.850  19.081  0.00  0.00    +0.000 A 
ATOM     28  C   UNL     1       6.434  14.331  17.811  0.00  0.00    +0.000 A 
ATOM     29  C   UNL     1       7.695  13.822  17.486  0.00  0.00    +0.000 A 
ATOM     30  C   UNL     1       8.721  13.773  18.438  0.00  0.00    +0.000 A 
ATOM     31  C   UNL     1       8.476  14.323  19.705  0.00  0.00    +0.000 A 
ATOM     32  C   UNL     1       7.225  14.870  20.015  0.00  0.00    +0.000 A 
ENDBRANCH  20  30
ENDBRANCH  19  25
ENDBRANCH  18  19
ENDBRANCH   1  18
TORSDOF 7
ENDMDL
MODEL 2
REMARK VINA RESULT:      -8.6      0.235      1.244
REMARK  Name = 
REMARK  9 active torsions:
REMARK  status: ('A' for Active; 'I' for Inactive)
REMARK    1  A    between atoms: C_1  and  C_2
REMARK    2  A    between atoms: C_5  and  N_6
REMARK    3  A    between atoms: C_7  and  C_8
REMARK    4  A    between atoms: C_11  and  S_12
REMARK    5  A    between atoms: S_12  and  C_13
REMARK    6  A    between atoms: C_13  and  C_14
REMARK    7  A    between atoms: N_16  and  C_17
REMARK    8  A    between atoms: C_20  and  O_21
REMARK    9  A    between atoms: O_21  and  C_22
REMARK                            x       y       z     vdW  Elec       q    Type
REMARK                         _______ _______ _______ _____ _____    ______ ____
ROOT
ATOM      1  C   UNL     1       8.077   8.407  17.992  0.00  0.00    +0.000 C 
ATOM      2  O   UNL     1       8.559   7.720  18.890  0.00  0.00    +0.000 OA
ATOM      3  N   UNL     1       7.072   8.022  17.122  0.00  0.00    +0.000 N 
ATOM      4  H   UNL     1       6.963   8.578  16.274  0.00  0.00    +0.000 HD
ENDROOT
BRANCH   3   5
ATOM      5  C   UNL     1       6.303   6.845  17.204  0.00  0.00    +0.000 A 
ATOM      6  C   UNL     1       4.924   6.842  17.428  0.00  0.00    +0.000 A 
ATOM      7  C   UNL     1       4.212   5.641  17.441  0.00  0.00    +0.000 A 
ATOM      8  C   UNL     1       4.871   4.434  17.225  0.00  0.00    +0.000 A 
ATOM      9  C   UNL     1       6.258   4.423  17.069  0.00  0.00    +0.000 A 
ATOM     10  C   UNL     1       6.967   5.628  17.020  0.00  0.00    +0.000 A 
BRANCH   8  11
ATOM     11  O   UNL     1       4.084   3.306  17.230  0.00  0.00    +0.000 OA
BRANCH  11  12
ATOM     12  C   UNL     1       3.249   3.063  18.297  0.00  0.00    +0.000 A 
ATOM     13  C   UNL     1       1.897   2.913  17.984  0.00  0.00    +0.000 A 
ATOM     14  C   UNL     1       0.962   2.694  18.997  0.00  0.00    +0.000 A 
ATOM     15  C   UNL     1       1.378   2.622  20.325  0.00  0.00    +0.000 A 
ATOM     16  C   UNL     1       2.733   2.726  20.638  0.00  0.00    +0.000 A 
ATOM     17  C   UNL     1       3.671   2.915  19.623  0.00  0.00    +0.000 A 
ENDBRANCH  11  12
ENDBRANCH   8  11
ENDBRANCH   3   5
BRANCH   1  18
ATOM     18  C   UNL     1       8.584   9.813  17.738  0.00  0.00    +0.000 C 
BRANCH  18  19
ATOM     19  S   UNL     1       9.342  10.492  19.226  0.00  0.00    +0.000 S 
BRANCH  19  25
ATOM     20  N   UNL     1       9.935  13.084  18.356  0.00  0.00    +0.000 N 
ATOM     21  C   UNL     1      11.112  13.699  17.912  0.00  0.00    +0.000 A 
ATOM     22  C   UNL     1      11.250  15.046  17.305  0.00  0.00    +0.000 C 
ATOM     23  N   UNL     1      12.116  12.846  17.995  0.00  0.00    +0.000 NA
ATOM     24  N   UNL     1      11.634  11.647  18.429  0.00  0.00    +0.000 NA
ATOM     25  C   UNL     1      10.338  11.772  18.606  0.00  0.00    +0.000 A 
BRANCH  20  30
ATOM     26  C   UNL     1       4.967  15.906  18.993  0.00  0.00    +0.000 C 
ATOM     27  C   UNL     1       6.217  15.086  18.880  0.00  0.00    +0.000 A 
ATOM     28  C   UNL     1       7.175  15.097  19.893  0.00  0.00    +0.000 A 
ATOM     29  C   UNL     1       8.369  14.385  19.750  0.00  0.00    +0.000 A 
ATOM     30  C   UNL     1       8.655  13.685  18.571  0.00  0.00    +0.000 A 
ATOM     31  C   UNL     1       7.678  13.652  17.566  0.00  0.00    +0.000 A 
ATOM     32  C   UNL     1       6.465  14.333  17.728  0.00  0.00    +0.000 A 
ENDBRANCH  20  30
ENDBRANCH  19  25
ENDBRANCH  18  19
ENDBRANCH   1  18
TORSDOF 7
ENDMDL
MODEL 3
REMARK VINA RESULT:      -8.4      1.103      1.533
REMARK  Name = 
REMARK  9 active torsions:
REMARK  status: ('A' for Active; 'I' for Inactive)
REMARK    1  A    between atoms: C_1  and  C_2
REMARK    2  A    between atoms: C_5  and  N_6
REMARK    3  A    between atoms: C_7  and  C_8
REMARK    4  A    between atoms: C_11  and  S_12
REMARK    5  A    between atoms: S_12  and  C_13
REMARK    6  A    between atoms: C_13  and  C_14
REMARK    7  A    between atoms: N_16  and  C_17
REMARK    8  A    between atoms: C_20  and  O_21
REMARK    9  A    between atoms: O_21  and  C_22
REMARK                            x       y       z     vdW  Elec       q    Type
REMARK                         _______ _______ _______ _____ _____    ______ ____
ROOT
ATOM      1  C   UNL     1       8.047   8.363  17.971  0.00  0.00    +0.000 C 
ATOM      2  O   UNL     1       8.528   7.663  18.859  0.00  0.00    +0.000 OA
ATOM      3  N   UNL     1       7.080   7.974  17.061  0.00  0.00    +0.000 N 
ATOM      4  H   UNL     1       6.976   8.555  16.228  0.00  0.00    +0.000 HD
ENDROOT
BRANCH   3   5
ATOM      5  C   UNL     1       6.351   6.771  17.081  0.00  0.00    +0.000 A 
ATOM      6  C   UNL     1       6.942   5.511  16.954  0.00  0.00    +0.000 A 
ATOM      7  C   UNL     1       6.167   4.353  17.040  0.00  0.00    +0.000 A 
ATOM      8  C   UNL     1       4.796   4.443  17.261  0.00  0.00    +0.000 A 
ATOM      9  C   UNL     1       4.187   5.699  17.320  0.00  0.00    +0.000 A 
ATOM     10  C   UNL     1       4.968   6.858  17.270  0.00  0.00    +0.000 A 
BRANCH   8  11
ATOM     11  O   UNL     1       4.119   3.250  17.357  0.00  0.00    +0.000 OA
BRANCH  11  12
ATOM     12  C   UNL     1       3.257   3.039  18.410  0.00  0.00    +0.000 A 
ATOM     13  C   UNL     1       1.917   2.849  18.064  0.00  0.00    +0.000 A 
ATOM     14  C   UNL     1       0.957   2.657  19.059  0.00  0.00    +0.000 A 
ATOM     15  C   UNL     1       1.336   2.652  20.401  0.00  0.00    +0.000 A 
ATOM     16  C   UNL     1       2.678   2.795  20.747  0.00  0.00    +0.000 A 
ATOM     17  C   UNL     1       3.642   2.957  19.751  0.00  0.00    +0.000 A 
ENDBRANCH  11  12
ENDBRANCH   8  11
ENDBRANCH   3   5
BRANCH   1  18
ATOM     18  C   UNL     1       8.512   9.793  17.778  0.00  0.00    +0.000 C 
BRANCH  18  19
ATOM     19  S   UNL     1       9.333  10.399  19.266  0.00  0.00    +0.000 S 
BRANCH  19  25
ATOM     20  N   UNL     1      10.245  13.040  19.118  0.00  0.00    +0.000 N 
ATOM     21  C   UNL     1      11.230  13.670  18.347  0.00  0.00    +0.000 A 
ATOM     22  C   UNL     1      11.491  15.127  18.240  0.00  0.00    +0.000 C 
ATOM     23  N   UNL     1      11.849  12.776  17.600  0.00  0.00    +0.000 NA
ATOM     24  N   UNL     1      11.266  11.561  17.803  0.00  0.00    +0.000 NA
ATOM     25  C   UNL     1      10.291  11.719  18.671  0.00  0.00    +0.000 A 
BRANCH  20  30
ATOM     26  C   UNL     1       6.851  14.861  23.386  0.00  0.00    +0.000 C 
ATOM     27  C   UNL     1       7.771  14.489  22.261  0.00  0.00    +0.000 A 
ATOM     28  C   UNL     1       7.352  14.575  20.935  0.00  0.00    +0.000 A 
ATOM     29  C   UNL     1       8.190  14.162  19.896  0.00  0.00    +0.000 A 
ATOM     30  C   UNL     1       9.448  13.606  20.161  0.00  0.00    +0.000 A 
ATOM     31  C   UNL     1       9.879  13.548  21.495  0.00  0.00    +0.000 A 
ATOM     32  C   UNL     1       9.053  14.000  22.531  0.00  0.00    +0.000 A 
ENDBRANCH  20  30
ENDBRANCH  19  25
ENDBRANCH  18  19
ENDBRANCH   1  18
TORSDOF 7
ENDMDL
MODEL 4
REMARK VINA RESULT:      -8.3      7.377      9.440
REMARK  Name = 
REMARK  9 active torsions:
REMARK  status: ('A' for Active; 'I' for Inactive)
REMARK    1  A    between atoms: C_1  and  C_2
REMARK    2  A    between atoms: C_5  and  N_6
REMARK    3  A    between atoms: C_7  and  C_8
REMARK    4  A    between atoms: C_11  and  S_12
REMARK    5  A    between atoms: S_12  and  C_13
REMARK    6  A    between atoms: C_13  and  C_14
REMARK    7  A    between atoms: N_16  and  C_17
REMARK    8  A    between atoms: C_20  and  O_21
REMARK    9  A    between atoms: O_21  and  C_22
REMARK                            x       y       z     vdW  Elec       q    Type
REMARK                         _______ _______ _______ _____ _____    ______ ____
ROOT
ATOM      1  C   UNL     1      -0.737  11.324  18.544  0.00  0.00    +0.000 C 
ATOM      2  O   UNL     1      -1.650  10.519  18.714  0.00  0.00    +0.000 OA
ATOM      3  N   UNL     1       0.616  11.058  18.658  0.00  0.00    +0.000 N 
ATOM      4  H   UNL     1       1.233  11.864  18.756  0.00  0.00    +0.000 HD
ENDROOT
BRANCH   3   5
ATOM      5  C   UNL     1       1.205   9.791  18.827  0.00  0.00    +0.000 A 
ATOM      6  C   UNL     1       1.937   9.144  17.828  0.00  0.00    +0.000 A 
ATOM      7  C   UNL     1       2.544   7.912  18.079  0.00  0.00    +0.000 A 
ATOM      8  C   UNL     1       2.430   7.319  19.334  0.00  0.00    +0.000 A 
ATOM      9  C   UNL     1       1.644   7.926  20.315  0.00  0.00    +0.000 A 
ATOM     10  C   UNL     1       1.066   9.176  20.075  0.00  0.00    +0.000 A 
BRANCH   8  11
ATOM     11  O   UNL     1       3.083   6.120  19.497  0.00  0.00    +0.000 OA
BRANCH  11  12
ATOM     12  C   UNL     1       2.354   4.955  19.590  0.00  0.00    +0.000 A 
ATOM     13  C   UNL     1       2.005   4.363  18.375  0.00  0.00    +0.000 A 
ATOM     14  C   UNL     1       1.239   3.196  18.358  0.00  0.00    +0.000 A 
ATOM     15  C   UNL     1       0.825   2.617  19.557  0.00  0.00    +0.000 A 
ATOM     16  C   UNL     1       1.210   3.180  20.772  0.00  0.00    +0.000 A 
ATOM     17  C   UNL     1       1.999   4.330  20.790  0.00  0.00    +0.000 A 
ENDBRANCH  11  12
ENDBRANCH   8  11
ENDBRANCH   3   5
BRANCH   1  18
ATOM     18  C   UNL     1      -1.037  12.767  18.185  0.00  0.00    +0.000 C 
BRANCH  18  19
ATOM     19  S   UNL     1      -0.335  13.884  19.415  0.00  0.00    +0.000 S 
BRANCH  19  25
ATOM     20  N   UNL     1      -2.071  13.043  21.442  0.00  0.00    +0.000 N 
ATOM     21  C   UNL     1      -1.878  12.328  22.630  0.00  0.00    +0.000 A 
ATOM     22  C   UNL     1      -2.867  12.102  23.714  0.00  0.00    +0.000 C 
ATOM     23  N   UNL     1      -0.615  11.962  22.728  0.00  0.00    +0.000 NA
ATOM     24  N   UNL     1       0.069  12.466  21.662  0.00  0.00    +0.000 NA
ATOM     25  C   UNL     1      -0.781  13.139  20.917  0.00  0.00    +0.000 A 
BRANCH  20  30
ATOM     26  C   UNL     1      -7.242  14.748  19.598  0.00  0.00    +0.000 C 
ATOM     27  C   UNL     1      -5.854  14.326  19.980  0.00  0.00    +0.000 A 
ATOM     28  C   UNL     1      -5.417  13.021  19.759  0.00  0.00    +0.000 A 
ATOM     29  C   UNL     1      -4.147  12.617  20.179  0.00  0.00    +0.000 A 
ATOM     30  C   UNL     1      -3.304  13.493  20.875  0.00  0.00    +0.000 A 
ATOM     31  C   UNL     1      -3.735  14.813  21.069  0.00  0.00    +0.000 A 
ATOM     32  C   UNL     1      -4.992  15.227  20.611  0.00  0.00    +0.000 A 
ENDBRANCH  20  30
ENDBRANCH  19  25
ENDBRANCH  18  19
ENDBRANCH   1  18
TORSDOF 7
ENDMDL
MODEL 5
REMARK VINA RESULT:      -8.2      1.145      2.135
REMARK  Name = 
REMARK  9 active torsions:
REMARK  status: ('A' for Active; 'I' for Inactive)
REMARK    1  A    between atoms: C_1  and  C_2
REMARK    2  A    between atoms: C_5  and  N_6
REMARK    3  A    between atoms: C_7  and  C_8
REMARK    4  A    between atoms: C_11  and  S_12
REMARK    5  A    between atoms: S_12  and  C_13
REMARK    6  A    between atoms: C_13  and  C_14
REMARK    7  A    between atoms: N_16  and  C_17
REMARK    8  A    between atoms: C_20  and  O_21
REMARK    9  A    between atoms: O_21  and  C_22
REMARK                            x       y       z     vdW  Elec       q    Type
REMARK                         _______ _______ _______ _____ _____    ______ ____
ROOT
ATOM      1  C   UNL     1       7.982   8.273  17.910  0.00  0.00    +0.000 C 
ATOM      2  O   UNL     1       8.465   7.560  18.787  0.00  0.00    +0.000 OA
ATOM      3  N   UNL     1       6.923   7.944  17.083  0.00  0.00    +0.000 N 
ATOM      4  H   UNL     1       6.809   8.507  16.240  0.00  0.00    +0.000 HD
ENDROOT
BRANCH   3   5
ATOM      5  C   UNL     1       6.099   6.808  17.195  0.00  0.00    +0.000 A 
ATOM      6  C   UNL     1       4.720   6.878  17.411  0.00  0.00    +0.000 A 
ATOM      7  C   UNL     1       3.951   5.713  17.456  0.00  0.00    +0.000 A 
ATOM      8  C   UNL     1       4.552   4.470  17.280  0.00  0.00    +0.000 A 
ATOM      9  C   UNL     1       5.938   4.388  17.133  0.00  0.00    +0.000 A 
ATOM     10  C   UNL     1       6.704   5.555  17.052  0.00  0.00    +0.000 A 
BRANCH   8  11
ATOM     11  O   UNL     1       3.712   3.382  17.315  0.00  0.00    +0.000 OA
BRANCH  11  12
ATOM     12  C   UNL     1       2.894   3.187  18.405  0.00  0.00    +0.000 A 
ATOM     13  C   UNL     1       3.549   2.988  19.623  0.00  0.00    +0.000 A 
ATOM     14  C   UNL     1       2.812   2.751  20.784  0.00  0.00    +0.000 A 
ATOM     15  C   UNL     1       1.419   2.715  20.731  0.00  0.00    +0.000 A 
ATOM     16  C   UNL     1       0.762   2.958  19.526  0.00  0.00    +0.000 A 
ATOM     17  C   UNL     1       1.497   3.225  18.371  0.00  0.00    +0.000 A 
ENDBRANCH  11  12
ENDBRANCH   8  11
ENDBRANCH   3   5
BRANCH   1  18
ATOM     18  C   UNL     1       8.550   9.652  17.637  0.00  0.00    +0.000 C 
BRANCH  18  19
ATOM     19  S   UNL     1       9.222  10.373  19.148  0.00  0.00    +0.000 S 
BRANCH  19  25
ATOM     20  N   UNL     1      10.114  13.023  19.054  0.00  0.00    +0.000 N 
ATOM     21  C   UNL     1      11.061  13.686  18.264  0.00  0.00    +0.000 A 
ATOM     22  C   UNL     1      11.311  15.148  18.197  0.00  0.00    +0.000 C 
ATOM     23  N   UNL     1      11.652  12.823  17.460  0.00  0.00    +0.000 NA
ATOM     24  N   UNL     1      11.084  11.597  17.645  0.00  0.00    +0.000 NA
ATOM     25  C   UNL     1      10.147  11.718  18.559  0.00  0.00    +0.000 A 
BRANCH  20  30
ATOM     26  C   UNL     1       7.299  15.567  23.373  0.00  0.00    +0.000 C 
ATOM     27  C   UNL     1       7.983  14.810  22.274  0.00  0.00    +0.000 A 
ATOM     28  C   UNL     1       9.185  14.141  22.506  0.00  0.00    +0.000 A 
ATOM     29  C   UNL     1       9.852  13.496  21.461  0.00  0.00    +0.000 A 
ATOM     30  C   UNL     1       9.361  13.546  20.151  0.00  0.00    +0.000 A 
ATOM     31  C   UNL     1       8.137  14.194  19.926  0.00  0.00    +0.000 A 
ATOM     32  C   UNL     1       7.450  14.806  20.982  0.00  0.00    +0.000 A 
ENDBRANCH  20  30
ENDBRANCH  19  25
ENDBRANCH  18  19
ENDBRANCH   1  18
TORSDOF 7
ENDMDL
MODEL 6
REMARK VINA RESULT:      -8.2      7.895     10.265
REMARK  Name = 
REMARK  9 active torsions:
REMARK  status: ('A' for Active; 'I' for Inactive)
REMARK    1  A    between atoms: C_1  and  C_2
REMARK    2  A    between atoms: C_5  and  N_6
REMARK    3  A    between atoms: C_7  and  C_8
REMARK    4  A    between atoms: C_11  and  S_12
REMARK    5  A    between atoms: S_12  and  C_13
REMARK    6  A    between atoms: C_13  and  C_14
REMARK    7  A    between atoms: N_16  and  C_17
REMARK    8  A    between atoms: C_20  and  O_21
REMARK    9  A    between atoms: O_21  and  C_22
REMARK                            x       y       z     vdW  Elec       q    Type
REMARK                         _______ _______ _______ _____ _____    ______ ____
ROOT
ATOM      1  C   UNL     1       0.202  11.679  20.688  0.00  0.00    +0.000 C 
ATOM      2  O   UNL     1       1.261  12.237  20.414  0.00  0.00    +0.000 OA
ATOM      3  N   UNL     1      -0.159  10.393  20.325  0.00  0.00    +0.000 N 
ATOM      4  H   UNL     1      -1.151  10.163  20.383  0.00  0.00    +0.000 HD
ENDROOT
BRANCH   3   5
ATOM      5  C   UNL     1       0.674   9.431  19.723  0.00  0.00    +0.000 A 
ATOM      6  C   UNL     1       0.974   9.421  18.359  0.00  0.00    +0.000 A 
ATOM      7  C   UNL     1       1.854   8.472  17.834  0.00  0.00    +0.000 A 
ATOM      8  C   UNL     1       2.445   7.529  18.671  0.00  0.00    +0.000 A 
ATOM      9  C   UNL     1       2.097   7.489  20.022  0.00  0.00    +0.000 A 
ATOM     10  C   UNL     1       1.244   8.462  20.554  0.00  0.00    +0.000 A 
BRANCH   8  11
ATOM     11  O   UNL     1       3.317   6.651  18.071  0.00  0.00    +0.000 OA
BRANCH  11  12
ATOM     12  C   UNL     1       3.113   5.295  18.197  0.00  0.00    +0.000 A 
ATOM     13  C   UNL     1       4.085   4.604  18.923  0.00  0.00    +0.000 A 
ATOM     14  C   UNL     1       3.989   3.220  19.084  0.00  0.00    +0.000 A 
ATOM     15  C   UNL     1       2.918   2.527  18.521  0.00  0.00    +0.000 A 
ATOM     16  C   UNL     1       1.923   3.219  17.834  0.00  0.00    +0.000 A 
ATOM     17  C   UNL     1       2.004   4.605  17.698  0.00  0.00    +0.000 A 
ENDBRANCH  11  12
ENDBRANCH   8  11
ENDBRANCH   3   5
BRANCH   1  18
ATOM     18  C   UNL     1      -0.869  12.401  21.482  0.00  0.00    +0.000 C 
BRANCH  18  19
ATOM     19  S   UNL     1      -1.854  13.459  20.403  0.00  0.00    +0.000 S 
BRANCH  19  25
ATOM     20  N   UNL     1      -4.185  12.088  19.686  0.00  0.00    +0.000 N 
ATOM     21  C   UNL     1      -5.382  11.818  20.361  0.00  0.00    +0.000 A 
ATOM     22  C   UNL     1      -6.620  11.228  19.794  0.00  0.00    +0.000 C 
ATOM     23  N   UNL     1      -5.312  12.285  21.593  0.00  0.00    +0.000 NA
ATOM     24  N   UNL     1      -4.116  12.919  21.751  0.00  0.00    +0.000 NA
ATOM     25  C   UNL     1      -3.462  12.840  20.613  0.00  0.00    +0.000 A 
BRANCH  20  30
ATOM     26  C   UNL     1      -2.853   9.860  14.557  0.00  0.00    +0.000 C 
ATOM     27  C   UNL     1      -3.133  10.525  15.872  0.00  0.00    +0.000 A 
ATOM     28  C   UNL     1      -2.324  10.285  16.981  0.00  0.00    +0.000 A 
ATOM     29  C   UNL     1      -2.631  10.854  18.221  0.00  0.00    +0.000 A 
ATOM     30  C   UNL     1      -3.782  11.633  18.392  0.00  0.00    +0.000 A 
ATOM     31  C   UNL     1      -4.578  11.896  17.267  0.00  0.00    +0.000 A 
ATOM     32  C   UNL     1      -4.246  11.359  16.017  0.00  0.00    +0.000 A 
ENDBRANCH  20  30
ENDBRANCH  19  25
ENDBRANCH  18  19
ENDBRANCH   1  18
TORSDOF 7
ENDMDL
MODEL 7
REMARK VINA RESULT:      -8.1      8.121     10.403
REMARK  Name = 
REMARK  9 active torsions:
REMARK  status: ('A' for Active; 'I' for Inactive)
REMARK    1  A    between atoms: C_1  and  C_2
REMARK    2  A    between atoms: C_5  and  N_6
REMARK    3  A    between atoms: C_7  and  C_8
REMARK    4  A    between atoms: C_11  and  S_12
REMARK    5  A    between atoms: S_12  and  C_13
REMARK    6  A    between atoms: C_13  and  C_14
REMARK    7  A    between atoms: N_16  and  C_17
REMARK    8  A    between atoms: C_20  and  O_21
REMARK    9  A    between atoms: O_21  and  C_22
REMARK                            x       y       z     vdW  Elec       q    Type
REMARK                         _______ _______ _______ _____ _____    ______ ____
ROOT
ATOM      1  C   UNL     1       0.581  12.176  19.370  0.00  0.00    +0.000 C 
ATOM      2  O   UNL     1       1.587  12.403  20.038  0.00  0.00    +0.000 OA
ATOM      3  N   UNL     1       0.261  10.975  18.762  0.00  0.00    +0.000 N 
ATOM      4  H   UNL     1      -0.449  11.008  18.030  0.00  0.00    +0.000 HD
ENDROOT
BRANCH   3   5
ATOM      5  C   UNL     1       0.934   9.750  18.928  0.00  0.00    +0.000 A 
ATOM      6  C   UNL     1       1.637   9.114  17.903  0.00  0.00    +0.000 A 
ATOM      7  C   UNL     1       2.331   7.927  18.149  0.00  0.00    +0.000 A 
ATOM      8  C   UNL     1       2.334   7.371  19.425  0.00  0.00    +0.000 A 
ATOM      9  C   UNL     1       1.578   7.964  20.439  0.00  0.00    +0.000 A 
ATOM     10  C   UNL     1       0.912   9.170  20.201  0.00  0.00    +0.000 A 
BRANCH   8  11
ATOM     11  O   UNL     1       3.066   6.217  19.580  0.00  0.00    +0.000 OA
BRANCH  11  12
ATOM     12  C   UNL     1       2.416   5.020  19.779  0.00  0.00    +0.000 A 
ATOM     13  C   UNL     1       1.974   4.374  18.622  0.00  0.00    +0.000 A 
ATOM     14  C   UNL     1       1.276   3.169  18.715  0.00  0.00    +0.000 A 
ATOM     15  C   UNL     1       1.021   2.605  19.965  0.00  0.00    +0.000 A 
ATOM     16  C   UNL     1       1.501   3.224  21.118  0.00  0.00    +0.000 A 
ATOM     17  C   UNL     1       2.224   4.413  21.024  0.00  0.00    +0.000 A 
ENDBRANCH  11  12
ENDBRANCH   8  11
ENDBRANCH   3   5
BRANCH   1  18
ATOM     18  C   UNL     1      -0.448  13.263  19.129  0.00  0.00    +0.000 C 
BRANCH  18  19
ATOM     19  S   UNL     1      -1.829  13.095  20.277  0.00  0.00    +0.000 S 
BRANCH  19  25
ATOM     20  N   UNL     1      -4.417  12.360  19.509  0.00  0.00    +0.000 N 
ATOM     21  C   UNL     1      -4.919  11.585  18.457  0.00  0.00    +0.000 A 
ATOM     22  C   UNL     1      -6.317  11.123  18.268  0.00  0.00    +0.000 C 
ATOM     23  N   UNL     1      -3.927  11.197  17.679  0.00  0.00    +0.000 NA
ATOM     24  N   UNL     1      -2.755  11.642  18.214  0.00  0.00    +0.000 NA
ATOM     25  C   UNL     1      -3.036  12.298  19.318  0.00  0.00    +0.000 A 
BRANCH  20  30
ATOM     26  C   UNL     1      -6.943  15.511  23.601  0.00  0.00    +0.000 C 
ATOM     27  C   UNL     1      -6.383  14.651  22.508  0.00  0.00    +0.000 A 
ATOM     28  C   UNL     1      -6.024  13.326  22.752  0.00  0.00    +0.000 A 
ATOM     29  C   UNL     1      -5.440  12.551  21.747  0.00  0.00    +0.000 A 
ATOM     30  C   UNL     1      -5.153  13.097  20.489  0.00  0.00    +0.000 A 
ATOM     31  C   UNL     1      -5.542  14.421  20.237  0.00  0.00    +0.000 A 
ATOM     32  C   UNL     1      -6.166  15.183  21.233  0.00  0.00    +0.000 A 
ENDBRANCH  20  30
ENDBRANCH  19  25
ENDBRANCH  18  19
ENDBRANCH   1  18
TORSDOF 7
ENDMDL
MODEL 8
REMARK VINA RESULT:      -8.0      7.706      9.689
REMARK  Name = 
REMARK  9 active torsions:
REMARK  status: ('A' for Active; 'I' for Inactive)
REMARK    1  A    between atoms: C_1  and  C_2
REMARK    2  A    between atoms: C_5  and  N_6
REMARK    3  A    between atoms: C_7  and  C_8
REMARK    4  A    between atoms: C_11  and  S_12
REMARK    5  A    between atoms: S_12  and  C_13
REMARK    6  A    between atoms: C_13  and  C_14
REMARK    7  A    between atoms: N_16  and  C_17
REMARK    8  A    between atoms: C_20  and  O_21
REMARK    9  A    between atoms: O_21  and  C_22
REMARK                            x       y       z     vdW  Elec       q    Type
REMARK                         _______ _______ _______ _____ _____    ______ ____
ROOT
ATOM      1  C   UNL     1       0.817  12.505  19.160  0.00  0.00    +0.000 C 
ATOM      2  O   UNL     1       2.010  12.724  19.355  0.00  0.00    +0.000 OA
ATOM      3  N   UNL     1       0.244  11.267  18.926  0.00  0.00    +0.000 N 
ATOM      4  H   UNL     1      -0.691  11.266  18.518  0.00  0.00    +0.000 HD
ENDROOT
BRANCH   3   5
ATOM      5  C   UNL     1       0.884  10.018  19.030  0.00  0.00    +0.000 A 
ATOM      6  C   UNL     1       1.512   9.384  17.955  0.00  0.00    +0.000 A 
ATOM      7  C   UNL     1       2.179   8.171  18.140  0.00  0.00    +0.000 A 
ATOM      8  C   UNL     1       2.229   7.585  19.402  0.00  0.00    +0.000 A 
ATOM      9  C   UNL     1       1.546   8.177  20.465  0.00  0.00    +0.000 A 
ATOM     10  C   UNL     1       0.909   9.409  20.289  0.00  0.00    +0.000 A 
BRANCH   8  11
ATOM     11  O   UNL     1       2.930   6.405  19.493  0.00  0.00    +0.000 OA
BRANCH  11  12
ATOM     12  C   UNL     1       2.263   5.206  19.377  0.00  0.00    +0.000 A 
ATOM     13  C   UNL     1       1.684   4.722  20.552  0.00  0.00    +0.000 A 
ATOM     14  C   UNL     1       1.011   3.499  20.549  0.00  0.00    +0.000 A 
ATOM     15  C   UNL     1       0.913   2.760  19.371  0.00  0.00    +0.000 A 
ATOM     16  C   UNL     1       1.450   3.262  18.187  0.00  0.00    +0.000 A 
ATOM     17  C   UNL     1       2.097   4.498  18.183  0.00  0.00    +0.000 A 
ENDBRANCH  11  12
ENDBRANCH   8  11
ENDBRANCH   3   5
BRANCH   1  18
ATOM     18  C   UNL     1      -0.185  13.643  19.144  0.00  0.00    +0.000 C 
BRANCH  18  19
ATOM     19  S   UNL     1      -1.552  13.301  20.270  0.00  0.00    +0.000 S 
BRANCH  19  25
ATOM     20  N   UNL     1      -1.881  14.363  22.837  0.00  0.00    +0.000 N 
ATOM     21  C   UNL     1      -1.019  15.031  23.714  0.00  0.00    +0.000 A 
ATOM     22  C   UNL     1      -1.376  15.705  24.987  0.00  0.00    +0.000 C 
ATOM     23  N   UNL     1       0.189  15.094  23.187  0.00  0.00    +0.000 NA
ATOM     24  N   UNL     1       0.151  14.536  21.944  0.00  0.00    +0.000 NA
ATOM     25  C   UNL     1      -1.081  14.136  21.717  0.00  0.00    +0.000 A 
BRANCH  20  30
ATOM     26  C   UNL     1      -7.320  13.038  24.149  0.00  0.00    +0.000 C 
ATOM     27  C   UNL     1      -5.904  13.305  23.731  0.00  0.00    +0.000 A 
ATOM     28  C   UNL     1      -4.845  12.598  24.298  0.00  0.00    +0.000 A 
ATOM     29  C   UNL     1      -3.525  12.900  23.954  0.00  0.00    +0.000 A 
ATOM     30  C   UNL     1      -3.230  13.948  23.074  0.00  0.00    +0.000 A 
ATOM     31  C   UNL     1      -4.298  14.638  22.483  0.00  0.00    +0.000 A 
ATOM     32  C   UNL     1      -5.622  14.307  22.798  0.00  0.00    +0.000 A 
ENDBRANCH  20  30
ENDBRANCH  19  25
ENDBRANCH  18  19
ENDBRANCH   1  18
TORSDOF 7
ENDMDL
MODEL 9
REMARK VINA RESULT:      -8.0      7.972      9.923
REMARK  Name = 
REMARK  9 active torsions:
REMARK  status: ('A' for Active; 'I' for Inactive)
REMARK    1  A    between atoms: C_1  and  C_2
REMARK    2  A    between atoms: C_5  and  N_6
REMARK    3  A    between atoms: C_7  and  C_8
REMARK    4  A    between atoms: C_11  and  S_12
REMARK    5  A    between atoms: S_12  and  C_13
REMARK    6  A    between atoms: C_13  and  C_14
REMARK    7  A    between atoms: N_16  and  C_17
REMARK    8  A    between atoms: C_20  and  O_21
REMARK    9  A    between atoms: O_21  and  C_22
REMARK                            x       y       z     vdW  Elec       q    Type
REMARK                         _______ _______ _______ _____ _____    ______ ____
ROOT
ATOM      1  C   UNL     1       0.644  12.553  19.490  0.00  0.00    +0.000 C 
ATOM      2  O   UNL     1       1.802  12.794  19.156  0.00  0.00    +0.000 OA
ATOM      3  N   UNL     1       0.066  11.299  19.582  0.00  0.00    +0.000 N 
ATOM      4  H   UNL     1      -0.953  11.265  19.604  0.00  0.00    +0.000 HD
ENDROOT
BRANCH   3   5
ATOM      5  C   UNL     1       0.733  10.064  19.473  0.00  0.00    +0.000 A 
ATOM      6  C   UNL     1       1.281   9.589  18.279  0.00  0.00    +0.000 A 
ATOM      7  C   UNL     1       1.980   8.380  18.252  0.00  0.00    +0.000 A 
ATOM      8  C   UNL     1       2.142   7.639  19.420  0.00  0.00    +0.000 A 
ATOM      9  C   UNL     1       1.538   8.073  20.602  0.00  0.00    +0.000 A 
ATOM     10  C   UNL     1       0.869   9.300  20.637  0.00  0.00    +0.000 A 
BRANCH   8  11
ATOM     11  O   UNL     1       2.866   6.476  19.302  0.00  0.00    +0.000 OA
BRANCH  11  12
ATOM     12  C   UNL     1       2.230   5.262  19.428  0.00  0.00    +0.000 A 
ATOM     13  C   UNL     1       2.068   4.540  18.244  0.00  0.00    +0.000 A 
ATOM     14  C   UNL     1       1.408   3.310  18.257  0.00  0.00    +0.000 A 
ATOM     15  C   UNL     1       0.911   2.799  19.455  0.00  0.00    +0.000 A 
ATOM     16  C   UNL     1       1.110   3.495  20.646  0.00  0.00    +0.000 A 
ATOM     17  C   UNL     1       1.796   4.710  20.637  0.00  0.00    +0.000 A 
ENDBRANCH  11  12
ENDBRANCH   8  11
ENDBRANCH   3   5
BRANCH   1  18
ATOM     18  C   UNL     1      -0.311  13.679  19.836  0.00  0.00    +0.000 C 
BRANCH  18  19
ATOM     19  S   UNL     1      -1.535  13.127  21.040  0.00  0.00    +0.000 S 
BRANCH  19  25
ATOM     20  N   UNL     1      -2.112  14.470  23.425  0.00  0.00    +0.000 N 
ATOM     21  C   UNL     1      -1.341  15.254  24.292  0.00  0.00    +0.000 A 
ATOM     22  C   UNL     1      -1.822  16.063  25.440  0.00  0.00    +0.000 C 
ATOM     23  N   UNL     1      -0.091  15.282  23.872  0.00  0.00    +0.000 NA
ATOM     24  N   UNL     1      -0.008  14.583  22.704  0.00  0.00    +0.000 NA
ATOM     25  C   UNL     1      -1.209  14.134  22.415  0.00  0.00    +0.000 A 
BRANCH  20  30
ATOM     26  C   UNL     1      -7.501  12.487  23.699  0.00  0.00    +0.000 C 
ATOM     27  C   UNL     1      -6.121  13.074  23.708  0.00  0.00    +0.000 A 
ATOM     28  C   UNL     1      -5.817  14.203  22.949  0.00  0.00    +0.000 A 
ATOM     29  C   UNL     1      -4.513  14.703  22.909  0.00  0.00    +0.000 A 
ATOM     30  C   UNL     1      -3.471  14.057  23.585  0.00  0.00    +0.000 A 
ATOM     31  C   UNL     1      -3.785  12.939  24.372  0.00  0.00    +0.000 A 
ATOM     32  C   UNL     1      -5.100  12.463  24.443  0.00  0.00    +0.000 A 
ENDBRANCH  20  30
ENDBRANCH  19  25
ENDBRANCH  18  19
ENDBRANCH   1  18
TORSDOF 7
ENDMDL
