MODEL 1
REMARK VINA RESULT:      -8.7      0.000      0.000
REMARK  Name = 
REMARK  12 active torsions:
REMARK  status: ('A' for Active; 'I' for Inactive)
REMARK    1  A    between atoms: C_1  and  O_2
REMARK    2  A    between atoms: O_2  and  C_3
REMARK    3  A    between atoms: C_8  and  C_9
REMARK    4  A    between atoms: N_11  and  C_12
REMARK    5  A    between atoms: C_12  and  C_13
REMARK    6  A    between atoms: C_12  and  C_27
REMARK    7  A    between atoms: C_15  and  C_16
REMARK    8  A    between atoms: CA_18  and  C_19
REMARK    9  A    between atoms: C_19  and  OXT_21
REMARK   10  A    between atoms: C_22  and  C_23
REMARK   11  A    between atoms: C_27  and  C_28
REMARK   12  A    between atoms: C_27  and  C_29
REMARK                            x       y       z     vdW  Elec       q    Type
REMARK                         _______ _______ _______ _____ _____    ______ ____
ROOT
ATOM      1  C   UNL     1       3.718   4.558  19.685  0.00  0.00    +0.000 C 
ENDROOT
BRANCH   1   2
ATOM      2  C   UNL     1       4.984   4.646  18.833  0.00  0.00    +0.000 A 
ATOM      3  N   UNL     1       5.013   4.287  17.561  0.00  0.00    +0.000 NA
ATOM      4  C   UNL     1       6.168   4.748  16.938  0.00  0.00    +0.000 A 
ATOM      5  C   UNL     1       7.055   5.385  17.778  0.00  0.00    +0.000 A 
ATOM      6  S   UNL     1       6.468   5.320  19.393  0.00  0.00    +0.000 S 
BRANCH   4   7
ATOM      7  C   UNL     1       6.381   4.584  15.454  0.00  0.00    +0.000 A 
ATOM      8  N   UNL     1       5.725   3.735  14.667  0.00  0.00    +0.000 NA
ATOM      9  CA  UNL     1       6.291   3.931  13.404  0.00  0.00    +0.000 A 
ATOM     10  C   UNL     1       7.259   4.907  13.484  0.00  0.00    +0.000 A 
ATOM     11  C   UNL     1       8.199   5.547  12.547  0.00  0.00    +0.000 C 
ATOM     12  O   UNL     1       7.323   5.324  14.779  0.00  0.00    +0.000 OA
BRANCH   9  13
ATOM     13  C   UNL     1       5.904   3.173  12.225  0.00  0.00    +0.000 C 
ATOM     14  O   UNL     1       4.817   3.264  11.661  0.00  0.00    +0.000 OA
BRANCH  13  15
ATOM     15  OXT UNL     1       6.888   2.350  11.781  0.00  0.00    +0.000 OA
ATOM     16  HXT UNL     1       6.469   1.591  11.322  0.00  0.00    +0.000 HD
ENDBRANCH  13  15
ENDBRANCH   9  13
ENDBRANCH   4   7
ENDBRANCH   1   2
BRANCH   1  19
ATOM     17  C   UNL     1       2.631   6.676  19.032  0.00  0.00    +0.000 C 
ATOM     18  O   UNL     1       2.686   6.270  17.866  0.00  0.00    +0.000 OA
ATOM     19  N   UNL     1       3.162   5.882  20.035  0.00  0.00    +0.000 N 
ATOM     20  H   UNL     1       3.114   6.148  21.000  0.00  0.00    +0.000 HD
BRANCH  17  26
ATOM     21  C   UNL     1       1.367   8.650  20.332  0.00  0.00    +0.000 A 
ATOM     22  C   UNL     1       0.744   9.916  20.127  0.00  0.00    +0.000 A 
ATOM     23  C   UNL     1       0.794  10.615  18.925  0.00  0.00    +0.000 A 
ATOM     24  C   UNL     1       1.495  10.067  17.876  0.00  0.00    +0.000 A 
ATOM     25  C   UNL     1       2.089   8.812  18.039  0.00  0.00    +0.000 A 
ATOM     26  C   UNL     1       2.029   8.048  19.250  0.00  0.00    +0.000 A 
BRANCH  21  28
ATOM     27  C   UNL     1       0.839   9.210  22.670  0.00  0.00    +0.000 C 
ATOM     28  O   UNL     1       1.123   8.320  21.625  0.00  0.00    +0.000 OA
ENDBRANCH  21  28
ENDBRANCH  17  26
ENDBRANCH   1  19
BRANCH   1  29
ATOM     29  C   UNL     1       2.658   3.505  19.210  0.00  0.00    +0.000 C 
ATOM     30  C   UNL     1       3.113   2.045  19.118  0.00  0.00    +0.000 C 
ATOM     31  C   UNL     1       1.368   3.581  20.041  0.00  0.00    +0.000 C 
ENDBRANCH   1  29
TORSDOF 8
ENDMDL
MODEL 2
REMARK VINA RESULT:      -8.3      0.959      1.226
REMARK  Name = 
REMARK  12 active torsions:
REMARK  status: ('A' for Active; 'I' for Inactive)
REMARK    1  A    between atoms: C_1  and  O_2
REMARK    2  A    between atoms: O_2  and  C_3
REMARK    3  A    between atoms: C_8  and  C_9
REMARK    4  A    between atoms: N_11  and  C_12
REMARK    5  A    between atoms: C_12  and  C_13
REMARK    6  A    between atoms: C_12  and  C_27
REMARK    7  A    between atoms: C_15  and  C_16
REMARK    8  A    between atoms: CA_18  and  C_19
REMARK    9  A    between atoms: C_19  and  OXT_21
REMARK   10  A    between atoms: C_22  and  C_23
REMARK   11  A    between atoms: C_27  and  C_28
REMARK   12  A    between atoms: C_27  and  C_29
REMARK                            x       y       z     vdW  Elec       q    Type
REMARK                         _______ _______ _______ _____ _____    ______ ____
ROOT
ATOM      1  C   UNL     1       3.298   4.950  19.187  0.00  0.00    +0.000 C 
ENDROOT
BRANCH   1   2
ATOM      2  C   UNL     1       4.649   4.807  18.485  0.00  0.00    +0.000 A 
ATOM      3  N   UNL     1       4.757   4.499  17.204  0.00  0.00    +0.000 NA
ATOM      4  C   UNL     1       6.047   4.733  16.741  0.00  0.00    +0.000 A 
ATOM      5  C   UNL     1       6.938   5.139  17.710  0.00  0.00    +0.000 A 
ATOM      6  S   UNL     1       6.161   5.135  19.245  0.00  0.00    +0.000 S 
BRANCH   4   7
ATOM      7  C   UNL     1       6.399   4.586  15.282  0.00  0.00    +0.000 A 
ATOM      8  N   UNL     1       5.898   3.673  14.453  0.00  0.00    +0.000 NA
ATOM      9  CA  UNL     1       6.546   3.920  13.239  0.00  0.00    +0.000 A 
ATOM     10  C   UNL     1       7.404   4.986  13.388  0.00  0.00    +0.000 A 
ATOM     11  C   UNL     1       8.351   5.712  12.525  0.00  0.00    +0.000 C 
ATOM     12  O   UNL     1       7.317   5.412  14.679  0.00  0.00    +0.000 OA
BRANCH   9  13
ATOM     13  C   UNL     1       6.334   3.123  12.041  0.00  0.00    +0.000 C 
ATOM     14  O   UNL     1       7.211   2.492  11.458  0.00  0.00    +0.000 OA
BRANCH  13  15
ATOM     15  OXT UNL     1       5.041   3.124  11.630  0.00  0.00    +0.000 OA
ATOM     16  HXT UNL     1       4.729   2.194  11.598  0.00  0.00    +0.000 HD
ENDBRANCH  13  15
ENDBRANCH   9  13
ENDBRANCH   4   7
ENDBRANCH   1   2
BRANCH   1  19
ATOM     17  C   UNL     1       2.132   6.945  20.056  0.00  0.00    +0.000 C 
ATOM     18  O   UNL     1       2.147   6.393  21.161  0.00  0.00    +0.000 OA
ATOM     19  N   UNL     1       2.672   6.272  18.972  0.00  0.00    +0.000 N 
ATOM     20  H   UNL     1       2.716   6.687  18.061  0.00  0.00    +0.000 HD
BRANCH  17  26
ATOM     21  C   UNL     1       0.655   9.030  20.866  0.00  0.00    +0.000 A 
ATOM     22  C   UNL     1       0.023  10.215  20.389  0.00  0.00    +0.000 A 
ATOM     23  C   UNL     1       0.200  10.722  19.105  0.00  0.00    +0.000 A 
ATOM     24  C   UNL     1       1.043  10.054  18.247  0.00  0.00    +0.000 A 
ATOM     25  C   UNL     1       1.650   8.870  18.677  0.00  0.00    +0.000 A 
ATOM     26  C   UNL     1       1.465   8.302  19.979  0.00  0.00    +0.000 A 
BRANCH  21  28
ATOM     27  C   UNL     1      -0.383   9.862  22.936  0.00  0.00    +0.000 C 
ATOM     28  O   UNL     1       0.263   8.893  22.157  0.00  0.00    +0.000 OA
ENDBRANCH  21  28
ENDBRANCH  17  26
ENDBRANCH   1  19
BRANCH   1  29
ATOM     29  C   UNL     1       2.326   3.730  19.033  0.00  0.00    +0.000 C 
ATOM     30  C   UNL     1       1.595   3.254  20.292  0.00  0.00    +0.000 C 
ATOM     31  C   UNL     1       1.303   3.954  17.908  0.00  0.00    +0.000 C 
ENDBRANCH   1  29
TORSDOF 8
ENDMDL
MODEL 3
REMARK VINA RESULT:      -8.2      4.184      7.268
REMARK  Name = 
REMARK  12 active torsions:
REMARK  status: ('A' for Active; 'I' for Inactive)
REMARK    1  A    between atoms: C_1  and  O_2
REMARK    2  A    between atoms: O_2  and  C_3
REMARK    3  A    between atoms: C_8  and  C_9
REMARK    4  A    between atoms: N_11  and  C_12
REMARK    5  A    between atoms: C_12  and  C_13
REMARK    6  A    between atoms: C_12  and  C_27
REMARK    7  A    between atoms: C_15  and  C_16
REMARK    8  A    between atoms: CA_18  and  C_19
REMARK    9  A    between atoms: C_19  and  OXT_21
REMARK   10  A    between atoms: C_22  and  C_23
REMARK   11  A    between atoms: C_27  and  C_28
REMARK   12  A    between atoms: C_27  and  C_29
REMARK                            x       y       z     vdW  Elec       q    Type
REMARK                         _______ _______ _______ _____ _____    ______ ____
ROOT
ATOM      1  C   UNL     1       0.115  10.354  20.298  0.00  0.00    +0.000 C 
ENDROOT
BRANCH   1   2
ATOM      2  C   UNL     1       1.150   9.417  19.676  0.00  0.00    +0.000 A 
ATOM      3  N   UNL     1       1.509   8.277  20.241  0.00  0.00    +0.000 NA
ATOM      4  C   UNL     1       2.212   7.476  19.348  0.00  0.00    +0.000 A 
ATOM      5  C   UNL     1       2.457   8.062  18.125  0.00  0.00    +0.000 A 
ATOM      6  S   UNL     1       1.875   9.681  18.135  0.00  0.00    +0.000 S 
BRANCH   4   7
ATOM      7  C   UNL     1       2.621   6.069  19.705  0.00  0.00    +0.000 A 
ATOM      8  N   UNL     1       3.688   5.430  19.233  0.00  0.00    +0.000 NA
ATOM      9  CA  UNL     1       3.620   4.165  19.824  0.00  0.00    +0.000 A 
ATOM     10  C   UNL     1       2.515   4.103  20.643  0.00  0.00    +0.000 A 
ATOM     11  C   UNL     1       1.894   3.086  21.509  0.00  0.00    +0.000 C 
ATOM     12  O   UNL     1       1.876   5.304  20.571  0.00  0.00    +0.000 OA
BRANCH   9  13
ATOM     13  C   UNL     1       4.577   3.103  19.558  0.00  0.00    +0.000 C 
ATOM     14  O   UNL     1       4.437   1.933  19.904  0.00  0.00    +0.000 OA
BRANCH  13  15
ATOM     15  OXT UNL     1       5.656   3.530  18.854  0.00  0.00    +0.000 OA
ATOM     16  HXT UNL     1       6.410   2.937  19.059  0.00  0.00    +0.000 HD
ENDBRANCH  13  15
ENDBRANCH   9  13
ENDBRANCH   4   7
ENDBRANCH   1   2
BRANCH   1  19
ATOM     17  C   UNL     1      -1.762  11.393  19.074  0.00  0.00    +0.000 C 
ATOM     18  O   UNL     1      -1.144  12.459  19.161  0.00  0.00    +0.000 OA
ATOM     19  N   UNL     1      -1.212  10.260  19.653  0.00  0.00    +0.000 N 
ATOM     20  H   UNL     1      -1.654   9.364  19.582  0.00  0.00    +0.000 HD
BRANCH  17  26
ATOM     21  C   UNL     1      -3.558  11.005  17.122  0.00  0.00    +0.000 A 
ATOM     22  C   UNL     1      -4.865  11.387  16.703  0.00  0.00    +0.000 A 
ATOM     23  C   UNL     1      -5.744  12.126  17.490  0.00  0.00    +0.000 A 
ATOM     24  C   UNL     1      -5.339  12.499  18.751  0.00  0.00    +0.000 A 
ATOM     25  C   UNL     1      -4.049  12.167  19.175  0.00  0.00    +0.000 A 
ATOM     26  C   UNL     1      -3.106  11.437  18.381  0.00  0.00    +0.000 A 
BRANCH  21  28
ATOM     27  C   UNL     1      -3.400  10.361  14.753  0.00  0.00    +0.000 C 
ATOM     28  O   UNL     1      -3.038  10.276  16.103  0.00  0.00    +0.000 OA
ENDBRANCH  21  28
ENDBRANCH  17  26
ENDBRANCH   1  19
BRANCH   1  29
ATOM     29  C   UNL     1       0.083  10.379  21.865  0.00  0.00    +0.000 C 
ATOM     30  C   UNL     1      -0.599  11.577  22.533  0.00  0.00    +0.000 C 
ATOM     31  C   UNL     1      -0.498   9.079  22.444  0.00  0.00    +0.000 C 
ENDBRANCH   1  29
TORSDOF 8
ENDMDL
MODEL 4
REMARK VINA RESULT:      -8.1      4.339      6.881
REMARK  Name = 
REMARK  12 active torsions:
REMARK  status: ('A' for Active; 'I' for Inactive)
REMARK    1  A    between atoms: C_1  and  O_2
REMARK    2  A    between atoms: O_2  and  C_3
REMARK    3  A    between atoms: C_8  and  C_9
REMARK    4  A    between atoms: N_11  and  C_12
REMARK    5  A    between atoms: C_12  and  C_13
REMARK    6  A    between atoms: C_12  and  C_27
REMARK    7  A    between atoms: C_15  and  C_16
REMARK    8  A    between atoms: CA_18  and  C_19
REMARK    9  A    between atoms: C_19  and  OXT_21
REMARK   10  A    between atoms: C_22  and  C_23
REMARK   11  A    between atoms: C_27  and  C_28
REMARK   12  A    between atoms: C_27  and  C_29
REMARK                            x       y       z     vdW  Elec       q    Type
REMARK                         _______ _______ _______ _____ _____    ______ ____
ROOT
ATOM      1  C   UNL     1       0.420   9.957  20.236  0.00  0.00    +0.000 C 
ENDROOT
BRANCH   1   2
ATOM      2  C   UNL     1       1.396   8.936  19.651  0.00  0.00    +0.000 A 
ATOM      3  N   UNL     1       1.631   7.768  20.222  0.00  0.00    +0.000 NA
ATOM      4  C   UNL     1       2.300   6.913  19.353  0.00  0.00    +0.000 A 
ATOM      5  C   UNL     1       2.646   7.480  18.147  0.00  0.00    +0.000 A 
ATOM      6  S   UNL     1       2.206   9.143  18.144  0.00  0.00    +0.000 S 
BRANCH   4   7
ATOM      7  C   UNL     1       2.570   5.475  19.716  0.00  0.00    +0.000 A 
ATOM      8  N   UNL     1       3.415   4.663  19.085  0.00  0.00    +0.000 NA
ATOM      9  CA  UNL     1       3.293   3.446  19.763  0.00  0.00    +0.000 A 
ATOM     10  C   UNL     1       2.385   3.584  20.788  0.00  0.00    +0.000 A 
ATOM     11  C   UNL     1       1.819   2.707  21.828  0.00  0.00    +0.000 C 
ATOM     12  O   UNL     1       1.922   4.865  20.764  0.00  0.00    +0.000 OA
BRANCH   9  13
ATOM     13  C   UNL     1       4.013   2.241  19.384  0.00  0.00    +0.000 C 
ATOM     14  O   UNL     1       3.639   1.443  18.529  0.00  0.00    +0.000 OA
BRANCH  13  15
ATOM     15  OXT UNL     1       5.177   2.087  20.064  0.00  0.00    +0.000 OA
ATOM     16  HXT UNL     1       5.824   2.737  19.715  0.00  0.00    +0.000 HD
ENDBRANCH  13  15
ENDBRANCH   9  13
ENDBRANCH   4   7
ENDBRANCH   1   2
BRANCH   1  19
ATOM     17  C   UNL     1      -1.124  11.111  18.693  0.00  0.00    +0.000 C 
ATOM     18  O   UNL     1      -0.295  12.026  18.649  0.00  0.00    +0.000 OA
ATOM     19  N   UNL     1      -0.863  10.018  19.503  0.00  0.00    +0.000 N 
ATOM     20  H   UNL     1      -1.484   9.234  19.549  0.00  0.00    +0.000 HD
BRANCH  17  26
ATOM     21  C   UNL     1      -3.701  11.679  18.222  0.00  0.00    +0.000 A 
ATOM     22  C   UNL     1      -4.717  11.563  17.229  0.00  0.00    +0.000 A 
ATOM     23  C   UNL     1      -4.477  11.138  15.926  0.00  0.00    +0.000 A 
ATOM     24  C   UNL     1      -3.188  10.826  15.565  0.00  0.00    +0.000 A 
ATOM     25  C   UNL     1      -2.177  10.898  16.528  0.00  0.00    +0.000 A 
ATOM     26  C   UNL     1      -2.391  11.299  17.886  0.00  0.00    +0.000 A 
BRANCH  21  28
ATOM     27  C   UNL     1      -5.693  12.382  19.485  0.00  0.00    +0.000 C 
ATOM     28  O   UNL     1      -4.319  12.151  19.333  0.00  0.00    +0.000 OA
ENDBRANCH  21  28
ENDBRANCH  17  26
ENDBRANCH   1  19
BRANCH   1  29
ATOM     29  C   UNL     1       0.283   9.942  21.798  0.00  0.00    +0.000 C 
ATOM     30  C   UNL     1      -0.321  11.183  22.460  0.00  0.00    +0.000 C 
ATOM     31  C   UNL     1      -0.461   8.692  22.292  0.00  0.00    +0.000 C 
ENDBRANCH   1  29
TORSDOF 8
ENDMDL
MODEL 5
REMARK VINA RESULT:      -8.0      0.919      1.709
REMARK  Name = 
REMARK  12 active torsions:
REMARK  status: ('A' for Active; 'I' for Inactive)
REMARK    1  A    between atoms: C_1  and  O_2
REMARK    2  A    between atoms: O_2  and  C_3
REMARK    3  A    between atoms: C_8  and  C_9
REMARK    4  A    between atoms: N_11  and  C_12
REMARK    5  A    between atoms: C_12  and  C_13
REMARK    6  A    between atoms: C_12  and  C_27
REMARK    7  A    between atoms: C_15  and  C_16
REMARK    8  A    between atoms: CA_18  and  C_19
REMARK    9  A    between atoms: C_19  and  OXT_21
REMARK   10  A    between atoms: C_22  and  C_23
REMARK   11  A    between atoms: C_27  and  C_28
REMARK   12  A    between atoms: C_27  and  C_29
REMARK                            x       y       z     vdW  Elec       q    Type
REMARK                         _______ _______ _______ _____ _____    ______ ____
ROOT
ATOM      1  C   UNL     1       3.813   4.314  19.706  0.00  0.00    +0.000 C 
ENDROOT
BRANCH   1   2
ATOM      2  C   UNL     1       5.043   4.563  18.832  0.00  0.00    +0.000 A 
ATOM      3  N   UNL     1       5.107   4.182  17.568  0.00  0.00    +0.000 NA
ATOM      4  C   UNL     1       6.177   4.788  16.918  0.00  0.00    +0.000 A 
ATOM      5  C   UNL     1       6.973   5.565  17.730  0.00  0.00    +0.000 A 
ATOM      6  S   UNL     1       6.422   5.455  19.355  0.00  0.00    +0.000 S 
BRANCH   4   7
ATOM      7  C   UNL     1       6.393   4.622  15.435  0.00  0.00    +0.000 A 
ATOM      8  N   UNL     1       5.738   3.772  14.648  0.00  0.00    +0.000 NA
ATOM      9  CA  UNL     1       6.307   3.965  13.385  0.00  0.00    +0.000 A 
ATOM     10  C   UNL     1       7.276   4.940  13.466  0.00  0.00    +0.000 A 
ATOM     11  C   UNL     1       8.218   5.578  12.530  0.00  0.00    +0.000 C 
ATOM     12  O   UNL     1       7.337   5.360  14.761  0.00  0.00    +0.000 OA
BRANCH   9  13
ATOM     13  C   UNL     1       5.922   3.206  12.207  0.00  0.00    +0.000 C 
ATOM     14  O   UNL     1       4.851   3.323  11.619  0.00  0.00    +0.000 OA
BRANCH  13  15
ATOM     15  OXT UNL     1       6.889   2.348  11.793  0.00  0.00    +0.000 OA
ATOM     16  HXT UNL     1       7.169   2.613  10.892  0.00  0.00    +0.000 HD
ENDBRANCH  13  15
ENDBRANCH   9  13
ENDBRANCH   4   7
ENDBRANCH   1   2
BRANCH   1  19
ATOM     17  C   UNL     1       2.476   6.363  19.370  0.00  0.00    +0.000 C 
ATOM     18  O   UNL     1       2.388   6.034  18.182  0.00  0.00    +0.000 OA
ATOM     19  N   UNL     1       3.212   5.560  20.227  0.00  0.00    +0.000 N 
ATOM     20  H   UNL     1       3.286   5.762  21.205  0.00  0.00    +0.000 HD
BRANCH  17  26
ATOM     21  C   UNL     1       1.688   8.916  19.153  0.00  0.00    +0.000 A 
ATOM     22  C   UNL     1       1.146   9.995  19.911  0.00  0.00    +0.000 A 
ATOM     23  C   UNL     1       0.682   9.866  21.216  0.00  0.00    +0.000 A 
ATOM     24  C   UNL     1       0.730   8.627  21.810  0.00  0.00    +0.000 A 
ATOM     25  C   UNL     1       1.287   7.557  21.102  0.00  0.00    +0.000 A 
ATOM     26  C   UNL     1       1.806   7.659  19.771  0.00  0.00    +0.000 A 
BRANCH  21  28
ATOM     27  C   UNL     1       2.432  10.733  17.670  0.00  0.00    +0.000 C 
ATOM     28  O   UNL     1       1.990   9.430  17.935  0.00  0.00    +0.000 OA
ENDBRANCH  21  28
ENDBRANCH  17  26
ENDBRANCH   1  19
BRANCH   1  29
ATOM     29  C   UNL     1       2.784   3.274  19.141  0.00  0.00    +0.000 C 
ATOM     30  C   UNL     1       3.328   1.902  18.734  0.00  0.00    +0.000 C 
ATOM     31  C   UNL     1       1.589   3.084  20.088  0.00  0.00    +0.000 C 
ENDBRANCH   1  29
TORSDOF 8
ENDMDL
MODEL 6
REMARK VINA RESULT:      -7.9      1.099      1.231
REMARK  Name = 
REMARK  12 active torsions:
REMARK  status: ('A' for Active; 'I' for Inactive)
REMARK    1  A    between atoms: C_1  and  O_2
REMARK    2  A    between atoms: O_2  and  C_3
REMARK    3  A    between atoms: C_8  and  C_9
REMARK    4  A    between atoms: N_11  and  C_12
REMARK    5  A    between atoms: C_12  and  C_13
REMARK    6  A    between atoms: C_12  and  C_27
REMARK    7  A    between atoms: C_15  and  C_16
REMARK    8  A    between atoms: CA_18  and  C_19
REMARK    9  A    between atoms: C_19  and  OXT_21
REMARK   10  A    between atoms: C_22  and  C_23
REMARK   11  A    between atoms: C_27  and  C_28
REMARK   12  A    between atoms: C_27  and  C_29
REMARK                            x       y       z     vdW  Elec       q    Type
REMARK                         _______ _______ _______ _____ _____    ______ ____
ROOT
ATOM      1  C   UNL     1       3.077   5.338  19.399  0.00  0.00    +0.000 C 
ENDROOT
BRANCH   1   2
ATOM      2  C   UNL     1       4.407   5.088  18.689  0.00  0.00    +0.000 A 
ATOM      3  N   UNL     1       4.480   4.744  17.415  0.00  0.00    +0.000 NA
ATOM      4  C   UNL     1       5.779   4.879  16.935  0.00  0.00    +0.000 A 
ATOM      5  C   UNL     1       6.705   5.247  17.886  0.00  0.00    +0.000 A 
ATOM      6  S   UNL     1       5.945   5.331  19.427  0.00  0.00    +0.000 S 
BRANCH   4   7
ATOM      7  C   UNL     1       6.104   4.675  15.476  0.00  0.00    +0.000 A 
ATOM      8  N   UNL     1       5.468   3.849  14.650  0.00  0.00    +0.000 NA
ATOM      9  CA  UNL     1       6.147   3.988  13.435  0.00  0.00    +0.000 A 
ATOM     10  C   UNL     1       7.160   4.909  13.582  0.00  0.00    +0.000 A 
ATOM     11  C   UNL     1       8.209   5.477  12.718  0.00  0.00    +0.000 C 
ATOM     12  O   UNL     1       7.140   5.348  14.872  0.00  0.00    +0.000 OA
BRANCH   9  13
ATOM     13  C   UNL     1       5.815   3.230  12.240  0.00  0.00    +0.000 C 
ATOM     14  O   UNL     1       4.743   3.296  11.645  0.00  0.00    +0.000 OA
BRANCH  13  15
ATOM     15  OXT UNL     1       6.835   2.440  11.817  0.00  0.00    +0.000 OA
ATOM     16  HXT UNL     1       6.451   1.672  11.343  0.00  0.00    +0.000 HD
ENDBRANCH  13  15
ENDBRANCH   9  13
ENDBRANCH   4   7
ENDBRANCH   1   2
BRANCH   1  19
ATOM     17  C   UNL     1       1.805   7.287  20.223  0.00  0.00    +0.000 C 
ATOM     18  O   UNL     1       1.515   6.600  21.209  0.00  0.00    +0.000 OA
ATOM     19  N   UNL     1       2.578   6.719  19.224  0.00  0.00    +0.000 N 
ATOM     20  H   UNL     1       2.870   7.242  18.421  0.00  0.00    +0.000 HD
BRANCH  17  26
ATOM     21  C   UNL     1       0.414   9.426  21.046  0.00  0.00    +0.000 A 
ATOM     22  C   UNL     1      -0.107  10.673  20.593  0.00  0.00    +0.000 A 
ATOM     23  C   UNL     1       0.187  11.227  19.350  0.00  0.00    +0.000 A 
ATOM     24  C   UNL     1       1.040  10.546  18.514  0.00  0.00    +0.000 A 
ATOM     25  C   UNL     1       1.540   9.305  18.919  0.00  0.00    +0.000 A 
ATOM     26  C   UNL     1       1.233   8.688  20.176  0.00  0.00    +0.000 A 
BRANCH  21  28
ATOM     27  C   UNL     1      -0.792  10.195  23.049  0.00  0.00    +0.000 C 
ATOM     28  O   UNL     1      -0.071   9.254  22.301  0.00  0.00    +0.000 OA
ENDBRANCH  21  28
ENDBRANCH  17  26
ENDBRANCH   1  19
BRANCH   1  29
ATOM     29  C   UNL     1       1.993   4.220  19.215  0.00  0.00    +0.000 C 
ATOM     30  C   UNL     1       1.686   3.772  17.783  0.00  0.00    +0.000 C 
ATOM     31  C   UNL     1       2.297   2.985  20.077  0.00  0.00    +0.000 C 
ENDBRANCH   1  29
TORSDOF 8
ENDMDL
MODEL 7
REMARK VINA RESULT:      -7.9      1.118      2.018
REMARK  Name = 
REMARK  12 active torsions:
REMARK  status: ('A' for Active; 'I' for Inactive)
REMARK    1  A    between atoms: C_1  and  O_2
REMARK    2  A    between atoms: O_2  and  C_3
REMARK    3  A    between atoms: C_8  and  C_9
REMARK    4  A    between atoms: N_11  and  C_12
REMARK    5  A    between atoms: C_12  and  C_13
REMARK    6  A    between atoms: C_12  and  C_27
REMARK    7  A    between atoms: C_15  and  C_16
REMARK    8  A    between atoms: CA_18  and  C_19
REMARK    9  A    between atoms: C_19  and  OXT_21
REMARK   10  A    between atoms: C_22  and  C_23
REMARK   11  A    between atoms: C_27  and  C_28
REMARK   12  A    between atoms: C_27  and  C_29
REMARK                            x       y       z     vdW  Elec       q    Type
REMARK                         _______ _______ _______ _____ _____    ______ ____
ROOT
ATOM      1  C   UNL     1       3.243   5.173  19.375  0.00  0.00    +0.000 C 
ENDROOT
BRANCH   1   2
ATOM      2  C   UNL     1       4.575   5.017  18.641  0.00  0.00    +0.000 A 
ATOM      3  N   UNL     1       4.650   4.658  17.371  0.00  0.00    +0.000 NA
ATOM      4  C   UNL     1       5.923   4.888  16.861  0.00  0.00    +0.000 A 
ATOM      5  C   UNL     1       6.836   5.344  17.787  0.00  0.00    +0.000 A 
ATOM      6  S   UNL     1       6.103   5.394  19.342  0.00  0.00    +0.000 S 
BRANCH   4   7
ATOM      7  C   UNL     1       6.235   4.686  15.400  0.00  0.00    +0.000 A 
ATOM      8  N   UNL     1       5.613   3.836  14.587  0.00  0.00    +0.000 NA
ATOM      9  CA  UNL     1       6.271   3.989  13.362  0.00  0.00    +0.000 A 
ATOM     10  C   UNL     1       7.257   4.942  13.490  0.00  0.00    +0.000 A 
ATOM     11  C   UNL     1       8.276   5.537  12.608  0.00  0.00    +0.000 C 
ATOM     12  O   UNL     1       7.241   5.386  14.777  0.00  0.00    +0.000 OA
BRANCH   9  13
ATOM     13  C   UNL     1       5.946   3.215  12.175  0.00  0.00    +0.000 C 
ATOM     14  O   UNL     1       4.881   3.279  11.568  0.00  0.00    +0.000 OA
BRANCH  13  15
ATOM     15  OXT UNL     1       6.964   2.409  11.777  0.00  0.00    +0.000 OA
ATOM     16  HXT UNL     1       6.827   2.188  10.831  0.00  0.00    +0.000 HD
ENDBRANCH  13  15
ENDBRANCH   9  13
ENDBRANCH   4   7
ENDBRANCH   1   2
BRANCH   1  19
ATOM     17  C   UNL     1       1.876   6.987  20.342  0.00  0.00    +0.000 C 
ATOM     18  O   UNL     1       1.558   6.188  21.229  0.00  0.00    +0.000 OA
ATOM     19  N   UNL     1       2.714   6.552  19.328  0.00  0.00    +0.000 N 
ATOM     20  H   UNL     1       3.030   7.168  18.603  0.00  0.00    +0.000 HD
BRANCH  17  26
ATOM     21  C   UNL     1       1.288   9.483  19.561  0.00  0.00    +0.000 A 
ATOM     22  C   UNL     1       0.763  10.719  20.040  0.00  0.00    +0.000 A 
ATOM     23  C   UNL     1       0.185  10.877  21.296  0.00  0.00    +0.000 A 
ATOM     24  C   UNL     1       0.098   9.780  22.121  0.00  0.00    +0.000 A 
ATOM     25  C   UNL     1       0.635   8.563  21.690  0.00  0.00    +0.000 A 
ATOM     26  C   UNL     1       1.267   8.371  20.419  0.00  0.00    +0.000 A 
BRANCH  21  28
ATOM     27  C   UNL     1       2.259  10.933  17.826  0.00  0.00    +0.000 C 
ATOM     28  O   UNL     1       1.724   9.728  18.300  0.00  0.00    +0.000 OA
ENDBRANCH  21  28
ENDBRANCH  17  26
ENDBRANCH   1  19
BRANCH   1  29
ATOM     29  C   UNL     1       2.183   4.052  19.094  0.00  0.00    +0.000 C 
ATOM     30  C   UNL     1       1.461   4.094  17.744  0.00  0.00    +0.000 C 
ATOM     31  C   UNL     1       2.768   2.648  19.312  0.00  0.00    +0.000 C 
ENDBRANCH   1  29
TORSDOF 8
ENDMDL
MODEL 8
REMARK VINA RESULT:      -7.8      1.552      1.981
REMARK  Name = 
REMARK  12 active torsions:
REMARK  status: ('A' for Active; 'I' for Inactive)
REMARK    1  A    between atoms: C_1  and  O_2
REMARK    2  A    between atoms: O_2  and  C_3
REMARK    3  A    between atoms: C_8  and  C_9
REMARK    4  A    between atoms: N_11  and  C_12
REMARK    5  A    between atoms: C_12  and  C_13
REMARK    6  A    between atoms: C_12  and  C_27
REMARK    7  A    between atoms: C_15  and  C_16
REMARK    8  A    between atoms: CA_18  and  C_19
REMARK    9  A    between atoms: C_19  and  OXT_21
REMARK   10  A    between atoms: C_22  and  C_23
REMARK   11  A    between atoms: C_27  and  C_28
REMARK   12  A    between atoms: C_27  and  C_29
REMARK                            x       y       z     vdW  Elec       q    Type
REMARK                         _______ _______ _______ _____ _____    ______ ____
ROOT
ATOM      1  C   UNL     1       2.799   5.223  19.226  0.00  0.00    +0.000 C 
ENDROOT
BRANCH   1   2
ATOM      2  C   UNL     1       4.166   4.877  18.634  0.00  0.00    +0.000 A 
ATOM      3  N   UNL     1       4.357   4.703  17.338  0.00  0.00    +0.000 NA
ATOM      4  C   UNL     1       5.713   4.707  17.029  0.00  0.00    +0.000 A 
ATOM      5  C   UNL     1       6.548   4.798  18.120  0.00  0.00    +0.000 A 
ATOM      6  S   UNL     1       5.613   4.783  19.564  0.00  0.00    +0.000 S 
BRANCH   4   7
ATOM      7  C   UNL     1       6.194   4.659  15.601  0.00  0.00    +0.000 A 
ATOM      8  N   UNL     1       7.158   5.417  15.083  0.00  0.00    +0.000 NA
ATOM      9  CA  UNL     1       7.215   5.029  13.740  0.00  0.00    +0.000 A 
ATOM     10  C   UNL     1       6.288   4.037  13.512  0.00  0.00    +0.000 A 
ATOM     11  C   UNL     1       5.853   3.240  12.352  0.00  0.00    +0.000 C 
ATOM     12  O   UNL     1       5.637   3.798  14.685  0.00  0.00    +0.000 OA
BRANCH   9  13
ATOM     13  C   UNL     1       8.112   5.633  12.769  0.00  0.00    +0.000 C 
ATOM     14  O   UNL     1       7.878   5.734  11.568  0.00  0.00    +0.000 OA
BRANCH  13  15
ATOM     15  OXT UNL     1       9.254   6.108  13.330  0.00  0.00    +0.000 OA
ATOM     16  HXT UNL     1       9.106   6.199  14.295  0.00  0.00    +0.000 HD
ENDBRANCH  13  15
ENDBRANCH   9  13
ENDBRANCH   4   7
ENDBRANCH   1   2
BRANCH   1  19
ATOM     17  C   UNL     1       1.869   7.327  20.124  0.00  0.00    +0.000 C 
ATOM     18  O   UNL     1       1.630   6.703  21.163  0.00  0.00    +0.000 OA
ATOM     19  N   UNL     1       2.442   6.649  19.060  0.00  0.00    +0.000 N 
ATOM     20  H   UNL     1       2.687   7.114  18.208  0.00  0.00    +0.000 HD
BRANCH  17  26
ATOM     21  C   UNL     1       0.966   9.668  21.067  0.00  0.00    +0.000 A 
ATOM     22  C   UNL     1       0.486  10.942  20.644  0.00  0.00    +0.000 A 
ATOM     23  C   UNL     1       0.521  11.382  19.324  0.00  0.00    +0.000 A 
ATOM     24  C   UNL     1       1.062  10.552  18.371  0.00  0.00    +0.000 A 
ATOM     25  C   UNL     1       1.510   9.283  18.751  0.00  0.00    +0.000 A 
ATOM     26  C   UNL     1       1.458   8.784  20.093  0.00  0.00    +0.000 A 
BRANCH  21  28
ATOM     27  C   UNL     1      -0.391   9.926  23.103  0.00  0.00    +0.000 C 
ATOM     28  O   UNL     1       0.791   9.632  22.411  0.00  0.00    +0.000 OA
ENDBRANCH  21  28
ENDBRANCH  17  26
ENDBRANCH   1  19
BRANCH   1  29
ATOM     29  C   UNL     1       1.645   4.214  18.896  0.00  0.00    +0.000 C 
ATOM     30  C   UNL     1       1.858   3.273  17.707  0.00  0.00    +0.000 C 
ATOM     31  C   UNL     1       1.240   3.389  20.127  0.00  0.00    +0.000 C 
ENDBRANCH   1  29
TORSDOF 8
ENDMDL
MODEL 9
REMARK VINA RESULT:      -7.8      3.991      6.571
REMARK  Name = 
REMARK  12 active torsions:
REMARK  status: ('A' for Active; 'I' for Inactive)
REMARK    1  A    between atoms: C_1  and  O_2
REMARK    2  A    between atoms: O_2  and  C_3
REMARK    3  A    between atoms: C_8  and  C_9
REMARK    4  A    between atoms: N_11  and  C_12
REMARK    5  A    between atoms: C_12  and  C_13
REMARK    6  A    between atoms: C_12  and  C_27
REMARK    7  A    between atoms: C_15  and  C_16
REMARK    8  A    between atoms: CA_18  and  C_19
REMARK    9  A    between atoms: C_19  and  OXT_21
REMARK   10  A    between atoms: C_22  and  C_23
REMARK   11  A    between atoms: C_27  and  C_28
REMARK   12  A    between atoms: C_27  and  C_29
REMARK                            x       y       z     vdW  Elec       q    Type
REMARK                         _______ _______ _______ _____ _____    ______ ____
ROOT
ATOM      1  C   UNL     1       0.153  10.032  20.540  0.00  0.00    +0.000 C 
ENDROOT
BRANCH   1   2
ATOM      2  C   UNL     1       1.178   9.354  19.630  0.00  0.00    +0.000 A 
ATOM      3  N   UNL     1       1.624   8.129  19.849  0.00  0.00    +0.000 NA
ATOM      4  C   UNL     1       2.291   7.634  18.734  0.00  0.00    +0.000 A 
ATOM      5  C   UNL     1       2.421   8.534  17.699  0.00  0.00    +0.000 A 
ATOM      6  S   UNL     1       1.775  10.056  18.174  0.00  0.00    +0.000 S 
BRANCH   4   7
ATOM      7  C   UNL     1       2.783   6.210  18.678  0.00  0.00    +0.000 A 
ATOM      8  N   UNL     1       3.886   5.749  19.263  0.00  0.00    +0.000 NA
ATOM      9  CA  UNL     1       3.928   4.399  18.900  0.00  0.00    +0.000 A 
ATOM     10  C   UNL     1       2.833   4.102  18.121  0.00  0.00    +0.000 A 
ATOM     11  C   UNL     1       2.314   2.906  17.434  0.00  0.00    +0.000 C 
ATOM     12  O   UNL     1       2.104   5.244  17.975  0.00  0.00    +0.000 OA
BRANCH   9  13
ATOM     13  C   UNL     1       5.001   3.498  19.287  0.00  0.00    +0.000 C 
ATOM     14  O   UNL     1       4.856   2.491  19.974  0.00  0.00    +0.000 OA
BRANCH  13  15
ATOM     15  OXT UNL     1       6.207   3.869  18.787  0.00  0.00    +0.000 OA
ATOM     16  HXT UNL     1       6.907   3.428  19.314  0.00  0.00    +0.000 HD
ENDBRANCH  13  15
ENDBRANCH   9  13
ENDBRANCH   4   7
ENDBRANCH   1   2
BRANCH   1  19
ATOM     17  C   UNL     1      -1.567  11.414  19.432  0.00  0.00    +0.000 C 
ATOM     18  O   UNL     1      -0.807  12.375  19.594  0.00  0.00    +0.000 OA
ATOM     19  N   UNL     1      -1.177  10.174  19.910  0.00  0.00    +0.000 N 
ATOM     20  H   UNL     1      -1.739   9.355  19.775  0.00  0.00    +0.000 HD
BRANCH  17  26
ATOM     21  C   UNL     1      -4.129  12.178  19.236  0.00  0.00    +0.000 A 
ATOM     22  C   UNL     1      -5.251  12.141  18.358  0.00  0.00    +0.000 A 
ATOM     23  C   UNL     1      -5.186  11.699  17.040  0.00  0.00    +0.000 A 
ATOM     24  C   UNL     1      -3.970  11.288  16.545  0.00  0.00    +0.000 A 
ATOM     25  C   UNL     1      -2.859  11.284  17.394  0.00  0.00    +0.000 A 
ATOM     26  C   UNL     1      -2.895  11.699  18.765  0.00  0.00    +0.000 A 
BRANCH  21  28
ATOM     27  C   UNL     1      -3.899  12.728  21.624  0.00  0.00    +0.000 C 
ATOM     28  O   UNL     1      -4.586  12.696  20.403  0.00  0.00    +0.000 OA
ENDBRANCH  21  28
ENDBRANCH  17  26
ENDBRANCH   1  19
BRANCH   1  29
ATOM     29  C   UNL     1       0.127   9.523  22.023  0.00  0.00    +0.000 C 
ATOM     30  C   UNL     1       1.474   9.371  22.735  0.00  0.00    +0.000 C 
ATOM     31  C   UNL     1      -0.816  10.364  22.897  0.00  0.00    +0.000 C 
ENDBRANCH   1  29
TORSDOF 8
ENDMDL
