MODEL 1
REMARK VINA RESULT:      -9.7      0.000      0.000
REMARK  Name = 
REMARK  8 active torsions:
REMARK  status: ('A' for Active; 'I' for Inactive)
REMARK    1  A    between atoms: C_1  and  C_2
REMARK    2  A    between atoms: C_5  and  O_6
REMARK    3  A    between atoms: C_7  and  C_8
REMARK    4  A    between atoms: C_8  and  C_9
REMARK    5  A    between atoms: C_8  and  C_21
REMARK    6  A    between atoms: C_12  and  C_13
REMARK    7  A    between atoms: C_22  and  C_23
REMARK    8  A    between atoms: C_26  and  O_27
REMARK                            x       y       z     vdW  Elec       q    Type
REMARK                         _______ _______ _______ _____ _____    ______ ____
ROOT
ATOM      1  C   UNL     1       4.470   4.912  19.034  0.00  0.00    +0.000 C 
ENDROOT
BRANCH   1   7
ATOM      2  C   UNL     1       5.151   4.181  15.785  0.00  0.00    +0.000 C 
ATOM      3  C   UNL     1       6.071   4.509  16.905  0.00  0.00    +0.000 A 
ATOM      4  N   UNL     1       7.387   4.528  16.647  0.00  0.00    +0.000 NA
ATOM      5  N   UNL     1       7.942   4.850  17.817  0.00  0.00    +0.000 N 
ATOM      6  C   UNL     1       7.038   5.070  18.817  0.00  0.00    +0.000 A 
ATOM      7  C   UNL     1       5.786   4.827  18.275  0.00  0.00    +0.000 A 
ATOM      8  H   UNL     1       8.951   4.909  17.856  0.00  0.00    +0.000 HD
BRANCH   6   9
ATOM      9  O   UNL     1       7.388   5.437  20.047  0.00  0.00    +0.000 OA
ATOM     10  H   UNL     1       8.246   5.892  20.024  0.00  0.00    +0.000 HD
ENDBRANCH   6   9
ENDBRANCH   1   7
BRANCH   1  11
ATOM     11  C   UNL     1       3.614   3.661  18.901  0.00  0.00    +0.000 A 
ATOM     12  C   UNL     1       2.344   3.547  18.247  0.00  0.00    +0.000 A 
ATOM     13  C   UNL     1       1.556   4.579  17.525  0.00  0.00    +0.000 C 
ATOM     14  N   UNL     1       1.858   2.300  18.298  0.00  0.00    +0.000 NA
ATOM     15  N   UNL     1       2.800   1.615  18.957  0.00  0.00    +0.000 N 
ATOM     16  C   UNL     1       3.891   2.364  19.303  0.00  0.00    +0.000 A 
ATOM     17  H   UNL     1       2.639   0.628  19.115  0.00  0.00    +0.000 HD
BRANCH  16  18
ATOM     18  O   UNL     1       4.965   1.846  19.890  0.00  0.00    +0.000 OA
ATOM     19  H   UNL     1       5.085   2.232  20.774  0.00  0.00    +0.000 HD
ENDBRANCH  16  18
ENDBRANCH   1  11
BRANCH   1  20
ATOM     20  C   UNL     1       3.663   6.145  18.725  0.00  0.00    +0.000 A 
ATOM     21  C   UNL     1       3.561   6.931  17.594  0.00  0.00    +0.000 A 
ATOM     22  C   UNL     1       2.666   7.973  17.906  0.00  0.00    +0.000 A 
ATOM     23  C   UNL     1       2.240   7.769  19.205  0.00  0.00    +0.000 A 
ATOM     24  O   UNL     1       2.844   6.645  19.708  0.00  0.00    +0.000 OA
BRANCH  23  25
ATOM     25  C   UNL     1       1.338   8.519  20.080  0.00  0.00    +0.000 A 
ATOM     26  C   UNL     1       0.684   9.663  19.578  0.00  0.00    +0.000 A 
ATOM     27  C   UNL     1      -0.145  10.441  20.389  0.00  0.00    +0.000 A 
ATOM     28  C   UNL     1      -0.329  10.079  21.714  0.00  0.00    +0.000 A 
ATOM     29  F   UNL     1      -1.108  10.834  22.498  0.00  0.00    +0.000 F 
ATOM     30  C   UNL     1       0.287   8.947  22.234  0.00  0.00    +0.000 A 
ATOM     31  C   UNL     1       1.119   8.167  21.420  0.00  0.00    +0.000 A 
ENDBRANCH  23  25
ENDBRANCH   1  20
TORSDOF 6
ENDMDL
MODEL 2
REMARK VINA RESULT:      -9.7      0.869      1.537
REMARK  Name = 
REMARK  8 active torsions:
REMARK  status: ('A' for Active; 'I' for Inactive)
REMARK    1  A    between atoms: C_1  and  C_2
REMARK    2  A    between atoms: C_5  and  O_6
REMARK    3  A    between atoms: C_7  and  C_8
REMARK    4  A    between atoms: C_8  and  C_9
REMARK    5  A    between atoms: C_8  and  C_21
REMARK    6  A    between atoms: C_12  and  C_13
REMARK    7  A    between atoms: C_22  and  C_23
REMARK    8  A    between atoms: C_26  and  O_27
REMARK                            x       y       z     vdW  Elec       q    Type
REMARK                         _______ _______ _______ _____ _____    ______ ____
ROOT
ATOM      1  C   UNL     1       4.342   4.995  18.984  0.00  0.00    +0.000 C 
ENDROOT
BRANCH   1   7
ATOM      2  C   UNL     1       5.093   4.235  15.758  0.00  0.00    +0.000 C 
ATOM      3  C   UNL     1       5.990   4.520  16.907  0.00  0.00    +0.000 A 
ATOM      4  N   UNL     1       7.314   4.480  16.692  0.00  0.00    +0.000 NA
ATOM      5  N   UNL     1       7.844   4.776  17.880  0.00  0.00    +0.000 N 
ATOM      6  C   UNL     1       6.920   5.036  18.851  0.00  0.00    +0.000 A 
ATOM      7  C   UNL     1       5.676   4.850  18.269  0.00  0.00    +0.000 A 
ATOM      8  H   UNL     1       8.854   4.788  17.952  0.00  0.00    +0.000 HD
BRANCH   6   9
ATOM      9  O   UNL     1       7.246   5.386  20.092  0.00  0.00    +0.000 OA
ATOM     10  H   UNL     1       7.580   6.299  20.100  0.00  0.00    +0.000 HD
ENDBRANCH   6   9
ENDBRANCH   1   7
BRANCH   1  11
ATOM     11  C   UNL     1       3.420   3.799  18.792  0.00  0.00    +0.000 A 
ATOM     12  C   UNL     1       3.586   2.483  19.336  0.00  0.00    +0.000 A 
ATOM     13  C   UNL     1       4.654   1.954  20.223  0.00  0.00    +0.000 C 
ATOM     14  N   UNL     1       2.587   1.662  18.987  0.00  0.00    +0.000 NA
ATOM     15  N   UNL     1       1.782   2.431  18.245  0.00  0.00    +0.000 N 
ATOM     16  C   UNL     1       2.204   3.728  18.132  0.00  0.00    +0.000 A 
ATOM     17  H   UNL     1       0.944   2.006  17.867  0.00  0.00    +0.000 HD
BRANCH  16  18
ATOM     18  O   UNL     1       1.500   4.663  17.504  0.00  0.00    +0.000 OA
ATOM     19  H   UNL     1       2.091   5.345  17.141  0.00  0.00    +0.000 HD
ENDBRANCH  16  18
ENDBRANCH   1  11
BRANCH   1  20
ATOM     20  C   UNL     1       3.618   6.279  18.680  0.00  0.00    +0.000 A 
ATOM     21  C   UNL     1       3.651   7.130  17.592  0.00  0.00    +0.000 A 
ATOM     22  C   UNL     1       2.776   8.194  17.886  0.00  0.00    +0.000 A 
ATOM     23  C   UNL     1       2.229   7.940  19.129  0.00  0.00    +0.000 A 
ATOM     24  O   UNL     1       2.737   6.763  19.616  0.00  0.00    +0.000 OA
BRANCH  23  25
ATOM     25  C   UNL     1       1.285   8.684  19.966  0.00  0.00    +0.000 A 
ATOM     26  C   UNL     1       0.626   9.808  19.428  0.00  0.00    +0.000 A 
ATOM     27  C   UNL     1      -0.243  10.580  20.202  0.00  0.00    +0.000 A 
ATOM     28  C   UNL     1      -0.463  10.231  21.526  0.00  0.00    +0.000 A 
ATOM     29  F   UNL     1      -1.280  10.981  22.275  0.00  0.00    +0.000 F 
ATOM     30  C   UNL     1       0.158   9.118  22.080  0.00  0.00    +0.000 A 
ATOM     31  C   UNL     1       1.030   8.344  21.303  0.00  0.00    +0.000 A 
ENDBRANCH  23  25
ENDBRANCH   1  20
TORSDOF 6
ENDMDL
MODEL 3
REMARK VINA RESULT:      -9.3      1.363      2.180
REMARK  Name = 
REMARK  8 active torsions:
REMARK  status: ('A' for Active; 'I' for Inactive)
REMARK    1  A    between atoms: C_1  and  C_2
REMARK    2  A    between atoms: C_5  and  O_6
REMARK    3  A    between atoms: C_7  and  C_8
REMARK    4  A    between atoms: C_8  and  C_9
REMARK    5  A    between atoms: C_8  and  C_21
REMARK    6  A    between atoms: C_12  and  C_13
REMARK    7  A    between atoms: C_22  and  C_23
REMARK    8  A    between atoms: C_26  and  O_27
REMARK                            x       y       z     vdW  Elec       q    Type
REMARK                         _______ _______ _______ _____ _____    ______ ____
ROOT
ATOM      1  C   UNL     1       4.270   5.048  18.830  0.00  0.00    +0.000 C 
ENDROOT
BRANCH   1   7
ATOM      2  C   UNL     1       7.556   5.640  19.471  0.00  0.00    +0.000 C 
ATOM      3  C   UNL     1       6.899   5.119  18.244  0.00  0.00    +0.000 A 
ATOM      4  N   UNL     1       7.680   4.825  17.195  0.00  0.00    +0.000 NA
ATOM      5  N   UNL     1       6.826   4.386  16.268  0.00  0.00    +0.000 N 
ATOM      6  C   UNL     1       5.525   4.355  16.683  0.00  0.00    +0.000 A 
ATOM      7  C   UNL     1       5.513   4.859  17.974  0.00  0.00    +0.000 A 
ATOM      8  H   UNL     1       7.208   4.116  15.370  0.00  0.00    +0.000 HD
BRANCH   6   9
ATOM      9  O   UNL     1       4.529   3.915  15.921  0.00  0.00    +0.000 OA
ATOM     10  H   UNL     1       4.592   4.308  15.034  0.00  0.00    +0.000 HD
ENDBRANCH   6   9
ENDBRANCH   1   7
BRANCH   1  11
ATOM     11  C   UNL     1       3.306   3.873  18.762  0.00  0.00    +0.000 A 
ATOM     12  C   UNL     1       3.462   2.589  19.380  0.00  0.00    +0.000 A 
ATOM     13  C   UNL     1       4.559   2.082  20.244  0.00  0.00    +0.000 C 
ATOM     14  N   UNL     1       2.423   1.780  19.135  0.00  0.00    +0.000 NA
ATOM     15  N   UNL     1       1.602   2.527  18.388  0.00  0.00    +0.000 N 
ATOM     16  C   UNL     1       2.055   3.799  18.171  0.00  0.00    +0.000 A 
ATOM     17  H   UNL     1       0.734   2.106  18.081  0.00  0.00    +0.000 HD
BRANCH  16  18
ATOM     18  O   UNL     1       1.345   4.716  17.521  0.00  0.00    +0.000 OA
ATOM     19  H   UNL     1       0.630   4.294  17.015  0.00  0.00    +0.000 HD
ENDBRANCH  16  18
ENDBRANCH   1  11
BRANCH   1  20
ATOM     20  C   UNL     1       3.547   6.345  18.584  0.00  0.00    +0.000 A 
ATOM     21  C   UNL     1       3.562   7.232  17.526  0.00  0.00    +0.000 A 
ATOM     22  C   UNL     1       2.699   8.290  17.874  0.00  0.00    +0.000 A 
ATOM     23  C   UNL     1       2.176   7.996  19.119  0.00  0.00    +0.000 A 
ATOM     24  O   UNL     1       2.688   6.801  19.555  0.00  0.00    +0.000 OA
BRANCH  23  25
ATOM     25  C   UNL     1       1.253   8.714  20.000  0.00  0.00    +0.000 A 
ATOM     26  C   UNL     1       0.645   9.900  19.540  0.00  0.00    +0.000 A 
ATOM     27  C   UNL     1      -0.202  10.648  20.361  0.00  0.00    +0.000 A 
ATOM     28  C   UNL     1      -0.449  10.214  21.654  0.00  0.00    +0.000 A 
ATOM     29  F   UNL     1      -1.244  10.940  22.449  0.00  0.00    +0.000 F 
ATOM     30  C   UNL     1       0.122   9.040  22.131  0.00  0.00    +0.000 A 
ATOM     31  C   UNL     1       0.971   8.290  21.307  0.00  0.00    +0.000 A 
ENDBRANCH  23  25
ENDBRANCH   1  20
TORSDOF 6
ENDMDL
MODEL 4
REMARK VINA RESULT:      -9.2      0.931      1.541
REMARK  Name = 
REMARK  8 active torsions:
REMARK  status: ('A' for Active; 'I' for Inactive)
REMARK    1  A    between atoms: C_1  and  C_2
REMARK    2  A    between atoms: C_5  and  O_6
REMARK    3  A    between atoms: C_7  and  C_8
REMARK    4  A    between atoms: C_8  and  C_9
REMARK    5  A    between atoms: C_8  and  C_21
REMARK    6  A    between atoms: C_12  and  C_13
REMARK    7  A    between atoms: C_22  and  C_23
REMARK    8  A    between atoms: C_26  and  O_27
REMARK                            x       y       z     vdW  Elec       q    Type
REMARK                         _______ _______ _______ _____ _____    ______ ____
ROOT
ATOM      1  C   UNL     1       4.521   5.031  18.911  0.00  0.00    +0.000 C 
ENDROOT
BRANCH   1   7
ATOM      2  C   UNL     1       7.837   5.662  19.314  0.00  0.00    +0.000 C 
ATOM      3  C   UNL     1       7.101   5.127  18.140  0.00  0.00    +0.000 A 
ATOM      4  N   UNL     1       7.809   4.834  17.039  0.00  0.00    +0.000 NA
ATOM      5  N   UNL     1       6.896   4.380  16.178  0.00  0.00    +0.000 N 
ATOM      6  C   UNL     1       5.628   4.337  16.685  0.00  0.00    +0.000 A 
ATOM      7  C   UNL     1       5.702   4.850  17.970  0.00  0.00    +0.000 A 
ATOM      8  H   UNL     1       7.216   4.108  15.257  0.00  0.00    +0.000 HD
BRANCH   6   9
ATOM      9  O   UNL     1       4.585   3.882  15.997  0.00  0.00    +0.000 OA
ATOM     10  H   UNL     1       4.889   3.293  15.287  0.00  0.00    +0.000 HD
ENDBRANCH   6   9
ENDBRANCH   1   7
BRANCH   1  11
ATOM     11  C   UNL     1       3.638   3.796  19.017  0.00  0.00    +0.000 A 
ATOM     12  C   UNL     1       2.330   3.617  18.460  0.00  0.00    +0.000 A 
ATOM     13  C   UNL     1       1.518   4.549  17.636  0.00  0.00    +0.000 C 
ATOM     14  N   UNL     1       1.828   2.404  18.726  0.00  0.00    +0.000 NA
ATOM     15  N   UNL     1       2.795   1.802  19.427  0.00  0.00    +0.000 N 
ATOM     16  C   UNL     1       3.917   2.567  19.594  0.00  0.00    +0.000 A 
ATOM     17  H   UNL     1       2.627   0.854  19.740  0.00  0.00    +0.000 HD
BRANCH  16  18
ATOM     18  O   UNL     1       5.015   2.116  20.191  0.00  0.00    +0.000 OA
ATOM     19  H   UNL     1       4.970   1.150  20.298  0.00  0.00    +0.000 HD
ENDBRANCH  16  18
ENDBRANCH   1  11
BRANCH   1  20
ATOM     20  C   UNL     1       3.692   6.255  18.628  0.00  0.00    +0.000 A 
ATOM     21  C   UNL     1       3.570   7.057  17.511  0.00  0.00    +0.000 A 
ATOM     22  C   UNL     1       2.661   8.080  17.845  0.00  0.00    +0.000 A 
ATOM     23  C   UNL     1       2.247   7.848  19.143  0.00  0.00    +0.000 A 
ATOM     24  O   UNL     1       2.872   6.726  19.624  0.00  0.00    +0.000 OA
BRANCH  23  25
ATOM     25  C   UNL     1       1.340   8.570  20.036  0.00  0.00    +0.000 A 
ATOM     26  C   UNL     1       0.656   9.705  19.553  0.00  0.00    +0.000 A 
ATOM     27  C   UNL     1      -0.180  10.456  20.381  0.00  0.00    +0.000 A 
ATOM     28  C   UNL     1      -0.342  10.076  21.705  0.00  0.00    +0.000 A 
ATOM     29  F   UNL     1      -1.128  10.807  22.505  0.00  0.00    +0.000 F 
ATOM     30  C   UNL     1       0.303   8.953  22.206  0.00  0.00    +0.000 A 
ATOM     31  C   UNL     1       1.142   8.199  21.374  0.00  0.00    +0.000 A 
ENDBRANCH  23  25
ENDBRANCH   1  20
TORSDOF 6
ENDMDL
MODEL 5
REMARK VINA RESULT:      -9.2      0.574      1.086
REMARK  Name = 
REMARK  8 active torsions:
REMARK  status: ('A' for Active; 'I' for Inactive)
REMARK    1  A    between atoms: C_1  and  C_2
REMARK    2  A    between atoms: C_5  and  O_6
REMARK    3  A    between atoms: C_7  and  C_8
REMARK    4  A    between atoms: C_8  and  C_9
REMARK    5  A    between atoms: C_8  and  C_21
REMARK    6  A    between atoms: C_12  and  C_13
REMARK    7  A    between atoms: C_22  and  C_23
REMARK    8  A    between atoms: C_26  and  O_27
REMARK                            x       y       z     vdW  Elec       q    Type
REMARK                         _______ _______ _______ _____ _____    ______ ____
ROOT
ATOM      1  C   UNL     1       4.190   5.033  19.369  0.00  0.00    +0.000 C 
ENDROOT
BRANCH   1   7
ATOM      2  C   UNL     1       4.561   4.052  16.136  0.00  0.00    +0.000 C 
ATOM      3  C   UNL     1       5.586   4.359  17.166  0.00  0.00    +0.000 A 
ATOM      4  N   UNL     1       6.877   4.243  16.818  0.00  0.00    +0.000 NA
ATOM      5  N   UNL     1       7.543   4.581  17.923  0.00  0.00    +0.000 N 
ATOM      6  C   UNL     1       6.739   4.942  18.967  0.00  0.00    +0.000 A 
ATOM      7  C   UNL     1       5.433   4.783  18.529  0.00  0.00    +0.000 A 
ATOM      8  H   UNL     1       8.553   4.549  17.888  0.00  0.00    +0.000 HD
BRANCH   6   9
ATOM      9  O   UNL     1       7.210   5.347  20.142  0.00  0.00    +0.000 OA
ATOM     10  H   UNL     1       7.979   4.809  20.393  0.00  0.00    +0.000 HD
ENDBRANCH   6   9
ENDBRANCH   1   7
BRANCH   1  11
ATOM     11  C   UNL     1       3.245   3.841  19.420  0.00  0.00    +0.000 A 
ATOM     12  C   UNL     1       2.052   3.650  18.650  0.00  0.00    +0.000 A 
ATOM     13  C   UNL     1       1.447   4.522  17.612  0.00  0.00    +0.000 C 
ATOM     14  N   UNL     1       1.453   2.483  18.926  0.00  0.00    +0.000 NA
ATOM     15  N   UNL     1       2.249   1.922  19.844  0.00  0.00    +0.000 N 
ATOM     16  C   UNL     1       3.358   2.665  20.145  0.00  0.00    +0.000 A 
ATOM     17  H   UNL     1       1.983   1.014  20.203  0.00  0.00    +0.000 HD
BRANCH  16  18
ATOM     18  O   UNL     1       4.307   2.241  20.972  0.00  0.00    +0.000 OA
ATOM     19  H   UNL     1       5.169   2.230  20.520  0.00  0.00    +0.000 HD
ENDBRANCH  16  18
ENDBRANCH   1  11
BRANCH   1  20
ATOM     20  C   UNL     1       3.444   6.288  19.002  0.00  0.00    +0.000 A 
ATOM     21  C   UNL     1       3.397   7.037  17.843  0.00  0.00    +0.000 A 
ATOM     22  C   UNL     1       2.544   8.128  18.101  0.00  0.00    +0.000 A 
ATOM     23  C   UNL     1       2.088   7.990  19.398  0.00  0.00    +0.000 A 
ATOM     24  O   UNL     1       2.632   6.859  19.952  0.00  0.00    +0.000 OA
BRANCH  23  25
ATOM     25  C   UNL     1       1.206   8.810  20.230  0.00  0.00    +0.000 A 
ATOM     26  C   UNL     1       1.149   8.572  21.618  0.00  0.00    +0.000 A 
ATOM     27  C   UNL     1       0.285   9.293  22.445  0.00  0.00    +0.000 A 
ATOM     28  C   UNL     1      -0.531  10.265  21.887  0.00  0.00    +0.000 A 
ATOM     29  F   UNL     1      -1.374  10.944  22.674  0.00  0.00    +0.000 F 
ATOM     30  C   UNL     1      -0.486  10.536  20.525  0.00  0.00    +0.000 A 
ATOM     31  C   UNL     1       0.382   9.812  19.696  0.00  0.00    +0.000 A 
ENDBRANCH  23  25
ENDBRANCH   1  20
TORSDOF 6
ENDMDL
MODEL 6
REMARK VINA RESULT:      -9.1      1.606      2.519
REMARK  Name = 
REMARK  8 active torsions:
REMARK  status: ('A' for Active; 'I' for Inactive)
REMARK    1  A    between atoms: C_1  and  C_2
REMARK    2  A    between atoms: C_5  and  O_6
REMARK    3  A    between atoms: C_7  and  C_8
REMARK    4  A    between atoms: C_8  and  C_9
REMARK    5  A    between atoms: C_8  and  C_21
REMARK    6  A    between atoms: C_12  and  C_13
REMARK    7  A    between atoms: C_22  and  C_23
REMARK    8  A    between atoms: C_26  and  O_27
REMARK                            x       y       z     vdW  Elec       q    Type
REMARK                         _______ _______ _______ _____ _____    ______ ____
ROOT
ATOM      1  C   UNL     1       3.617   4.963  19.183  0.00  0.00    +0.000 C 
ENDROOT
BRANCH   1   7
ATOM      2  C   UNL     1       6.950   5.543  19.507  0.00  0.00    +0.000 C 
ATOM      3  C   UNL     1       6.194   4.898  18.402  0.00  0.00    +0.000 A 
ATOM      4  N   UNL     1       6.889   4.462  17.341  0.00  0.00    +0.000 NA
ATOM      5  N   UNL     1       5.960   3.939  16.539  0.00  0.00    +0.000 N 
ATOM      6  C   UNL     1       4.694   3.990  17.048  0.00  0.00    +0.000 A 
ATOM      7  C   UNL     1       4.788   4.643  18.267  0.00  0.00    +0.000 A 
ATOM      8  H   UNL     1       6.268   3.555  15.654  0.00  0.00    +0.000 HD
BRANCH   6   9
ATOM      9  O   UNL     1       3.636   3.488  16.419  0.00  0.00    +0.000 OA
ATOM     10  H   UNL     1       3.034   4.206  16.161  0.00  0.00    +0.000 HD
ENDBRANCH   6   9
ENDBRANCH   1   7
BRANCH   1  11
ATOM     11  C   UNL     1       2.536   3.891  19.179  0.00  0.00    +0.000 A 
ATOM     12  C   UNL     1       2.342   2.856  20.151  0.00  0.00    +0.000 A 
ATOM     13  C   UNL     1       3.102   2.573  21.396  0.00  0.00    +0.000 C 
ATOM     14  N   UNL     1       1.289   2.080  19.861  0.00  0.00    +0.000 NA
ATOM     15  N   UNL     1       0.800   2.610  18.734  0.00  0.00    +0.000 N 
ATOM     16  C   UNL     1       1.476   3.719  18.304  0.00  0.00    +0.000 A 
ATOM     17  H   UNL     1      -0.017   2.172  18.326  0.00  0.00    +0.000 HD
BRANCH  16  18
ATOM     18  O   UNL     1       1.094   4.432  17.250  0.00  0.00    +0.000 OA
ATOM     19  H   UNL     1       1.867   4.826  16.811  0.00  0.00    +0.000 HD
ENDBRANCH  16  18
ENDBRANCH   1  11
BRANCH   1  20
ATOM     20  C   UNL     1       3.016   6.325  18.958  0.00  0.00    +0.000 A 
ATOM     21  C   UNL     1       3.053   7.192  17.884  0.00  0.00    +0.000 A 
ATOM     22  C   UNL     1       2.327   8.338  18.265  0.00  0.00    +0.000 A 
ATOM     23  C   UNL     1       1.858   8.115  19.546  0.00  0.00    +0.000 A 
ATOM     24  O   UNL     1       2.272   6.879  19.971  0.00  0.00    +0.000 OA
BRANCH  23  25
ATOM     25  C   UNL     1       1.073   8.937  20.468  0.00  0.00    +0.000 A 
ATOM     26  C   UNL     1       1.133   8.669  21.852  0.00  0.00    +0.000 A 
ATOM     27  C   UNL     1       0.364   9.391  22.766  0.00  0.00    +0.000 A 
ATOM     28  C   UNL     1      -0.476  10.393  22.303  0.00  0.00    +0.000 A 
ATOM     29  F   UNL     1      -1.229  11.073  23.175  0.00  0.00    +0.000 F 
ATOM     30  C   UNL     1      -0.545  10.692  20.948  0.00  0.00    +0.000 A 
ATOM     31  C   UNL     1       0.228   9.968  20.031  0.00  0.00    +0.000 A 
ENDBRANCH  23  25
ENDBRANCH   1  20
TORSDOF 6
ENDMDL
MODEL 7
REMARK VINA RESULT:      -8.9      1.239      1.581
REMARK  Name = 
REMARK  8 active torsions:
REMARK  status: ('A' for Active; 'I' for Inactive)
REMARK    1  A    between atoms: C_1  and  C_2
REMARK    2  A    between atoms: C_5  and  O_6
REMARK    3  A    between atoms: C_7  and  C_8
REMARK    4  A    between atoms: C_8  and  C_9
REMARK    5  A    between atoms: C_8  and  C_21
REMARK    6  A    between atoms: C_12  and  C_13
REMARK    7  A    between atoms: C_22  and  C_23
REMARK    8  A    between atoms: C_26  and  O_27
REMARK                            x       y       z     vdW  Elec       q    Type
REMARK                         _______ _______ _______ _____ _____    ______ ____
ROOT
ATOM      1  C   UNL     1       4.252   5.560  18.896  0.00  0.00    +0.000 C 
ENDROOT
BRANCH   1   7
ATOM      2  C   UNL     1       5.058   6.517  15.736  0.00  0.00    +0.000 C 
ATOM      3  C   UNL     1       5.935   6.181  16.887  0.00  0.00    +0.000 A 
ATOM      4  N   UNL     1       7.262   6.247  16.701  0.00  0.00    +0.000 NA
ATOM      5  N   UNL     1       7.772   5.904  17.885  0.00  0.00    +0.000 N 
ATOM      6  C   UNL     1       6.831   5.648  18.842  0.00  0.00    +0.000 A 
ATOM      7  C   UNL     1       5.598   5.786  18.225  0.00  0.00    +0.000 A 
ATOM      8  H   UNL     1       8.780   5.873  17.969  0.00  0.00    +0.000 HD
BRANCH   6   9
ATOM      9  O   UNL     1       7.136   5.327  20.096  0.00  0.00    +0.000 OA
ATOM     10  H   UNL     1       6.454   5.666  20.699  0.00  0.00    +0.000 HD
ENDBRANCH   6   9
ENDBRANCH   1   7
BRANCH   1  11
ATOM     11  C   UNL     1       3.618   4.222  18.544  0.00  0.00    +0.000 A 
ATOM     12  C   UNL     1       2.378   3.696  19.035  0.00  0.00    +0.000 A 
ATOM     13  C   UNL     1       1.397   4.305  19.970  0.00  0.00    +0.000 C 
ATOM     14  N   UNL     1       2.099   2.493  18.517  0.00  0.00    +0.000 NA
ATOM     15  N   UNL     1       3.126   2.249  17.696  0.00  0.00    +0.000 N 
ATOM     16  C   UNL     1       4.041   3.264  17.636  0.00  0.00    +0.000 A 
ATOM     17  H   UNL     1       3.123   1.374  17.187  0.00  0.00    +0.000 HD
BRANCH  16  18
ATOM     18  O   UNL     1       5.088   3.245  16.818  0.00  0.00    +0.000 OA
ATOM     19  H   UNL     1       5.849   3.687  17.232  0.00  0.00    +0.000 HD
ENDBRANCH  16  18
ENDBRANCH   1  11
BRANCH   1  20
ATOM     20  C   UNL     1       3.270   6.683  18.696  0.00  0.00    +0.000 A 
ATOM     21  C   UNL     1       2.818   7.333  17.564  0.00  0.00    +0.000 A 
ATOM     22  C   UNL     1       1.920   8.327  18.000  0.00  0.00    +0.000 A 
ATOM     23  C   UNL     1       1.842   8.229  19.376  0.00  0.00    +0.000 A 
ATOM     24  O   UNL     1       2.662   7.218  19.806  0.00  0.00    +0.000 OA
BRANCH  23  25
ATOM     25  C   UNL     1       1.102   8.993  20.381  0.00  0.00    +0.000 A 
ATOM     26  C   UNL     1       1.191   8.616  21.737  0.00  0.00    +0.000 A 
ATOM     27  C   UNL     1       0.464   9.282  22.726  0.00  0.00    +0.000 A 
ATOM     28  C   UNL     1      -0.360  10.337  22.366  0.00  0.00    +0.000 A 
ATOM     29  F   UNL     1      -1.073  10.963  23.310  0.00  0.00    +0.000 F 
ATOM     30  C   UNL     1      -0.456  10.744  21.042  0.00  0.00    +0.000 A 
ATOM     31  C   UNL     1       0.274  10.076  20.050  0.00  0.00    +0.000 A 
ENDBRANCH  23  25
ENDBRANCH   1  20
TORSDOF 6
ENDMDL
MODEL 8
REMARK VINA RESULT:      -8.8      4.082      7.096
REMARK  Name = 
REMARK  8 active torsions:
REMARK  status: ('A' for Active; 'I' for Inactive)
REMARK    1  A    between atoms: C_1  and  C_2
REMARK    2  A    between atoms: C_5  and  O_6
REMARK    3  A    between atoms: C_7  and  C_8
REMARK    4  A    between atoms: C_8  and  C_9
REMARK    5  A    between atoms: C_8  and  C_21
REMARK    6  A    between atoms: C_12  and  C_13
REMARK    7  A    between atoms: C_22  and  C_23
REMARK    8  A    between atoms: C_26  and  O_27
REMARK                            x       y       z     vdW  Elec       q    Type
REMARK                         _______ _______ _______ _____ _____    ______ ____
ROOT
ATOM      1  C   UNL     1       4.347   4.623  19.260  0.00  0.00    +0.000 C 
ENDROOT
BRANCH   1   7
ATOM      2  C   UNL     1       1.541   4.140  17.404  0.00  0.00    +0.000 C 
ATOM      3  C   UNL     1       2.448   3.151  18.043  0.00  0.00    +0.000 A 
ATOM      4  N   UNL     1       2.155   1.850  17.897  0.00  0.00    +0.000 NA
ATOM      5  N   UNL     1       3.129   1.223  18.560  0.00  0.00    +0.000 N 
ATOM      6  C   UNL     1       4.059   2.063  19.105  0.00  0.00    +0.000 A 
ATOM      7  C   UNL     1       3.639   3.352  18.819  0.00  0.00    +0.000 A 
ATOM      8  H   UNL     1       3.097   0.212  18.593  0.00  0.00    +0.000 HD
BRANCH   6   9
ATOM      9  O   UNL     1       5.125   1.632  19.772  0.00  0.00    +0.000 OA
ATOM     10  H   UNL     1       4.858   1.302  20.646  0.00  0.00    +0.000 HD
ENDBRANCH   6   9
ENDBRANCH   1   7
BRANCH   1  11
ATOM     11  C   UNL     1       3.397   5.778  19.542  0.00  0.00    +0.000 A 
ATOM     12  C   UNL     1       3.140   6.912  18.703  0.00  0.00    +0.000 A 
ATOM     13  C   UNL     1       3.696   7.243  17.365  0.00  0.00    +0.000 C 
ATOM     14  N   UNL     1       2.237   7.743  19.238  0.00  0.00    +0.000 NA
ATOM     15  N   UNL     1       1.903   7.155  20.392  0.00  0.00    +0.000 N 
ATOM     16  C   UNL     1       2.528   5.958  20.606  0.00  0.00    +0.000 A 
ATOM     17  H   UNL     1       1.217   7.621  20.975  0.00  0.00    +0.000 HD
BRANCH  16  18
ATOM     18  O   UNL     1       2.268   5.185  21.655  0.00  0.00    +0.000 OA
ATOM     19  H   UNL     1       2.527   4.266  21.471  0.00  0.00    +0.000 HD
ENDBRANCH  16  18
ENDBRANCH   1  11
BRANCH   1  20
ATOM     20  C   UNL     1       5.456   5.059  18.339  0.00  0.00    +0.000 A 
ATOM     21  C   UNL     1       6.563   5.862  18.532  0.00  0.00    +0.000 A 
ATOM     22  C   UNL     1       7.230   5.934  17.293  0.00  0.00    +0.000 A 
ATOM     23  C   UNL     1       6.517   5.156  16.401  0.00  0.00    +0.000 A 
ATOM     24  O   UNL     1       5.433   4.612  17.041  0.00  0.00    +0.000 OA
BRANCH  23  25
ATOM     25  C   UNL     1       6.699   4.862  14.979  0.00  0.00    +0.000 A 
ATOM     26  C   UNL     1       5.849   3.927  14.354  0.00  0.00    +0.000 A 
ATOM     27  C   UNL     1       6.016   3.575  13.013  0.00  0.00    +0.000 A 
ATOM     28  C   UNL     1       7.039   4.160  12.282  0.00  0.00    +0.000 A 
ATOM     29  F   UNL     1       7.214   3.809  11.002  0.00  0.00    +0.000 F 
ATOM     30  C   UNL     1       7.883   5.098  12.864  0.00  0.00    +0.000 A 
ATOM     31  C   UNL     1       7.714   5.451  14.210  0.00  0.00    +0.000 A 
ENDBRANCH  23  25
ENDBRANCH   1  20
TORSDOF 6
ENDMDL
MODEL 9
REMARK VINA RESULT:      -8.8      4.097      7.061
REMARK  Name = 
REMARK  8 active torsions:
REMARK  status: ('A' for Active; 'I' for Inactive)
REMARK    1  A    between atoms: C_1  and  C_2
REMARK    2  A    between atoms: C_5  and  O_6
REMARK    3  A    between atoms: C_7  and  C_8
REMARK    4  A    between atoms: C_8  and  C_9
REMARK    5  A    between atoms: C_8  and  C_21
REMARK    6  A    between atoms: C_12  and  C_13
REMARK    7  A    between atoms: C_22  and  C_23
REMARK    8  A    between atoms: C_26  and  O_27
REMARK                            x       y       z     vdW  Elec       q    Type
REMARK                         _______ _______ _______ _____ _____    ______ ____
ROOT
ATOM      1  C   UNL     1       2.945   5.235  18.179  0.00  0.00    +0.000 C 
ENDROOT
BRANCH   1   7
ATOM      2  C   UNL     1       2.003   8.477  17.780  0.00  0.00    +0.000 C 
ATOM      3  C   UNL     1       2.075   7.646  19.009  0.00  0.00    +0.000 A 
ATOM      4  N   UNL     1       1.728   8.219  20.172  0.00  0.00    +0.000 NA
ATOM      5  N   UNL     1       1.888   7.248  21.072  0.00  0.00    +0.000 N 
ATOM      6  C   UNL     1       2.294   6.058  20.538  0.00  0.00    +0.000 A 
ATOM      7  C   UNL     1       2.463   6.275  19.180  0.00  0.00    +0.000 A 
ATOM      8  H   UNL     1       1.691   7.469  22.040  0.00  0.00    +0.000 HD
BRANCH   6   9
ATOM      9  O   UNL     1       2.473   4.958  21.264  0.00  0.00    +0.000 OA
ATOM     10  H   UNL     1       3.410   4.873  21.508  0.00  0.00    +0.000 HD
ENDBRANCH   6   9
ENDBRANCH   1   7
BRANCH   1  11
ATOM     11  C   UNL     1       3.147   3.856  18.790  0.00  0.00    +0.000 A 
ATOM     12  C   UNL     1       2.145   2.856  19.019  0.00  0.00    +0.000 A 
ATOM     13  C   UNL     1       0.692   2.886  18.711  0.00  0.00    +0.000 C 
ATOM     14  N   UNL     1       2.656   1.744  19.562  0.00  0.00    +0.000 NA
ATOM     15  N   UNL     1       3.963   2.008  19.670  0.00  0.00    +0.000 N 
ATOM     16  C   UNL     1       4.321   3.236  19.183  0.00  0.00    +0.000 A 
ATOM     17  H   UNL     1       4.556   1.289  20.064  0.00  0.00    +0.000 HD
BRANCH  16  18
ATOM     18  O   UNL     1       5.583   3.648  19.127  0.00  0.00    +0.000 OA
ATOM     19  H   UNL     1       5.665   4.538  19.511  0.00  0.00    +0.000 HD
ENDBRANCH  16  18
ENDBRANCH   1  11
BRANCH   1  20
ATOM     20  C   UNL     1       4.160   5.654  17.397  0.00  0.00    +0.000 A 
ATOM     21  C   UNL     1       5.082   6.667  17.580  0.00  0.00    +0.000 A 
ATOM     22  C   UNL     1       5.988   6.588  16.505  0.00  0.00    +0.000 A 
ATOM     23  C   UNL     1       5.598   5.518  15.721  0.00  0.00    +0.000 A 
ATOM     24  O   UNL     1       4.482   4.939  16.269  0.00  0.00    +0.000 OA
BRANCH  23  25
ATOM     25  C   UNL     1       6.125   4.961  14.475  0.00  0.00    +0.000 A 
ATOM     26  C   UNL     1       5.396   3.955  13.807  0.00  0.00    +0.000 A 
ATOM     27  C   UNL     1       5.883   3.356  12.643  0.00  0.00    +0.000 A 
ATOM     28  C   UNL     1       7.107   3.761  12.134  0.00  0.00    +0.000 A 
ATOM     29  F   UNL     1       7.584   3.174  11.030  0.00  0.00    +0.000 F 
ATOM     30  C   UNL     1       7.841   4.762  12.759  0.00  0.00    +0.000 A 
ATOM     31  C   UNL     1       7.352   5.363  13.926  0.00  0.00    +0.000 A 
ENDBRANCH  23  25
ENDBRANCH   1  20
TORSDOF 6
ENDMDL
