MODEL 1
REMARK VINA RESULT:      -8.2      0.000      0.000
REMARK  Name = 
REMARK  11 active torsions:
REMARK  status: ('A' for Active; 'I' for Inactive)
REMARK    1  A    between atoms: C_1  and  C_2
REMARK    2  A    between atoms: C_2  and  N_3
REMARK    3  A    between atoms: N_3  and  C_4
REMARK    4  A    between atoms: N_3  and  S_6
REMARK    5  A    between atoms: C_4  and  C_5
REMARK    6  A    between atoms: S_6  and  C_9
REMARK    7  A    between atoms: C_13  and  C_14
REMARK    8  A    between atoms: N_16  and  C_17
REMARK    9  A    between atoms: C_20  and  N_21
REMARK   10  A    between atoms: C_25  and  C_26
REMARK   11  A    between atoms: C_26  and  O_28
REMARK                            x       y       z     vdW  Elec       q    Type
REMARK                         _______ _______ _______ _____ _____    ______ ____
ROOT
ATOM      1  C   UNL     1       2.246   6.031  19.610  0.00  0.00    +0.000 C 
ATOM      2  O   UNL     1       1.591   5.522  20.510  0.00  0.00    +0.000 OA
ATOM      3  N   UNL     1       2.220   7.379  19.279  0.00  0.00    +0.000 N 
ATOM      4  H   UNL     1       2.468   7.633  18.321  0.00  0.00    +0.000 HD
ENDROOT
BRANCH   1   9
ATOM      5  C   UNL     1       4.827   4.817  17.124  0.00  0.00    +0.000 A 
ATOM      6  C   UNL     1       4.378   3.509  16.892  0.00  0.00    +0.000 A 
ATOM      7  C   UNL     1       3.260   3.028  17.576  0.00  0.00    +0.000 A 
ATOM      8  C   UNL     1       2.583   3.856  18.472  0.00  0.00    +0.000 A 
ATOM      9  C   UNL     1       3.030   5.166  18.695  0.00  0.00    +0.000 A 
ATOM     10  C   UNL     1       4.167   5.646  18.037  0.00  0.00    +0.000 A 
BRANCH   5  11
ATOM     11  S   UNL     1       6.060   5.528  16.060  0.00  0.00    +0.000 S 
ATOM     12  O   UNL     1       5.423   6.652  15.401  0.00  0.00    +0.000 OA
ATOM     13  O   UNL     1       6.641   4.447  15.286  0.00  0.00    +0.000 OA
BRANCH  11  14
ATOM     14  N   UNL     1       7.281   6.141  17.098  0.00  0.00    +0.000 NA
BRANCH  14  16
ATOM     15  C   UNL     1       8.174   8.451  17.537  0.00  0.00    +0.000 C 
ATOM     16  C   UNL     1       6.999   7.491  17.676  0.00  0.00    +0.000 C 
ENDBRANCH  14  16
BRANCH  14  17
ATOM     17  C   UNL     1       7.745   5.119  18.097  0.00  0.00    +0.000 C 
ATOM     18  C   UNL     1       7.674   5.599  19.539  0.00  0.00    +0.000 C 
ENDBRANCH  14  17
ENDBRANCH  11  14
ENDBRANCH   5  11
ENDBRANCH   1   9
BRANCH   3  19
ATOM     19  C   UNL     1       1.545   8.344  20.065  0.00  0.00    +0.000 A 
ATOM     20  C   UNL     1       1.463   8.172  21.454  0.00  0.00    +0.000 A 
ATOM     21  C   UNL     1       0.848   9.133  22.260  0.00  0.00    +0.000 A 
ATOM     22  C   UNL     1       0.294  10.277  21.672  0.00  0.00    +0.000 A 
ATOM     23  C   UNL     1       0.361  10.464  20.286  0.00  0.00    +0.000 A 
ATOM     24  C   UNL     1       0.987   9.497  19.483  0.00  0.00    +0.000 A 
BRANCH  22  25
ATOM     25  N   UNL     1      -0.377  11.273  22.515  0.00  0.00    +0.000 N 
ATOM     26  O   UNL     1      -1.116  10.858  23.418  0.00  0.00    +0.000 OA
ATOM     27  O   UNL     1      -0.169  12.468  22.268  0.00  0.00    +0.000 OA
ENDBRANCH  22  25
BRANCH  24  28
ATOM     28  C   UNL     1       0.953   9.724  18.019  0.00  0.00    +0.000 C 
ATOM     29  O   UNL     1       1.940   9.630  17.313  0.00  0.00    +0.000 OA
BRANCH  28  30
ATOM     30  O   UNL     1      -0.265  10.079  17.556  0.00  0.00    +0.000 OA
ATOM     31  H   UNL     1      -0.401   9.901  16.603  0.00  0.00    +0.000 HD
ENDBRANCH  28  30
ENDBRANCH  24  28
ENDBRANCH   3  19
TORSDOF 9
ENDMDL
MODEL 2
REMARK VINA RESULT:      -8.2      3.294      8.955
REMARK  Name = 
REMARK  11 active torsions:
REMARK  status: ('A' for Active; 'I' for Inactive)
REMARK    1  A    between atoms: C_1  and  C_2
REMARK    2  A    between atoms: C_2  and  N_3
REMARK    3  A    between atoms: N_3  and  C_4
REMARK    4  A    between atoms: N_3  and  S_6
REMARK    5  A    between atoms: C_4  and  C_5
REMARK    6  A    between atoms: S_6  and  C_9
REMARK    7  A    between atoms: C_13  and  C_14
REMARK    8  A    between atoms: N_16  and  C_17
REMARK    9  A    between atoms: C_20  and  N_21
REMARK   10  A    between atoms: C_25  and  C_26
REMARK   11  A    between atoms: C_26  and  O_28
REMARK                            x       y       z     vdW  Elec       q    Type
REMARK                         _______ _______ _______ _____ _____    ______ ____
ROOT
ATOM      1  C   UNL     1       2.039   8.508  18.219  0.00  0.00    +0.000 C 
ATOM      2  O   UNL     1       2.262   8.961  17.104  0.00  0.00    +0.000 OA
ATOM      3  N   UNL     1       2.540   7.305  18.698  0.00  0.00    +0.000 N 
ATOM      4  H   UNL     1       2.012   6.837  19.437  0.00  0.00    +0.000 HD
ENDROOT
BRANCH   1   9
ATOM      5  C   UNL     1      -0.818  10.660  19.451  0.00  0.00    +0.000 A 
ATOM      6  C   UNL     1      -0.669  10.530  20.840  0.00  0.00    +0.000 A 
ATOM      7  C   UNL     1       0.339   9.714  21.356  0.00  0.00    +0.000 A 
ATOM      8  C   UNL     1       1.207   9.048  20.490  0.00  0.00    +0.000 A 
ATOM      9  C   UNL     1       1.060   9.187  19.103  0.00  0.00    +0.000 A 
ATOM     10  C   UNL     1       0.033   9.978  18.576  0.00  0.00    +0.000 A 
BRANCH   5  11
ATOM     11  S   UNL     1      -1.901  11.906  18.794  0.00  0.00    +0.000 S 
ATOM     12  O   UNL     1      -1.091  12.710  17.898  0.00  0.00    +0.000 OA
ATOM     13  O   UNL     1      -2.594  12.515  19.913  0.00  0.00    +0.000 OA
BRANCH  11  14
ATOM     14  N   UNL     1      -3.065  11.069  17.853  0.00  0.00    +0.000 NA
BRANCH  14  16
ATOM     15  C   UNL     1      -5.262  12.059  17.129  0.00  0.00    +0.000 C 
ATOM     16  C   UNL     1      -4.488  11.335  18.225  0.00  0.00    +0.000 C 
ENDBRANCH  14  16
BRANCH  14  17
ATOM     17  C   UNL     1      -2.778  11.158  16.381  0.00  0.00    +0.000 C 
ATOM     18  C   UNL     1      -2.709   9.804  15.689  0.00  0.00    +0.000 C 
ENDBRANCH  14  17
ENDBRANCH  11  14
ENDBRANCH   5  11
ENDBRANCH   1   9
BRANCH   3  19
ATOM     19  C   UNL     1       3.505   6.547  17.993  0.00  0.00    +0.000 A 
ATOM     20  C   UNL     1       4.700   7.156  17.584  0.00  0.00    +0.000 A 
ATOM     21  C   UNL     1       5.692   6.419  16.932  0.00  0.00    +0.000 A 
ATOM     22  C   UNL     1       5.486   5.059  16.670  0.00  0.00    +0.000 A 
ATOM     23  C   UNL     1       4.297   4.435  17.067  0.00  0.00    +0.000 A 
ATOM     24  C   UNL     1       3.307   5.179  17.728  0.00  0.00    +0.000 A 
BRANCH  22  25
ATOM     25  N   UNL     1       6.516   4.292  15.960  0.00  0.00    +0.000 N 
ATOM     26  O   UNL     1       6.154   3.589  15.008  0.00  0.00    +0.000 OA
ATOM     27  O   UNL     1       7.683   4.389  16.361  0.00  0.00    +0.000 OA
ENDBRANCH  22  25
BRANCH  24  28
ATOM     28  C   UNL     1       2.045   4.472  18.048  0.00  0.00    +0.000 C 
ATOM     29  O   UNL     1       1.342   3.958  17.198  0.00  0.00    +0.000 OA
BRANCH  28  30
ATOM     30  O   UNL     1       1.736   4.488  19.362  0.00  0.00    +0.000 OA
ATOM     31  H   UNL     1       2.305   5.073  19.903  0.00  0.00    +0.000 HD
ENDBRANCH  28  30
ENDBRANCH  24  28
ENDBRANCH   3  19
TORSDOF 9
ENDMDL
MODEL 3
REMARK VINA RESULT:      -8.0      1.424      1.865
REMARK  Name = 
REMARK  11 active torsions:
REMARK  status: ('A' for Active; 'I' for Inactive)
REMARK    1  A    between atoms: C_1  and  C_2
REMARK    2  A    between atoms: C_2  and  N_3
REMARK    3  A    between atoms: N_3  and  C_4
REMARK    4  A    between atoms: N_3  and  S_6
REMARK    5  A    between atoms: C_4  and  C_5
REMARK    6  A    between atoms: S_6  and  C_9
REMARK    7  A    between atoms: C_13  and  C_14
REMARK    8  A    between atoms: N_16  and  C_17
REMARK    9  A    between atoms: C_20  and  N_21
REMARK   10  A    between atoms: C_25  and  C_26
REMARK   11  A    between atoms: C_26  and  O_28
REMARK                            x       y       z     vdW  Elec       q    Type
REMARK                         _______ _______ _______ _____ _____    ______ ____
ROOT
ATOM      1  C   UNL     1       2.311   6.019  19.844  0.00  0.00    +0.000 C 
ATOM      2  O   UNL     1       1.390   5.495  20.457  0.00  0.00    +0.000 OA
ATOM      3  N   UNL     1       2.441   7.384  19.629  0.00  0.00    +0.000 N 
ATOM      4  H   UNL     1       2.982   7.683  18.816  0.00  0.00    +0.000 HD
ENDROOT
BRANCH   1   9
ATOM      5  C   UNL     1       5.565   4.649  18.486  0.00  0.00    +0.000 A 
ATOM      6  C   UNL     1       5.098   3.587  17.698  0.00  0.00    +0.000 A 
ATOM      7  C   UNL     1       3.731   3.309  17.647  0.00  0.00    +0.000 A 
ATOM      8  C   UNL     1       2.834   4.101  18.364  0.00  0.00    +0.000 A 
ATOM      9  C   UNL     1       3.303   5.167  19.144  0.00  0.00    +0.000 A 
ATOM     10  C   UNL     1       4.674   5.433  19.225  0.00  0.00    +0.000 A 
BRANCH   5  11
ATOM     11  S   UNL     1       7.253   5.184  18.334  0.00  0.00    +0.000 S 
ATOM     12  O   UNL     1       8.007   4.019  17.910  0.00  0.00    +0.000 OA
ATOM     13  O   UNL     1       7.599   5.887  19.554  0.00  0.00    +0.000 OA
BRANCH  11  14
ATOM     14  N   UNL     1       7.270   6.325  17.052  0.00  0.00    +0.000 NA
BRANCH  14  16
ATOM     15  C   UNL     1       5.247   6.543  15.572  0.00  0.00    +0.000 C 
ATOM     16  C   UNL     1       6.598   5.873  15.795  0.00  0.00    +0.000 C 
ENDBRANCH  14  16
BRANCH  14  17
ATOM     17  C   UNL     1       6.878   7.701  17.509  0.00  0.00    +0.000 C 
ATOM     18  C   UNL     1       8.061   8.635  17.718  0.00  0.00    +0.000 C 
ENDBRANCH  14  17
ENDBRANCH  11  14
ENDBRANCH   5  11
ENDBRANCH   1   9
BRANCH   3  19
ATOM     19  C   UNL     1       1.596   8.337  20.246  0.00  0.00    +0.000 A 
ATOM     20  C   UNL     1       1.371   8.271  21.629  0.00  0.00    +0.000 A 
ATOM     21  C   UNL     1       0.583   9.228  22.273  0.00  0.00    +0.000 A 
ATOM     22  C   UNL     1      -0.003  10.258  21.527  0.00  0.00    +0.000 A 
ATOM     23  C   UNL     1       0.205  10.337  20.144  0.00  0.00    +0.000 A 
ATOM     24  C   UNL     1       1.004   9.376  19.505  0.00  0.00    +0.000 A 
BRANCH  22  25
ATOM     25  N   UNL     1      -0.855  11.247  22.198  0.00  0.00    +0.000 N 
ATOM     26  O   UNL     1      -0.879  11.239  23.436  0.00  0.00    +0.000 OA
ATOM     27  O   UNL     1      -1.502  12.026  21.485  0.00  0.00    +0.000 OA
ENDBRANCH  22  25
BRANCH  24  28
ATOM     28  C   UNL     1       1.117   9.478  18.031  0.00  0.00    +0.000 C 
ATOM     29  O   UNL     1       2.151   9.250  17.430  0.00  0.00    +0.000 OA
BRANCH  28  30
ATOM     30  O   UNL     1      -0.023   9.881  17.429  0.00  0.00    +0.000 OA
ATOM     31  H   UNL     1      -0.545   9.156  17.028  0.00  0.00    +0.000 HD
ENDBRANCH  28  30
ENDBRANCH  24  28
ENDBRANCH   3  19
TORSDOF 9
ENDMDL
MODEL 4
REMARK VINA RESULT:      -8.0      1.484      1.956
REMARK  Name = 
REMARK  11 active torsions:
REMARK  status: ('A' for Active; 'I' for Inactive)
REMARK    1  A    between atoms: C_1  and  C_2
REMARK    2  A    between atoms: C_2  and  N_3
REMARK    3  A    between atoms: N_3  and  C_4
REMARK    4  A    between atoms: N_3  and  S_6
REMARK    5  A    between atoms: C_4  and  C_5
REMARK    6  A    between atoms: S_6  and  C_9
REMARK    7  A    between atoms: C_13  and  C_14
REMARK    8  A    between atoms: N_16  and  C_17
REMARK    9  A    between atoms: C_20  and  N_21
REMARK   10  A    between atoms: C_25  and  C_26
REMARK   11  A    between atoms: C_26  and  O_28
REMARK                            x       y       z     vdW  Elec       q    Type
REMARK                         _______ _______ _______ _____ _____    ______ ____
ROOT
ATOM      1  C   UNL     1       1.984   6.262  20.180  0.00  0.00    +0.000 C 
ATOM      2  O   UNL     1       1.063   5.764  20.814  0.00  0.00    +0.000 OA
ATOM      3  N   UNL     1       2.148   7.624  19.961  0.00  0.00    +0.000 N 
ATOM      4  H   UNL     1       2.679   7.907  19.136  0.00  0.00    +0.000 HD
ENDROOT
BRANCH   1   9
ATOM      5  C   UNL     1       5.176   4.752  18.821  0.00  0.00    +0.000 A 
ATOM      6  C   UNL     1       4.661   3.762  17.972  0.00  0.00    +0.000 A 
ATOM      7  C   UNL     1       3.280   3.576  17.879  0.00  0.00    +0.000 A 
ATOM      8  C   UNL     1       2.418   4.389  18.617  0.00  0.00    +0.000 A 
ATOM      9  C   UNL     1       2.937   5.382  19.458  0.00  0.00    +0.000 A 
ATOM     10  C   UNL     1       4.320   5.555  19.581  0.00  0.00    +0.000 A 
BRANCH   5  11
ATOM     11  S   UNL     1       6.897   5.183  18.730  0.00  0.00    +0.000 S 
ATOM     12  O   UNL     1       7.523   4.167  17.904  0.00  0.00    +0.000 OA
ATOM     13  O   UNL     1       7.358   5.425  20.084  0.00  0.00    +0.000 OA
BRANCH  11  14
ATOM     14  N   UNL     1       6.964   6.674  17.882  0.00  0.00    +0.000 NA
BRANCH  14  16
ATOM     15  C   UNL     1       7.960   8.982  17.791  0.00  0.00    +0.000 C 
ATOM     16  C   UNL     1       8.153   7.525  18.194  0.00  0.00    +0.000 C 
ENDBRANCH  14  16
BRANCH  14  17
ATOM     17  C   UNL     1       6.683   6.508  16.416  0.00  0.00    +0.000 C 
ATOM     18  C   UNL     1       5.227   6.746  16.042  0.00  0.00    +0.000 C 
ENDBRANCH  14  17
ENDBRANCH  11  14
ENDBRANCH   5  11
ENDBRANCH   1   9
BRANCH   3  19
ATOM     19  C   UNL     1       1.344   8.600  20.597  0.00  0.00    +0.000 A 
ATOM     20  C   UNL     1       1.180   8.563  21.989  0.00  0.00    +0.000 A 
ATOM     21  C   UNL     1       0.434   9.543  22.648  0.00  0.00    +0.000 A 
ATOM     22  C   UNL     1      -0.170  10.567  21.909  0.00  0.00    +0.000 A 
ATOM     23  C   UNL     1      -0.023  10.617  20.517  0.00  0.00    +0.000 A 
ATOM     24  C   UNL     1       0.734   9.633  19.862  0.00  0.00    +0.000 A 
BRANCH  22  25
ATOM     25  N   UNL     1      -0.978  11.580  22.598  0.00  0.00    +0.000 N 
ATOM     26  O   UNL     1      -0.716  12.770  22.378  0.00  0.00    +0.000 OA
ATOM     27  O   UNL     1      -1.868  11.184  23.361  0.00  0.00    +0.000 OA
ENDBRANCH  22  25
BRANCH  24  28
ATOM     28  C   UNL     1       0.782   9.705  18.383  0.00  0.00    +0.000 C 
ATOM     29  O   UNL     1      -0.215   9.663  17.686  0.00  0.00    +0.000 OA
BRANCH  28  30
ATOM     30  O   UNL     1       2.036   9.785  17.887  0.00  0.00    +0.000 OA
ATOM     31  H   UNL     1       2.711   9.317  18.421  0.00  0.00    +0.000 HD
ENDBRANCH  28  30
ENDBRANCH  24  28
ENDBRANCH   3  19
TORSDOF 9
ENDMDL
MODEL 5
REMARK VINA RESULT:      -7.9      3.182      8.936
REMARK  Name = 
REMARK  11 active torsions:
REMARK  status: ('A' for Active; 'I' for Inactive)
REMARK    1  A    between atoms: C_1  and  C_2
REMARK    2  A    between atoms: C_2  and  N_3
REMARK    3  A    between atoms: N_3  and  C_4
REMARK    4  A    between atoms: N_3  and  S_6
REMARK    5  A    between atoms: C_4  and  C_5
REMARK    6  A    between atoms: S_6  and  C_9
REMARK    7  A    between atoms: C_13  and  C_14
REMARK    8  A    between atoms: N_16  and  C_17
REMARK    9  A    between atoms: C_20  and  N_21
REMARK   10  A    between atoms: C_25  and  C_26
REMARK   11  A    between atoms: C_26  and  O_28
REMARK                            x       y       z     vdW  Elec       q    Type
REMARK                         _______ _______ _______ _____ _____    ______ ____
ROOT
ATOM      1  C   UNL     1       2.068   8.513  18.234  0.00  0.00    +0.000 C 
ATOM      2  O   UNL     1       2.312   8.990  17.133  0.00  0.00    +0.000 OA
ATOM      3  N   UNL     1       2.547   7.292  18.690  0.00  0.00    +0.000 N 
ATOM      4  H   UNL     1       2.004   6.813  19.410  0.00  0.00    +0.000 HD
ENDROOT
BRANCH   1   9
ATOM      5  C   UNL     1      -0.687  10.774  19.503  0.00  0.00    +0.000 A 
ATOM      6  C   UNL     1      -0.652  10.490  20.876  0.00  0.00    +0.000 A 
ATOM      7  C   UNL     1       0.245   9.539  21.366  0.00  0.00    +0.000 A 
ATOM      8  C   UNL     1       1.117   8.890  20.491  0.00  0.00    +0.000 A 
ATOM      9  C   UNL     1       1.085   9.183  19.120  0.00  0.00    +0.000 A 
ATOM     10  C   UNL     1       0.168  10.111  18.617  0.00  0.00    +0.000 A 
BRANCH   5  11
ATOM     11  S   UNL     1      -1.613  12.172  18.915  0.00  0.00    +0.000 S 
ATOM     12  O   UNL     1      -0.783  12.811  17.911  0.00  0.00    +0.000 OA
ATOM     13  O   UNL     1      -2.071  12.910  20.077  0.00  0.00    +0.000 OA
BRANCH  11  14
ATOM     14  N   UNL     1      -2.995  11.524  18.130  0.00  0.00    +0.000 NA
BRANCH  14  16
ATOM     15  C   UNL     1      -2.644   9.901  16.240  0.00  0.00    +0.000 C 
ATOM     16  C   UNL     1      -2.880  10.087  17.734  0.00  0.00    +0.000 C 
ENDBRANCH  14  16
BRANCH  14  17
ATOM     17  C   UNL     1      -4.271  11.876  18.841  0.00  0.00    +0.000 C 
ATOM     18  C   UNL     1      -5.499  11.182  18.270  0.00  0.00    +0.000 C 
ENDBRANCH  14  17
ENDBRANCH  11  14
ENDBRANCH   5  11
ENDBRANCH   1   9
BRANCH   3  19
ATOM     19  C   UNL     1       3.513   6.540  17.980  0.00  0.00    +0.000 A 
ATOM     20  C   UNL     1       4.696   7.159  17.551  0.00  0.00    +0.000 A 
ATOM     21  C   UNL     1       5.689   6.429  16.893  0.00  0.00    +0.000 A 
ATOM     22  C   UNL     1       5.496   5.064  16.647  0.00  0.00    +0.000 A 
ATOM     23  C   UNL     1       4.319   4.429  17.063  0.00  0.00    +0.000 A 
ATOM     24  C   UNL     1       3.328   5.167  17.729  0.00  0.00    +0.000 A 
BRANCH  22  25
ATOM     25  N   UNL     1       6.526   4.302  15.931  0.00  0.00    +0.000 N 
ATOM     26  O   UNL     1       6.166   3.617  14.965  0.00  0.00    +0.000 OA
ATOM     27  O   UNL     1       7.691   4.387  16.341  0.00  0.00    +0.000 OA
ENDBRANCH  22  25
BRANCH  24  28
ATOM     28  C   UNL     1       2.079   4.448  18.071  0.00  0.00    +0.000 C 
ATOM     29  O   UNL     1       1.434   3.818  17.253  0.00  0.00    +0.000 OA
BRANCH  28  30
ATOM     30  O   UNL     1       1.709   4.592  19.362  0.00  0.00    +0.000 OA
ATOM     31  H   UNL     1       1.889   5.479  19.737  0.00  0.00    +0.000 HD
ENDBRANCH  28  30
ENDBRANCH  24  28
ENDBRANCH   3  19
TORSDOF 9
ENDMDL
MODEL 6
REMARK VINA RESULT:      -7.9      3.103      9.014
REMARK  Name = 
REMARK  11 active torsions:
REMARK  status: ('A' for Active; 'I' for Inactive)
REMARK    1  A    between atoms: C_1  and  C_2
REMARK    2  A    between atoms: C_2  and  N_3
REMARK    3  A    between atoms: N_3  and  C_4
REMARK    4  A    between atoms: N_3  and  S_6
REMARK    5  A    between atoms: C_4  and  C_5
REMARK    6  A    between atoms: S_6  and  C_9
REMARK    7  A    between atoms: C_13  and  C_14
REMARK    8  A    between atoms: N_16  and  C_17
REMARK    9  A    between atoms: C_20  and  N_21
REMARK   10  A    between atoms: C_25  and  C_26
REMARK   11  A    between atoms: C_26  and  O_28
REMARK                            x       y       z     vdW  Elec       q    Type
REMARK                         _______ _______ _______ _____ _____    ______ ____
ROOT
ATOM      1  C   UNL     1       2.160   8.383  18.342  0.00  0.00    +0.000 C 
ATOM      2  O   UNL     1       2.288   8.877  17.230  0.00  0.00    +0.000 OA
ATOM      3  N   UNL     1       2.728   7.181  18.743  0.00  0.00    +0.000 N 
ATOM      4  H   UNL     1       2.270   6.675  19.502  0.00  0.00    +0.000 HD
ENDROOT
BRANCH   1   9
ATOM      5  C   UNL     1      -0.409  10.667  19.921  0.00  0.00    +0.000 A 
ATOM      6  C   UNL     1      -0.402  10.200  21.244  0.00  0.00    +0.000 A 
ATOM      7  C   UNL     1       0.414   9.124  21.596  0.00  0.00    +0.000 A 
ATOM      8  C   UNL     1       1.234   8.530  20.636  0.00  0.00    +0.000 A 
ATOM      9  C   UNL     1       1.231   9.005  19.317  0.00  0.00    +0.000 A 
ATOM     10  C   UNL     1       0.393  10.063  18.949  0.00  0.00    +0.000 A 
BRANCH   5  11
ATOM     11  S   UNL     1      -1.217  12.201  19.532  0.00  0.00    +0.000 S 
ATOM     12  O   UNL     1      -0.667  12.635  18.262  0.00  0.00    +0.000 OA
ATOM     13  O   UNL     1      -1.129  13.049  20.706  0.00  0.00    +0.000 OA
BRANCH  11  14
ATOM     14  N   UNL     1      -2.871  11.813  19.292  0.00  0.00    +0.000 NA
BRANCH  14  16
ATOM     15  C   UNL     1      -5.245  12.170  20.045  0.00  0.00    +0.000 C 
ATOM     16  C   UNL     1      -3.840  12.750  19.939  0.00  0.00    +0.000 C 
ENDBRANCH  14  16
BRANCH  14  17
ATOM     17  C   UNL     1      -3.178  11.492  17.857  0.00  0.00    +0.000 C 
ATOM     18  C   UNL     1      -3.271  10.000  17.572  0.00  0.00    +0.000 C 
ENDBRANCH  14  17
ENDBRANCH  11  14
ENDBRANCH   5  11
ENDBRANCH   1   9
BRANCH   3  19
ATOM     19  C   UNL     1       3.659   6.475  17.945  0.00  0.00    +0.000 A 
ATOM     20  C   UNL     1       4.821   7.122  17.499  0.00  0.00    +0.000 A 
ATOM     21  C   UNL     1       5.782   6.434  16.753  0.00  0.00    +0.000 A 
ATOM     22  C   UNL     1       5.577   5.087  16.434  0.00  0.00    +0.000 A 
ATOM     23  C   UNL     1       4.420   4.425  16.866  0.00  0.00    +0.000 A 
ATOM     24  C   UNL     1       3.462   5.120  17.621  0.00  0.00    +0.000 A 
BRANCH  22  25
ATOM     25  N   UNL     1       6.572   4.372  15.626  0.00  0.00    +0.000 N 
ATOM     26  O   UNL     1       7.768   4.584  15.869  0.00  0.00    +0.000 OA
ATOM     27  O   UNL     1       6.156   3.606  14.748  0.00  0.00    +0.000 OA
ENDBRANCH  22  25
BRANCH  24  28
ATOM     28  C   UNL     1       2.230   4.379  17.977  0.00  0.00    +0.000 C 
ATOM     29  O   UNL     1       1.613   4.579  19.007  0.00  0.00    +0.000 OA
BRANCH  28  30
ATOM     30  O   UNL     1       1.883   3.440  17.070  0.00  0.00    +0.000 OA
ATOM     31  H   UNL     1       2.563   3.271  16.385  0.00  0.00    +0.000 HD
ENDBRANCH  28  30
ENDBRANCH  24  28
ENDBRANCH   3  19
TORSDOF 9
ENDMDL
MODEL 7
REMARK VINA RESULT:      -7.7      0.543      1.378
REMARK  Name = 
REMARK  11 active torsions:
REMARK  status: ('A' for Active; 'I' for Inactive)
REMARK    1  A    between atoms: C_1  and  C_2
REMARK    2  A    between atoms: C_2  and  N_3
REMARK    3  A    between atoms: N_3  and  C_4
REMARK    4  A    between atoms: N_3  and  S_6
REMARK    5  A    between atoms: C_4  and  C_5
REMARK    6  A    between atoms: S_6  and  C_9
REMARK    7  A    between atoms: C_13  and  C_14
REMARK    8  A    between atoms: N_16  and  C_17
REMARK    9  A    between atoms: C_20  and  N_21
REMARK   10  A    between atoms: C_25  and  C_26
REMARK   11  A    between atoms: C_26  and  O_28
REMARK                            x       y       z     vdW  Elec       q    Type
REMARK                         _______ _______ _______ _____ _____    ______ ____
ROOT
ATOM      1  C   UNL     1       1.823   6.224  19.887  0.00  0.00    +0.000 C 
ATOM      2  O   UNL     1       0.974   5.736  20.621  0.00  0.00    +0.000 OA
ATOM      3  N   UNL     1       1.984   7.584  19.660  0.00  0.00    +0.000 N 
ATOM      4  H   UNL     1       2.421   7.865  18.781  0.00  0.00    +0.000 HD
ENDROOT
BRANCH   1   9
ATOM      5  C   UNL     1       4.550   4.955  17.592  0.00  0.00    +0.000 A 
ATOM      6  C   UNL     1       4.143   3.626  17.405  0.00  0.00    +0.000 A 
ATOM      7  C   UNL     1       3.004   3.150  18.058  0.00  0.00    +0.000 A 
ATOM      8  C   UNL     1       2.265   4.004  18.878  0.00  0.00    +0.000 A 
ATOM      9  C   UNL     1       2.670   5.334  19.055  0.00  0.00    +0.000 A 
ATOM     10  C   UNL     1       3.827   5.811  18.429  0.00  0.00    +0.000 A 
BRANCH   5  11
ATOM     11  S   UNL     1       5.817   5.643  16.553  0.00  0.00    +0.000 S 
ATOM     12  O   UNL     1       5.174   6.683  15.771  0.00  0.00    +0.000 OA
ATOM     13  O   UNL     1       6.493   4.538  15.902  0.00  0.00    +0.000 OA
BRANCH  11  14
ATOM     14  N   UNL     1       6.939   6.392  17.613  0.00  0.00    +0.000 NA
BRANCH  14  16
ATOM     15  C   UNL     1       7.664   5.556  19.873  0.00  0.00    +0.000 C 
ATOM     16  C   UNL     1       7.826   5.449  18.361  0.00  0.00    +0.000 C 
ENDBRANCH  14  16
BRANCH  14  17
ATOM     17  C   UNL     1       7.656   7.541  16.963  0.00  0.00    +0.000 C 
ATOM     18  C   UNL     1       7.916   8.709  17.904  0.00  0.00    +0.000 C 
ENDBRANCH  14  17
ENDBRANCH  11  14
ENDBRANCH   5  11
ENDBRANCH   1   9
BRANCH   3  19
ATOM     19  C   UNL     1       1.276   8.568  20.391  0.00  0.00    +0.000 A 
ATOM     20  C   UNL     1       1.169   8.452  21.784  0.00  0.00    +0.000 A 
ATOM     21  C   UNL     1       0.520   9.435  22.536  0.00  0.00    +0.000 A 
ATOM     22  C   UNL     1      -0.044  10.542  21.890  0.00  0.00    +0.000 A 
ATOM     23  C   UNL     1       0.048  10.672  20.498  0.00  0.00    +0.000 A 
ATOM     24  C   UNL     1       0.708   9.684  19.750  0.00  0.00    +0.000 A 
BRANCH  22  25
ATOM     25  N   UNL     1      -0.750  11.560  22.676  0.00  0.00    +0.000 N 
ATOM     26  O   UNL     1      -0.287  12.708  22.678  0.00  0.00    +0.000 OA
ATOM     27  O   UNL     1      -1.762  11.207  23.295  0.00  0.00    +0.000 OA
ENDBRANCH  22  25
BRANCH  24  28
ATOM     28  C   UNL     1       0.699   9.848  18.277  0.00  0.00    +0.000 C 
ATOM     29  O   UNL     1       1.676   9.633  17.583  0.00  0.00    +0.000 OA
BRANCH  28  30
ATOM     30  O   UNL     1      -0.479  10.294  17.791  0.00  0.00    +0.000 OA
ATOM     31  H   UNL     1      -1.260   9.791  18.103  0.00  0.00    +0.000 HD
ENDBRANCH  28  30
ENDBRANCH  24  28
ENDBRANCH   3  19
TORSDOF 9
ENDMDL
MODEL 8
REMARK VINA RESULT:      -7.6      2.794      8.537
REMARK  Name = 
REMARK  11 active torsions:
REMARK  status: ('A' for Active; 'I' for Inactive)
REMARK    1  A    between atoms: C_1  and  C_2
REMARK    2  A    between atoms: C_2  and  N_3
REMARK    3  A    between atoms: N_3  and  C_4
REMARK    4  A    between atoms: N_3  and  S_6
REMARK    5  A    between atoms: C_4  and  C_5
REMARK    6  A    between atoms: S_6  and  C_9
REMARK    7  A    between atoms: C_13  and  C_14
REMARK    8  A    between atoms: N_16  and  C_17
REMARK    9  A    between atoms: C_20  and  N_21
REMARK   10  A    between atoms: C_25  and  C_26
REMARK   11  A    between atoms: C_26  and  O_28
REMARK                            x       y       z     vdW  Elec       q    Type
REMARK                         _______ _______ _______ _____ _____    ______ ____
ROOT
ATOM      1  C   UNL     1       2.363   8.002  18.464  0.00  0.00    +0.000 C 
ATOM      2  O   UNL     1       2.313   8.561  17.377  0.00  0.00    +0.000 OA
ATOM      3  N   UNL     1       3.040   6.815  18.712  0.00  0.00    +0.000 N 
ATOM      4  H   UNL     1       2.715   6.243  19.494  0.00  0.00    +0.000 HD
ENDROOT
BRANCH   1   9
ATOM      5  C   UNL     1       0.253  10.253  20.654  0.00  0.00    +0.000 A 
ATOM      6  C   UNL     1       0.123   9.459  21.803  0.00  0.00    +0.000 A 
ATOM      7  C   UNL     1       0.694   8.186  21.836  0.00  0.00    +0.000 A 
ATOM      8  C   UNL     1       1.410   7.717  20.734  0.00  0.00    +0.000 A 
ATOM      9  C   UNL     1       1.545   8.516  19.591  0.00  0.00    +0.000 A 
ATOM     10  C   UNL     1       0.950   9.781  19.537  0.00  0.00    +0.000 A 
BRANCH   5  11
ATOM     11  S   UNL     1      -0.218  11.965  20.707  0.00  0.00    +0.000 S 
ATOM     12  O   UNL     1       0.813  12.642  21.472  0.00  0.00    +0.000 OA
ATOM     13  O   UNL     1      -1.606  12.022  21.124  0.00  0.00    +0.000 OA
BRANCH  11  14
ATOM     14  N   UNL     1      -0.136  12.527  19.088  0.00  0.00    +0.000 NA
BRANCH  14  16
ATOM     15  C   UNL     1      -1.871  11.405  17.654  0.00  0.00    +0.000 C 
ATOM     16  C   UNL     1      -1.456  12.667  18.400  0.00  0.00    +0.000 C 
ENDBRANCH  14  16
BRANCH  14  17
ATOM     17  C   UNL     1       0.773  13.715  18.943  0.00  0.00    +0.000 C 
ATOM     18  C   UNL     1       2.087  13.397  18.245  0.00  0.00    +0.000 C 
ENDBRANCH  14  17
ENDBRANCH  11  14
ENDBRANCH   5  11
ENDBRANCH   1   9
BRANCH   3  19
ATOM     19  C   UNL     1       3.888   6.207  17.756  0.00  0.00    +0.000 A 
ATOM     20  C   UNL     1       4.983   6.921  17.248  0.00  0.00    +0.000 A 
ATOM     21  C   UNL     1       5.866   6.328  16.342  0.00  0.00    +0.000 A 
ATOM     22  C   UNL     1       5.647   5.010  15.923  0.00  0.00    +0.000 A 
ATOM     23  C   UNL     1       4.555   4.283  16.414  0.00  0.00    +0.000 A 
ATOM     24  C   UNL     1       3.676   4.883  17.330  0.00  0.00    +0.000 A 
BRANCH  22  25
ATOM     25  N   UNL     1       6.557   4.396  14.950  0.00  0.00    +0.000 N 
ATOM     26  O   UNL     1       6.094   3.528  14.198  0.00  0.00    +0.000 OA
ATOM     27  O   UNL     1       7.734   4.780  14.943  0.00  0.00    +0.000 OA
ENDBRANCH  22  25
BRANCH  24  28
ATOM     28  C   UNL     1       2.501   4.082  17.747  0.00  0.00    +0.000 C 
ATOM     29  O   UNL     1       1.364   4.348  17.402  0.00  0.00    +0.000 OA
BRANCH  28  30
ATOM     30  O   UNL     1       2.810   3.059  18.573  0.00  0.00    +0.000 OA
ATOM     31  H   UNL     1       3.354   2.357  18.159  0.00  0.00    +0.000 HD
ENDBRANCH  28  30
ENDBRANCH  24  28
ENDBRANCH   3  19
TORSDOF 9
ENDMDL
MODEL 9
REMARK VINA RESULT:      -7.6      2.936      8.618
REMARK  Name = 
REMARK  11 active torsions:
REMARK  status: ('A' for Active; 'I' for Inactive)
REMARK    1  A    between atoms: C_1  and  C_2
REMARK    2  A    between atoms: C_2  and  N_3
REMARK    3  A    between atoms: N_3  and  C_4
REMARK    4  A    between atoms: N_3  and  S_6
REMARK    5  A    between atoms: C_4  and  C_5
REMARK    6  A    between atoms: S_6  and  C_9
REMARK    7  A    between atoms: C_13  and  C_14
REMARK    8  A    between atoms: N_16  and  C_17
REMARK    9  A    between atoms: C_20  and  N_21
REMARK   10  A    between atoms: C_25  and  C_26
REMARK   11  A    between atoms: C_26  and  O_28
REMARK                            x       y       z     vdW  Elec       q    Type
REMARK                         _______ _______ _______ _____ _____    ______ ____
ROOT
ATOM      1  C   UNL     1       2.169   8.292  18.386  0.00  0.00    +0.000 C 
ATOM      2  O   UNL     1       2.255   8.787  17.270  0.00  0.00    +0.000 OA
ATOM      3  N   UNL     1       2.764   7.098  18.770  0.00  0.00    +0.000 N 
ATOM      4  H   UNL     1       2.336   6.587  19.543  0.00  0.00    +0.000 HD
ENDROOT
BRANCH   1   9
ATOM      5  C   UNL     1      -0.356  10.564  20.052  0.00  0.00    +0.000 A 
ATOM      6  C   UNL     1      -0.328  10.074  21.366  0.00  0.00    +0.000 A 
ATOM      7  C   UNL     1       0.488   8.987  21.684  0.00  0.00    +0.000 A 
ATOM      8  C   UNL     1       1.286   8.405  20.699  0.00  0.00    +0.000 A 
ATOM      9  C   UNL     1       1.261   8.903  19.389  0.00  0.00    +0.000 A 
ATOM     10  C   UNL     1       0.424   9.972  19.055  0.00  0.00    +0.000 A 
BRANCH   5  11
ATOM     11  S   UNL     1      -1.162  12.110  19.705  0.00  0.00    +0.000 S 
ATOM     12  O   UNL     1      -2.115  12.316  20.779  0.00  0.00    +0.000 OA
ATOM     13  O   UNL     1      -1.600  12.071  18.323  0.00  0.00    +0.000 OA
BRANCH  11  14
ATOM     14  N   UNL     1       0.054  13.313  19.834  0.00  0.00    +0.000 NA
BRANCH  14  16
ATOM     15  C   UNL     1       2.239  13.158  18.596  0.00  0.00    +0.000 C 
ATOM     16  C   UNL     1       0.785  13.612  18.564  0.00  0.00    +0.000 C 
ENDBRANCH  14  16
BRANCH  14  17
ATOM     17  C   UNL     1      -0.423  14.528  20.579  0.00  0.00    +0.000 C 
ATOM     18  C   UNL     1      -0.730  15.715  19.679  0.00  0.00    +0.000 C 
ENDBRANCH  14  17
ENDBRANCH  11  14
ENDBRANCH   5  11
ENDBRANCH   1   9
BRANCH   3  19
ATOM     19  C   UNL     1       3.680   6.403  17.944  0.00  0.00    +0.000 A 
ATOM     20  C   UNL     1       4.814   7.067  17.456  0.00  0.00    +0.000 A 
ATOM     21  C   UNL     1       5.761   6.392  16.681  0.00  0.00    +0.000 A 
ATOM     22  C   UNL     1       5.568   5.040  16.375  0.00  0.00    +0.000 A 
ATOM     23  C   UNL     1       4.438   4.361  16.849  0.00  0.00    +0.000 A 
ATOM     24  C   UNL     1       3.494   5.043  17.633  0.00  0.00    +0.000 A 
BRANCH  22  25
ATOM     25  N   UNL     1       6.547   4.337  15.538  0.00  0.00    +0.000 N 
ATOM     26  O   UNL     1       7.747   4.516  15.784  0.00  0.00    +0.000 OA
ATOM     27  O   UNL     1       6.114   3.614  14.631  0.00  0.00    +0.000 OA
ENDBRANCH  22  25
BRANCH  24  28
ATOM     28  C   UNL     1       2.287   4.284  18.034  0.00  0.00    +0.000 C 
ATOM     29  O   UNL     1       1.463   3.882  17.233  0.00  0.00    +0.000 OA
BRANCH  28  30
ATOM     30  O   UNL     1       2.174   4.115  19.369  0.00  0.00    +0.000 OA
ATOM     31  H   UNL     1       2.979   3.763  19.800  0.00  0.00    +0.000 HD
ENDBRANCH  28  30
ENDBRANCH  24  28
ENDBRANCH   3  19
TORSDOF 9
ENDMDL
