MODEL 1
REMARK VINA RESULT:      -7.4      0.000      0.000
REMARK  Name = 
REMARK  5 active torsions:
REMARK  status: ('A' for Active; 'I' for Inactive)
REMARK    1  A    between atoms: C_2  and  C_3
REMARK    2  A    between atoms: C_3  and  N_4
REMARK    3  A    between atoms: C_12  and  C_13
REMARK    4  A    between atoms: C_20  and  O_21
REMARK    5  A    between atoms: O_21  and  C_22
REMARK                            x       y       z     vdW  Elec       q    Type
REMARK                         _______ _______ _______ _____ _____    ______ ____
ROOT
ATOM      1  N   UNL     1       3.168   3.350  18.280  0.00  0.00    +0.000 NA
ATOM      2  C   UNL     1       2.767   4.108  17.093  0.00  0.00    +0.000 C 
ATOM      3  C   UNL     1       3.894   4.863  16.377  0.00  0.00    +0.000 C 
ATOM      4  C   UNL     1       4.816   5.557  17.411  0.00  0.00    +0.000 C 
ATOM      5  C   UNL     1       5.909   6.381  16.705  0.00  0.00    +0.000 C 
ATOM      6  C   UNL     1       7.127   5.570  16.304  0.00  0.00    +0.000 C 
ATOM      7  O   UNL     1       7.702   5.791  15.231  0.00  0.00    +0.000 OA
ATOM      8  C   UNL     1       7.676   4.531  17.264  0.00  0.00    +0.000 C 
ATOM      9  C   UNL     1       6.895   4.482  18.598  0.00  0.00    +0.000 C 
ATOM     10  C   UNL     1       7.378   5.623  19.494  0.00  0.00    +0.000 C 
ATOM     11  C   UNL     1       5.406   4.345  18.189  0.00  0.00    +0.000 C 
ATOM     12  C   UNL     1       4.324   3.769  19.116  0.00  0.00    +0.000 C 
ATOM     13  C   UNL     1       3.915   4.825  20.164  0.00  0.00    +0.000 C 
ATOM     14  C   UNL     1       3.454   6.115  19.530  0.00  0.00    +0.000 A 
ATOM     15  C   UNL     1       2.467   6.876  20.184  0.00  0.00    +0.000 A 
ATOM     16  C   UNL     1       1.784   7.894  19.512  0.00  0.00    +0.000 A 
ATOM     17  C   UNL     1       2.107   8.184  18.192  0.00  0.00    +0.000 A 
ATOM     18  C   UNL     1       3.194   7.532  17.595  0.00  0.00    +0.000 A 
ATOM     19  C   UNL     1       3.879   6.479  18.238  0.00  0.00    +0.000 A 
ENDROOT
BRANCH  17  20
ATOM     20  O   UNL     1       1.419   9.027  17.364  0.00  0.00    +0.000 OA
ATOM     21  C   UNL     1       0.464   9.891  17.972  0.00  0.00    +0.000 C 
ENDBRANCH  17  20
BRANCH   1  22
ATOM     22  C   UNL     1       2.631   2.004  18.344  0.00  0.00    +0.000 C 
BRANCH  22  24
ATOM     23  C   UNL     1       0.800   2.903  19.860  0.00  0.00    +0.000 C 
ATOM     24  C   UNL     1       1.245   2.030  18.940  0.00  0.00    +0.000 C 
ENDBRANCH  22  24
ENDBRANCH   1  22
TORSDOF 3
ENDMDL
MODEL 2
REMARK VINA RESULT:      -6.8      2.275      5.521
REMARK  Name = 
REMARK  5 active torsions:
REMARK  status: ('A' for Active; 'I' for Inactive)
REMARK    1  A    between atoms: C_2  and  C_3
REMARK    2  A    between atoms: C_3  and  N_4
REMARK    3  A    between atoms: C_12  and  C_13
REMARK    4  A    between atoms: C_20  and  O_21
REMARK    5  A    between atoms: O_21  and  C_22
REMARK                            x       y       z     vdW  Elec       q    Type
REMARK                         _______ _______ _______ _____ _____    ______ ____
ROOT
ATOM      1  N   UNL     1       2.731   6.861  18.918  0.00  0.00    +0.000 NA
ATOM      2  C   UNL     1       2.250   6.480  17.589  0.00  0.00    +0.000 C 
ATOM      3  C   UNL     1       1.720   5.045  17.463  0.00  0.00    +0.000 C 
ATOM      4  C   UNL     1       2.652   4.061  18.213  0.00  0.00    +0.000 C 
ATOM      5  C   UNL     1       2.174   2.608  18.033  0.00  0.00    +0.000 C 
ATOM      6  C   UNL     1       1.096   2.190  19.015  0.00  0.00    +0.000 C 
ATOM      7  O   UNL     1       0.164   1.462  18.650  0.00  0.00    +0.000 OA
ATOM      8  C   UNL     1       1.209   2.614  20.468  0.00  0.00    +0.000 C 
ATOM      9  C   UNL     1       2.499   3.419  20.753  0.00  0.00    +0.000 C 
ATOM     10  C   UNL     1       3.665   2.441  20.907  0.00  0.00    +0.000 C 
ATOM     11  C   UNL     1       2.518   4.544  19.687  0.00  0.00    +0.000 C 
ATOM     12  C   UNL     1       3.297   5.857  19.858  0.00  0.00    +0.000 C 
ATOM     13  C   UNL     1       4.798   5.614  19.594  0.00  0.00    +0.000 C 
ATOM     14  C   UNL     1       5.053   5.006  18.236  0.00  0.00    +0.000 A 
ATOM     15  C   UNL     1       6.247   5.326  17.564  0.00  0.00    +0.000 A 
ATOM     16  C   UNL     1       6.397   5.056  16.201  0.00  0.00    +0.000 A 
ATOM     17  C   UNL     1       5.368   4.433  15.506  0.00  0.00    +0.000 A 
ATOM     18  C   UNL     1       4.247   3.975  16.209  0.00  0.00    +0.000 A 
ATOM     19  C   UNL     1       4.054   4.263  17.578  0.00  0.00    +0.000 A 
ENDROOT
BRANCH  17  20
ATOM     20  O   UNL     1       5.305   4.259  14.151  0.00  0.00    +0.000 OA
ATOM     21  C   UNL     1       6.530   3.983  13.478  0.00  0.00    +0.000 C 
ENDBRANCH  17  20
BRANCH   1  22
ATOM     22  C   UNL     1       2.265   8.156  19.378  0.00  0.00    +0.000 C 
BRANCH  22  24
ATOM     23  C   UNL     1       0.773   9.879  18.256  0.00  0.00    +0.000 C 
ATOM     24  C   UNL     1       1.756   8.964  18.210  0.00  0.00    +0.000 C 
ENDBRANCH  22  24
ENDBRANCH   1  22
TORSDOF 3
ENDMDL
MODEL 3
REMARK VINA RESULT:      -6.1      7.347     10.148
REMARK  Name = 
REMARK  5 active torsions:
REMARK  status: ('A' for Active; 'I' for Inactive)
REMARK    1  A    between atoms: C_2  and  C_3
REMARK    2  A    between atoms: C_3  and  N_4
REMARK    3  A    between atoms: C_12  and  C_13
REMARK    4  A    between atoms: C_20  and  O_21
REMARK    5  A    between atoms: O_21  and  C_22
REMARK                            x       y       z     vdW  Elec       q    Type
REMARK                         _______ _______ _______ _____ _____    ______ ____
ROOT
ATOM      1  N   UNL     1       1.299  13.071  19.413  0.00  0.00    +0.000 NA
ATOM      2  C   UNL     1       0.277  13.772  18.634  0.00  0.00    +0.000 C 
ATOM      3  C   UNL     1      -1.018  14.104  19.388  0.00  0.00    +0.000 C 
ATOM      4  C   UNL     1      -1.458  12.898  20.255  0.00  0.00    +0.000 C 
ATOM      5  C   UNL     1      -2.796  13.189  20.960  0.00  0.00    +0.000 C 
ATOM      6  C   UNL     1      -2.651  13.953  22.262  0.00  0.00    +0.000 C 
ATOM      7  O   UNL     1      -3.470  14.828  22.571  0.00  0.00    +0.000 OA
ATOM      8  C   UNL     1      -1.530  13.587  23.218  0.00  0.00    +0.000 C 
ATOM      9  C   UNL     1      -0.683  12.396  22.712  0.00  0.00    +0.000 C 
ATOM     10  C   UNL     1      -1.427  11.096  23.022  0.00  0.00    +0.000 C 
ATOM     11  C   UNL     1      -0.279  12.774  21.264  0.00  0.00    +0.000 C 
ATOM     12  C   UNL     1       0.938  12.174  20.542  0.00  0.00    +0.000 C 
ATOM     13  C   UNL     1       0.607  10.749  20.053  0.00  0.00    +0.000 C 
ATOM     14  C   UNL     1      -0.617  10.713  19.171  0.00  0.00    +0.000 A 
ATOM     15  C   UNL     1      -0.685   9.754  18.143  0.00  0.00    +0.000 A 
ATOM     16  C   UNL     1      -1.624   9.869  17.115  0.00  0.00    +0.000 A 
ATOM     17  C   UNL     1      -2.528  10.924  17.124  0.00  0.00    +0.000 A 
ATOM     18  C   UNL     1      -2.562  11.786  18.228  0.00  0.00    +0.000 A 
ATOM     19  C   UNL     1      -1.604  11.713  19.262  0.00  0.00    +0.000 A 
ENDROOT
BRANCH  17  20
ATOM     20  O   UNL     1      -3.384  11.257  16.110  0.00  0.00    +0.000 OA
ATOM     21  C   UNL     1      -3.297  10.489  14.914  0.00  0.00    +0.000 C 
ENDBRANCH  17  20
BRANCH   1  22
ATOM     22  C   UNL     1       2.639  13.607  19.265  0.00  0.00    +0.000 C 
BRANCH  22  24
ATOM     23  C   UNL     1       3.465  15.357  17.618  0.00  0.00    +0.000 C 
ATOM     24  C   UNL     1       2.588  14.930  18.542  0.00  0.00    +0.000 C 
ENDBRANCH  22  24
ENDBRANCH   1  22
TORSDOF 3
ENDMDL
MODEL 4
REMARK VINA RESULT:      -5.8      1.045      1.362
REMARK  Name = 
REMARK  5 active torsions:
REMARK  status: ('A' for Active; 'I' for Inactive)
REMARK    1  A    between atoms: C_2  and  C_3
REMARK    2  A    between atoms: C_3  and  N_4
REMARK    3  A    between atoms: C_12  and  C_13
REMARK    4  A    between atoms: C_20  and  O_21
REMARK    5  A    between atoms: O_21  and  C_22
REMARK                            x       y       z     vdW  Elec       q    Type
REMARK                         _______ _______ _______ _____ _____    ______ ____
ROOT
ATOM      1  N   UNL     1       1.944   3.875  18.888  0.00  0.00    +0.000 NA
ATOM      2  C   UNL     1       1.479   4.613  17.713  0.00  0.00    +0.000 C 
ATOM      3  C   UNL     1       2.580   5.191  16.815  0.00  0.00    +0.000 C 
ATOM      4  C   UNL     1       3.699   5.824  17.679  0.00  0.00    +0.000 C 
ATOM      5  C   UNL     1       4.776   6.474  16.791  0.00  0.00    +0.000 C 
ATOM      6  C   UNL     1       5.834   5.505  16.297  0.00  0.00    +0.000 C 
ATOM      7  O   UNL     1       6.285   5.602  15.149  0.00  0.00    +0.000 OA
ATOM      8  C   UNL     1       6.385   4.459  17.248  0.00  0.00    +0.000 C 
ATOM      9  C   UNL     1       5.783   4.571  18.669  0.00  0.00    +0.000 C 
ATOM     10  C   UNL     1       6.502   5.691  19.421  0.00  0.00    +0.000 C 
ATOM     11  C   UNL     1       4.248   4.591  18.456  0.00  0.00    +0.000 C 
ATOM     12  C   UNL     1       3.238   4.195  19.545  0.00  0.00    +0.000 C 
ATOM     13  C   UNL     1       3.089   5.345  20.564  0.00  0.00    +0.000 C 
ATOM     14  C   UNL     1       2.696   6.646  19.909  0.00  0.00    +0.000 A 
ATOM     15  C   UNL     1       1.893   7.552  20.628  0.00  0.00    +0.000 A 
ATOM     16  C   UNL     1       1.246   8.607  19.980  0.00  0.00    +0.000 A 
ATOM     17  C   UNL     1       1.424   8.789  18.614  0.00  0.00    +0.000 A 
ATOM     18  C   UNL     1       2.345   7.984  17.931  0.00  0.00    +0.000 A 
ATOM     19  C   UNL     1       2.987   6.890  18.553  0.00  0.00    +0.000 A 
ENDROOT
BRANCH  17  20
ATOM     20  O   UNL     1       0.732   9.665  17.823  0.00  0.00    +0.000 OA
ATOM     21  C   UNL     1      -0.410  10.291  18.400  0.00  0.00    +0.000 C 
ENDBRANCH  17  20
BRANCH   1  22
ATOM     22  C   UNL     1       1.273   2.607  19.106  0.00  0.00    +0.000 C 
BRANCH  22  24
ATOM     23  C   UNL     1       3.307   1.338  18.263  0.00  0.00    +0.000 C 
ATOM     24  C   UNL     1       2.283   1.485  19.120  0.00  0.00    +0.000 C 
ENDBRANCH  22  24
ENDBRANCH   1  22
TORSDOF 3
ENDMDL
MODEL 5
REMARK VINA RESULT:      -5.8      7.387      9.144
REMARK  Name = 
REMARK  5 active torsions:
REMARK  status: ('A' for Active; 'I' for Inactive)
REMARK    1  A    between atoms: C_2  and  C_3
REMARK    2  A    between atoms: C_3  and  N_4
REMARK    3  A    between atoms: C_12  and  C_13
REMARK    4  A    between atoms: C_20  and  O_21
REMARK    5  A    between atoms: O_21  and  C_22
REMARK                            x       y       z     vdW  Elec       q    Type
REMARK                         _______ _______ _______ _____ _____    ______ ____
ROOT
ATOM      1  N   UNL     1      -0.812  10.667  18.478  0.00  0.00    +0.000 NA
ATOM      2  C   UNL     1      -2.016  11.376  18.913  0.00  0.00    +0.000 C 
ATOM      3  C   UNL     1      -1.835  12.871  19.207  0.00  0.00    +0.000 C 
ATOM      4  C   UNL     1      -0.522  13.107  19.996  0.00  0.00    +0.000 C 
ATOM      5  C   UNL     1      -0.363  14.594  20.363  0.00  0.00    +0.000 C 
ATOM      6  C   UNL     1       0.256  15.436  19.264  0.00  0.00    +0.000 C 
ATOM      7  O   UNL     1      -0.148  16.586  19.052  0.00  0.00    +0.000 OA
ATOM      8  C   UNL     1       1.424  14.880  18.471  0.00  0.00    +0.000 C 
ATOM      9  C   UNL     1       1.860  13.478  18.958  0.00  0.00    +0.000 C 
ATOM     10  C   UNL     1       2.731  13.638  20.205  0.00  0.00    +0.000 C 
ATOM     11  C   UNL     1       0.559  12.636  18.979  0.00  0.00    +0.000 C 
ATOM     12  C   UNL     1       0.543  11.101  18.907  0.00  0.00    +0.000 C 
ATOM     13  C   UNL     1       0.923  10.508  20.280  0.00  0.00    +0.000 C 
ATOM     14  C   UNL     1       0.028  11.006  21.388  0.00  0.00    +0.000 A 
ATOM     15  C   UNL     1      -0.247  10.152  22.474  0.00  0.00    +0.000 A 
ATOM     16  C   UNL     1      -1.295  10.427  23.355  0.00  0.00    +0.000 A 
ATOM     17  C   UNL     1      -2.057  11.576  23.181  0.00  0.00    +0.000 A 
ATOM     18  C   UNL     1      -1.684  12.501  22.198  0.00  0.00    +0.000 A 
ATOM     19  C   UNL     1      -0.651  12.234  21.273  0.00  0.00    +0.000 A 
ENDROOT
BRANCH  17  20
ATOM     20  O   UNL     1      -3.206  11.887  23.854  0.00  0.00    +0.000 OA
ATOM     21  C   UNL     1      -3.480  13.270  24.059  0.00  0.00    +0.000 C 
ENDBRANCH  17  20
BRANCH   1  22
ATOM     22  C   UNL     1      -1.006   9.801  17.331  0.00  0.00    +0.000 C 
BRANCH  22  24
ATOM     23  C   UNL     1      -2.794   9.993  15.535  0.00  0.00    +0.000 C 
ATOM     24  C   UNL     1      -2.422   9.926  16.824  0.00  0.00    +0.000 C 
ENDBRANCH  22  24
ENDBRANCH   1  22
TORSDOF 3
ENDMDL
MODEL 6
REMARK VINA RESULT:      -5.7      5.456      9.000
REMARK  Name = 
REMARK  5 active torsions:
REMARK  status: ('A' for Active; 'I' for Inactive)
REMARK    1  A    between atoms: C_2  and  C_3
REMARK    2  A    between atoms: C_3  and  N_4
REMARK    3  A    between atoms: C_12  and  C_13
REMARK    4  A    between atoms: C_20  and  O_21
REMARK    5  A    between atoms: O_21  and  C_22
REMARK                            x       y       z     vdW  Elec       q    Type
REMARK                         _______ _______ _______ _____ _____    ______ ____
ROOT
ATOM      1  N   UNL     1       0.007  10.692  18.914  0.00  0.00    +0.000 NA
ATOM      2  C   UNL     1      -1.264  11.389  18.707  0.00  0.00    +0.000 C 
ATOM      3  C   UNL     1      -1.183  12.921  18.685  0.00  0.00    +0.000 C 
ATOM      4  C   UNL     1      -0.247  13.425  19.813  0.00  0.00    +0.000 C 
ATOM      5  C   UNL     1      -0.214  14.964  19.852  0.00  0.00    +0.000 C 
ATOM      6  C   UNL     1       0.776  15.582  18.883  0.00  0.00    +0.000 C 
ATOM      7  O   UNL     1       0.493  16.622  18.276  0.00  0.00    +0.000 OA
ATOM      8  C   UNL     1       2.146  14.951  18.717  0.00  0.00    +0.000 C 
ATOM      9  C   UNL     1       2.354  13.729  19.644  0.00  0.00    +0.000 C 
ATOM     10  C   UNL     1       2.709  14.230  21.045  0.00  0.00    +0.000 C 
ATOM     11  C   UNL     1       1.125  12.819  19.394  0.00  0.00    +0.000 C 
ATOM     12  C   UNL     1       1.116  11.311  19.685  0.00  0.00    +0.000 C 
ATOM     13  C   UNL     1       0.958  11.070  21.202  0.00  0.00    +0.000 C 
ATOM     14  C   UNL     1      -0.274  11.736  21.764  0.00  0.00    +0.000 A 
ATOM     15  C   UNL     1      -0.939  11.129  22.846  0.00  0.00    +0.000 A 
ATOM     16  C   UNL     1      -2.234  11.516  23.201  0.00  0.00    +0.000 A 
ATOM     17  C   UNL     1      -2.864  12.537  22.499  0.00  0.00    +0.000 A 
ATOM     18  C   UNL     1      -2.143  13.243  21.527  0.00  0.00    +0.000 A 
ATOM     19  C   UNL     1      -0.847  12.853  21.126  0.00  0.00    +0.000 A 
ENDROOT
BRANCH  17  20
ATOM     20  O   UNL     1      -4.175  12.904  22.621  0.00  0.00    +0.000 OA
ATOM     21  C   UNL     1      -4.990  12.780  21.460  0.00  0.00    +0.000 C 
ENDBRANCH  17  20
BRANCH   1  22
ATOM     22  C   UNL     1       0.235   9.578  18.012  0.00  0.00    +0.000 C 
BRANCH  22  24
ATOM     23  C   UNL     1       2.370   8.200  17.970  0.00  0.00    +0.000 C 
ATOM     24  C   UNL     1       1.717   9.365  17.821  0.00  0.00    +0.000 C 
ENDBRANCH  22  24
ENDBRANCH   1  22
TORSDOF 3
ENDMDL
MODEL 7
REMARK VINA RESULT:      -5.7      2.319      4.739
REMARK  Name = 
REMARK  5 active torsions:
REMARK  status: ('A' for Active; 'I' for Inactive)
REMARK    1  A    between atoms: C_2  and  C_3
REMARK    2  A    between atoms: C_3  and  N_4
REMARK    3  A    between atoms: C_12  and  C_13
REMARK    4  A    between atoms: C_20  and  O_21
REMARK    5  A    between atoms: O_21  and  C_22
REMARK                            x       y       z     vdW  Elec       q    Type
REMARK                         _______ _______ _______ _____ _____    ______ ____
ROOT
ATOM      1  N   UNL     1       3.313   6.955  17.670  0.00  0.00    +0.000 NA
ATOM      2  C   UNL     1       3.054   6.574  19.059  0.00  0.00    +0.000 C 
ATOM      3  C   UNL     1       4.271   6.068  19.845  0.00  0.00    +0.000 C 
ATOM      4  C   UNL     1       5.114   5.108  18.969  0.00  0.00    +0.000 C 
ATOM      5  C   UNL     1       6.298   4.534  19.769  0.00  0.00    +0.000 C 
ATOM      6  C   UNL     1       7.519   5.434  19.792  0.00  0.00    +0.000 C 
ATOM      7  O   UNL     1       8.201   5.540  20.819  0.00  0.00    +0.000 OA
ATOM      8  C   UNL     1       7.937   6.152  18.522  0.00  0.00    +0.000 C 
ATOM      9  C   UNL     1       7.031   5.804  17.317  0.00  0.00    +0.000 C 
ATOM     10  C   UNL     1       7.467   4.454  16.746  0.00  0.00    +0.000 C 
ATOM     11  C   UNL     1       5.584   6.045  17.817  0.00  0.00    +0.000 C 
ATOM     12  C   UNL     1       4.399   6.318  16.879  0.00  0.00    +0.000 C 
ATOM     13  C   UNL     1       3.930   4.999  16.228  0.00  0.00    +0.000 C 
ATOM     14  C   UNL     1       3.578   3.947  17.252  0.00  0.00    +0.000 A 
ATOM     15  C   UNL     1       2.561   3.022  16.951  0.00  0.00    +0.000 A 
ATOM     16  C   UNL     1       1.982   2.240  17.954  0.00  0.00    +0.000 A 
ATOM     17  C   UNL     1       2.439   2.351  19.262  0.00  0.00    +0.000 A 
ATOM     18  C   UNL     1       3.554   3.155  19.531  0.00  0.00    +0.000 A 
ATOM     19  C   UNL     1       4.136   3.980  18.544  0.00  0.00    +0.000 A 
ENDROOT
BRANCH  17  20
ATOM     20  O   UNL     1       1.863   1.781  20.364  0.00  0.00    +0.000 OA
ATOM     21  C   UNL     1       1.529   2.652  21.440  0.00  0.00    +0.000 C 
ENDBRANCH  17  20
BRANCH   1  22
ATOM     22  C   UNL     1       2.724   8.220  17.273  0.00  0.00    +0.000 C 
BRANCH  22  24
ATOM     23  C   UNL     1       0.885   9.665  18.268  0.00  0.00    +0.000 C 
ATOM     24  C   UNL     1       1.878   8.769  18.396  0.00  0.00    +0.000 C 
ENDBRANCH  22  24
ENDBRANCH   1  22
TORSDOF 3
ENDMDL
MODEL 8
REMARK VINA RESULT:      -5.4      7.139      9.016
REMARK  Name = 
REMARK  5 active torsions:
REMARK  status: ('A' for Active; 'I' for Inactive)
REMARK    1  A    between atoms: C_2  and  C_3
REMARK    2  A    between atoms: C_3  and  N_4
REMARK    3  A    between atoms: C_12  and  C_13
REMARK    4  A    between atoms: C_20  and  O_21
REMARK    5  A    between atoms: O_21  and  C_22
REMARK                            x       y       z     vdW  Elec       q    Type
REMARK                         _______ _______ _______ _____ _____    ______ ____
ROOT
ATOM      1  N   UNL     1      -0.979  11.102  21.692  0.00  0.00    +0.000 NA
ATOM      2  C   UNL     1      -0.475  10.281  20.590  0.00  0.00    +0.000 C 
ATOM      3  C   UNL     1       0.426  11.006  19.582  0.00  0.00    +0.000 C 
ATOM      4  C   UNL     1      -0.159  12.401  19.246  0.00  0.00    +0.000 C 
ATOM      5  C   UNL     1       0.694  13.111  18.179  0.00  0.00    +0.000 C 
ATOM      6  C   UNL     1       1.891  13.853  18.743  0.00  0.00    +0.000 C 
ATOM      7  O   UNL     1       2.970  13.855  18.137  0.00  0.00    +0.000 OA
ATOM      8  C   UNL     1       1.734  14.653  20.023  0.00  0.00    +0.000 C 
ATOM      9  C   UNL     1       0.286  14.624  20.568  0.00  0.00    +0.000 C 
ATOM     10  C   UNL     1      -0.554  15.635  19.786  0.00  0.00    +0.000 C 
ATOM     11  C   UNL     1      -0.094  13.123  20.624  0.00  0.00    +0.000 C 
ATOM     12  C   UNL     1      -1.198  12.564  21.535  0.00  0.00    +0.000 C 
ATOM     13  C   UNL     1      -2.584  12.869  20.927  0.00  0.00    +0.000 C 
ATOM     14  C   UNL     1      -2.724  12.340  19.521  0.00  0.00    +0.000 A 
ATOM     15  C   UNL     1      -3.991  11.913  19.080  0.00  0.00    +0.000 A 
ATOM     16  C   UNL     1      -4.125  11.137  17.926  0.00  0.00    +0.000 A 
ATOM     17  C   UNL     1      -2.997  10.809  17.182  0.00  0.00    +0.000 A 
ATOM     18  C   UNL     1      -1.761  11.365  17.535  0.00  0.00    +0.000 A 
ATOM     19  C   UNL     1      -1.591  12.125  18.713  0.00  0.00    +0.000 A 
ENDROOT
BRANCH  17  20
ATOM     20  O   UNL     1      -2.953   9.928  16.138  0.00  0.00    +0.000 OA
ATOM     21  C   UNL     1      -3.312  10.430  14.854  0.00  0.00    +0.000 C 
ENDBRANCH  17  20
BRANCH   1  22
ATOM     22  C   UNL     1      -0.869  10.485  23.001  0.00  0.00    +0.000 C 
BRANCH  22  24
ATOM     23  C   UNL     1       1.361   9.269  22.929  0.00  0.00    +0.000 C 
ATOM     24  C   UNL     1       0.017   9.267  22.923  0.00  0.00    +0.000 C 
ENDBRANCH  22  24
ENDBRANCH   1  22
TORSDOF 3
ENDMDL
MODEL 9
REMARK VINA RESULT:      -5.4      7.394     10.100
REMARK  Name = 
REMARK  5 active torsions:
REMARK  status: ('A' for Active; 'I' for Inactive)
REMARK    1  A    between atoms: C_2  and  C_3
REMARK    2  A    between atoms: C_3  and  N_4
REMARK    3  A    between atoms: C_12  and  C_13
REMARK    4  A    between atoms: C_20  and  O_21
REMARK    5  A    between atoms: O_21  and  C_22
REMARK                            x       y       z     vdW  Elec       q    Type
REMARK                         _______ _______ _______ _____ _____    ______ ____
ROOT
ATOM      1  N   UNL     1      -0.733  10.962  18.638  0.00  0.00    +0.000 NA
ATOM      2  C   UNL     1       0.088  10.558  19.780  0.00  0.00    +0.000 C 
ATOM      3  C   UNL     1      -0.446  10.969  21.159  0.00  0.00    +0.000 C 
ATOM      4  C   UNL     1      -0.975  12.425  21.117  0.00  0.00    +0.000 C 
ATOM      5  C   UNL     1      -1.446  12.877  22.511  0.00  0.00    +0.000 C 
ATOM      6  C   UNL     1      -2.869  12.469  22.841  0.00  0.00    +0.000 C 
ATOM      7  O   UNL     1      -3.167  12.102  23.984  0.00  0.00    +0.000 OA
ATOM      8  C   UNL     1      -3.942  12.583  21.773  0.00  0.00    +0.000 C 
ATOM      9  C   UNL     1      -3.401  13.170  20.448  0.00  0.00    +0.000 C 
ATOM     10  C   UNL     1      -3.316  14.691  20.582  0.00  0.00    +0.000 C 
ATOM     11  C   UNL     1      -2.154  12.315  20.106  0.00  0.00    +0.000 C 
ATOM     12  C   UNL     1      -1.586  12.179  18.685  0.00  0.00    +0.000 C 
ATOM     13  C   UNL     1      -0.789  13.447  18.316  0.00  0.00    +0.000 C 
ATOM     14  C   UNL     1       0.307  13.748  19.310  0.00  0.00    +0.000 A 
ATOM     15  C   UNL     1       1.486  14.365  18.853  0.00  0.00    +0.000 A 
ATOM     16  C   UNL     1       2.639  14.383  19.643  0.00  0.00    +0.000 A 
ATOM     17  C   UNL     1       2.613  13.814  20.910  0.00  0.00    +0.000 A 
ATOM     18  C   UNL     1       1.398  13.342  21.423  0.00  0.00    +0.000 A 
ATOM     19  C   UNL     1       0.228  13.281  20.636  0.00  0.00    +0.000 A 
ENDROOT
BRANCH  17  20
ATOM     20  O   UNL     1       3.696  13.610  21.721  0.00  0.00    +0.000 OA
ATOM     21  C   UNL     1       4.806  14.484  21.546  0.00  0.00    +0.000 C 
ENDBRANCH  17  20
BRANCH   1  22
ATOM     22  C   UNL     1      -0.951   9.918  17.654  0.00  0.00    +0.000 C 
BRANCH  22  24
ATOM     23  C   UNL     1      -2.776   9.970  15.887  0.00  0.00    +0.000 C 
ATOM     24  C   UNL     1      -2.380   9.955  17.171  0.00  0.00    +0.000 C 
ENDBRANCH  22  24
ENDBRANCH   1  22
TORSDOF 3
ENDMDL
