MODEL 1
REMARK VINA RESULT:      -9.6      0.000      0.000
REMARK  Name = 
REMARK  2 active torsions:
REMARK  status: ('A' for Active; 'I' for Inactive)
REMARK    1  A    between atoms: C_5  and  C_6
REMARK    2  A    between atoms: C_8  and  C_9
REMARK                            x       y       z     vdW  Elec       q    Type
REMARK                         _______ _______ _______ _____ _____    ______ ____
ROOT
ATOM      1  C   UNL     1       4.505   4.872  17.544  0.00  0.00    +0.000 A 
ATOM      2  C   UNL     1       3.801   6.012  17.895  0.00  0.00    +0.000 A 
ATOM      3  C   UNL     1       2.993   6.016  19.035  0.00  0.00    +0.000 A 
ATOM      4  C   UNL     1       2.904   4.837  19.815  0.00  0.00    +0.000 A 
ATOM      5  C   UNL     1       2.115   4.704  20.987  0.00  0.00    +0.000 A 
ATOM      6  C   UNL     1       2.077   3.516  21.712  0.00  0.00    +0.000 A 
ATOM      7  C   UNL     1       2.821   2.432  21.277  0.00  0.00    +0.000 A 
ATOM      8  C   UNL     1       3.590   2.545  20.116  0.00  0.00    +0.000 A 
ATOM      9  C   UNL     1       3.647   3.720  19.376  0.00  0.00    +0.000 A 
ATOM     10  N   UNL     1       4.413   3.736  18.271  0.00  0.00    +0.000 NA
ENDROOT
BRANCH   3  11
ATOM     11  C   UNL     1       2.296   7.261  19.382  0.00  0.00    +0.000 A 
ATOM     12  N   UNL     1       1.929   8.222  18.555  0.00  0.00    +0.000 NA
ATOM     13  C   UNL     1       1.307   9.173  19.321  0.00  0.00    +0.000 A 
ATOM     14  C   UNL     1       0.750  10.402  18.946  0.00  0.00    +0.000 A 
ATOM     15  C   UNL     1       0.164  11.197  19.935  0.00  0.00    +0.000 A 
ATOM     16  C   UNL     1       0.127  10.775  21.269  0.00  0.00    +0.000 A 
ATOM     17  C   UNL     1       0.680   9.551  21.660  0.00  0.00    +0.000 A 
ATOM     18  C   UNL     1       1.266   8.785  20.652  0.00  0.00    +0.000 A 
ATOM     19  N   UNL     1       1.906   7.577  20.667  0.00  0.00    +0.000 N 
ATOM     20  H   UNL     1       2.075   7.015  21.486  0.00  0.00    +0.000 HD
ENDBRANCH   3  11
BRANCH   1  25
ATOM     21  F   UNL     1       7.759   4.859  12.954  0.00  0.00    +0.000 F 
ATOM     22  C   UNL     1       6.995   4.844  14.053  0.00  0.00    +0.000 A 
ATOM     23  C   UNL     1       7.403   5.550  15.175  0.00  0.00    +0.000 A 
ATOM     24  C   UNL     1       6.602   5.538  16.318  0.00  0.00    +0.000 A 
ATOM     25  C   UNL     1       5.378   4.837  16.354  0.00  0.00    +0.000 A 
ATOM     26  C   UNL     1       5.007   4.118  15.202  0.00  0.00    +0.000 A 
ATOM     27  C   UNL     1       5.809   4.123  14.057  0.00  0.00    +0.000 A 
ENDBRANCH   1  25
TORSDOF 2
ENDMDL
MODEL 2
REMARK VINA RESULT:      -9.4      0.198      1.154
REMARK  Name = 
REMARK  2 active torsions:
REMARK  status: ('A' for Active; 'I' for Inactive)
REMARK    1  A    between atoms: C_5  and  C_6
REMARK    2  A    between atoms: C_8  and  C_9
REMARK                            x       y       z     vdW  Elec       q    Type
REMARK                         _______ _______ _______ _____ _____    ______ ____
ROOT
ATOM      1  C   UNL     1       4.487   4.894  17.524  0.00  0.00    +0.000 A 
ATOM      2  C   UNL     1       3.771   6.031  17.863  0.00  0.00    +0.000 A 
ATOM      3  C   UNL     1       2.959   6.038  19.000  0.00  0.00    +0.000 A 
ATOM      4  C   UNL     1       2.879   4.865  19.790  0.00  0.00    +0.000 A 
ATOM      5  C   UNL     1       2.087   4.735  20.960  0.00  0.00    +0.000 A 
ATOM      6  C   UNL     1       2.057   3.553  21.695  0.00  0.00    +0.000 A 
ATOM      7  C   UNL     1       2.812   2.472  21.272  0.00  0.00    +0.000 A 
ATOM      8  C   UNL     1       3.583   2.582  20.113  0.00  0.00    +0.000 A 
ATOM      9  C   UNL     1       3.633   3.751  19.363  0.00  0.00    +0.000 A 
ATOM     10  N   UNL     1       4.403   3.764  18.260  0.00  0.00    +0.000 NA
ENDROOT
BRANCH   3  11
ATOM     11  C   UNL     1       2.250   7.280  19.334  0.00  0.00    +0.000 A 
ATOM     12  N   UNL     1       1.782   7.633  20.516  0.00  0.00    +0.000 NA
ATOM     13  C   UNL     1       1.211   8.867  20.350  0.00  0.00    +0.000 A 
ATOM     14  C   UNL     1       0.552   9.681  21.281  0.00  0.00    +0.000 A 
ATOM     15  C   UNL     1       0.056  10.916  20.852  0.00  0.00    +0.000 A 
ATOM     16  C   UNL     1       0.216  11.334  19.526  0.00  0.00    +0.000 A 
ATOM     17  C   UNL     1       0.870  10.532  18.584  0.00  0.00    +0.000 A 
ATOM     18  C   UNL     1       1.345   9.303  19.040  0.00  0.00    +0.000 A 
ATOM     19  N   UNL     1       1.998   8.277  18.415  0.00  0.00    +0.000 N 
ATOM     20  H   UNL     1       2.244   8.250  17.437  0.00  0.00    +0.000 HD
ENDBRANCH   3  11
BRANCH   1  25
ATOM     21  F   UNL     1       7.756   4.871  12.944  0.00  0.00    +0.000 F 
ATOM     22  C   UNL     1       6.989   4.859  14.042  0.00  0.00    +0.000 A 
ATOM     23  C   UNL     1       7.387   5.578  15.159  0.00  0.00    +0.000 A 
ATOM     24  C   UNL     1       6.582   5.569  16.299  0.00  0.00    +0.000 A 
ATOM     25  C   UNL     1       5.365   4.857  16.337  0.00  0.00    +0.000 A 
ATOM     26  C   UNL     1       5.004   4.124  15.190  0.00  0.00    +0.000 A 
ATOM     27  C   UNL     1       5.810   4.127  14.048  0.00  0.00    +0.000 A 
ENDBRANCH   1  25
TORSDOF 2
ENDMDL
MODEL 3
REMARK VINA RESULT:      -8.9      2.764      7.209
REMARK  Name = 
REMARK  2 active torsions:
REMARK  status: ('A' for Active; 'I' for Inactive)
REMARK    1  A    between atoms: C_5  and  C_6
REMARK    2  A    between atoms: C_8  and  C_9
REMARK                            x       y       z     vdW  Elec       q    Type
REMARK                         _______ _______ _______ _____ _____    ______ ____
ROOT
ATOM      1  C   UNL     1       2.121   6.987  19.834  0.00  0.00    +0.000 A 
ATOM      2  C   UNL     1       2.979   6.742  18.774  0.00  0.00    +0.000 A 
ATOM      3  C   UNL     1       3.572   5.486  18.626  0.00  0.00    +0.000 A 
ATOM      4  C   UNL     1       3.285   4.477  19.577  0.00  0.00    +0.000 A 
ATOM      5  C   UNL     1       3.828   3.166  19.548  0.00  0.00    +0.000 A 
ATOM      6  C   UNL     1       3.499   2.218  20.514  0.00  0.00    +0.000 A 
ATOM      7  C   UNL     1       2.629   2.562  21.535  0.00  0.00    +0.000 A 
ATOM      8  C   UNL     1       2.101   3.855  21.583  0.00  0.00    +0.000 A 
ATOM      9  C   UNL     1       2.409   4.818  20.630  0.00  0.00    +0.000 A 
ATOM     10  N   UNL     1       1.855   6.036  20.758  0.00  0.00    +0.000 NA
ENDROOT
BRANCH   3  11
ATOM     11  C   UNL     1       4.445   5.269  17.465  0.00  0.00    +0.000 A 
ATOM     12  N   UNL     1       5.659   5.755  17.283  0.00  0.00    +0.000 NA
ATOM     13  C   UNL     1       6.085   5.280  16.070  0.00  0.00    +0.000 A 
ATOM     14  C   UNL     1       7.289   5.510  15.392  0.00  0.00    +0.000 A 
ATOM     15  C   UNL     1       7.481   4.896  14.151  0.00  0.00    +0.000 A 
ATOM     16  C   UNL     1       6.500   4.066  13.598  0.00  0.00    +0.000 A 
ATOM     17  C   UNL     1       5.291   3.829  14.262  0.00  0.00    +0.000 A 
ATOM     18  C   UNL     1       5.125   4.463  15.493  0.00  0.00    +0.000 A 
ATOM     19  N   UNL     1       4.093   4.478  16.390  0.00  0.00    +0.000 N 
ATOM     20  H   UNL     1       3.213   3.999  16.278  0.00  0.00    +0.000 HD
ENDBRANCH   3  11
BRANCH   1  25
ATOM     21  F   UNL     1      -0.505  11.923  20.466  0.00  0.00    +0.000 F 
ATOM     22  C   UNL     1       0.139  10.758  20.323  0.00  0.00    +0.000 A 
ATOM     23  C   UNL     1       0.196   9.875  21.390  0.00  0.00    +0.000 A 
ATOM     24  C   UNL     1       0.861   8.658  21.237  0.00  0.00    +0.000 A 
ATOM     25  C   UNL     1       1.466   8.297  20.014  0.00  0.00    +0.000 A 
ATOM     26  C   UNL     1       1.403   9.228  18.959  0.00  0.00    +0.000 A 
ATOM     27  C   UNL     1       0.741  10.450  19.110  0.00  0.00    +0.000 A 
ENDBRANCH   1  25
TORSDOF 2
ENDMDL
MODEL 4
REMARK VINA RESULT:      -8.8      2.716      7.173
REMARK  Name = 
REMARK  2 active torsions:
REMARK  status: ('A' for Active; 'I' for Inactive)
REMARK    1  A    between atoms: C_5  and  C_6
REMARK    2  A    between atoms: C_8  and  C_9
REMARK                            x       y       z     vdW  Elec       q    Type
REMARK                         _______ _______ _______ _____ _____    ______ ____
ROOT
ATOM      1  C   UNL     1       2.152   7.032  19.705  0.00  0.00    +0.000 A 
ATOM      2  C   UNL     1       2.975   6.731  18.631  0.00  0.00    +0.000 A 
ATOM      3  C   UNL     1       3.520   5.452  18.501  0.00  0.00    +0.000 A 
ATOM      4  C   UNL     1       3.222   4.476  19.484  0.00  0.00    +0.000 A 
ATOM      5  C   UNL     1       3.718   3.147  19.474  0.00  0.00    +0.000 A 
ATOM      6  C   UNL     1       3.380   2.234  20.471  0.00  0.00    +0.000 A 
ATOM      7  C   UNL     1       2.548   2.634  21.503  0.00  0.00    +0.000 A 
ATOM      8  C   UNL     1       2.066   3.945  21.531  0.00  0.00    +0.000 A 
ATOM      9  C   UNL     1       2.385   4.874  20.548  0.00  0.00    +0.000 A 
ATOM     10  N   UNL     1       1.876   6.114  20.659  0.00  0.00    +0.000 NA
ENDROOT
BRANCH   3  11
ATOM     11  C   UNL     1       4.357   5.176  17.325  0.00  0.00    +0.000 A 
ATOM     12  N   UNL     1       4.065   4.383  16.311  0.00  0.00    +0.000 NA
ATOM     13  C   UNL     1       5.132   4.445  15.454  0.00  0.00    +0.000 A 
ATOM     14  C   UNL     1       5.344   3.781  14.239  0.00  0.00    +0.000 A 
ATOM     15  C   UNL     1       6.534   4.025  13.547  0.00  0.00    +0.000 A 
ATOM     16  C   UNL     1       7.490   4.915  14.049  0.00  0.00    +0.000 A 
ATOM     17  C   UNL     1       7.293   5.584  15.262  0.00  0.00    +0.000 A 
ATOM     18  C   UNL     1       6.101   5.313  15.934  0.00  0.00    +0.000 A 
ATOM     19  N   UNL     1       5.592   5.756  17.123  0.00  0.00    +0.000 N 
ATOM     20  H   UNL     1       6.051   6.393  17.755  0.00  0.00    +0.000 HD
ENDBRANCH   3  11
BRANCH   1  25
ATOM     21  F   UNL     1      -0.014  12.183  20.359  0.00  0.00    +0.000 F 
ATOM     22  C   UNL     1       0.481  10.950  20.199  0.00  0.00    +0.000 A 
ATOM     23  C   UNL     1       0.903  10.543  18.942  0.00  0.00    +0.000 A 
ATOM     24  C   UNL     1       1.425   9.259  18.779  0.00  0.00    +0.000 A 
ATOM     25  C   UNL     1       1.548   8.369  19.867  0.00  0.00    +0.000 A 
ATOM     26  C   UNL     1       1.091   8.812  21.124  0.00  0.00    +0.000 A 
ATOM     27  C   UNL     1       0.564  10.095  21.290  0.00  0.00    +0.000 A 
ENDBRANCH   1  25
TORSDOF 2
ENDMDL
MODEL 5
REMARK VINA RESULT:      -8.8      2.743      7.258
REMARK  Name = 
REMARK  2 active torsions:
REMARK  status: ('A' for Active; 'I' for Inactive)
REMARK    1  A    between atoms: C_5  and  C_6
REMARK    2  A    between atoms: C_8  and  C_9
REMARK                            x       y       z     vdW  Elec       q    Type
REMARK                         _______ _______ _______ _____ _____    ______ ____
ROOT
ATOM      1  C   UNL     1       2.622   6.918  18.963  0.00  0.00    +0.000 A 
ATOM      2  C   UNL     1       3.427   6.663  17.865  0.00  0.00    +0.000 A 
ATOM      3  C   UNL     1       4.030   5.413  17.710  0.00  0.00    +0.000 A 
ATOM      4  C   UNL     1       3.808   4.419  18.694  0.00  0.00    +0.000 A 
ATOM      5  C   UNL     1       4.367   3.115  18.662  0.00  0.00    +0.000 A 
ATOM      6  C   UNL     1       4.103   2.182  19.662  0.00  0.00    +0.000 A 
ATOM      7  C   UNL     1       3.281   2.535  20.719  0.00  0.00    +0.000 A 
ATOM      8  C   UNL     1       2.737   3.821  20.770  0.00  0.00    +0.000 A 
ATOM      9  C   UNL     1       2.983   4.769  19.785  0.00  0.00    +0.000 A 
ATOM     10  N   UNL     1       2.418   5.982  19.918  0.00  0.00    +0.000 NA
ENDROOT
BRANCH   3  11
ATOM     11  C   UNL     1       4.845   5.184  16.509  0.00  0.00    +0.000 A 
ATOM     12  N   UNL     1       6.013   5.730  16.227  0.00  0.00    +0.000 NA
ATOM     13  C   UNL     1       6.395   5.217  15.016  0.00  0.00    +0.000 A 
ATOM     14  C   UNL     1       7.541   5.479  14.254  0.00  0.00    +0.000 A 
ATOM     15  C   UNL     1       7.697   4.811  13.036  0.00  0.00    +0.000 A 
ATOM     16  C   UNL     1       6.738   3.896  12.589  0.00  0.00    +0.000 A 
ATOM     17  C   UNL     1       5.587   3.624  13.338  0.00  0.00    +0.000 A 
ATOM     18  C   UNL     1       5.455   4.313  14.543  0.00  0.00    +0.000 A 
ATOM     19  N   UNL     1       4.480   4.317  15.501  0.00  0.00    +0.000 N 
ATOM     20  H   UNL     1       3.626   3.782  15.468  0.00  0.00    +0.000 HD
ENDBRANCH   3  11
BRANCH   1  25
ATOM     21  F   UNL     1      -0.038  11.831  19.633  0.00  0.00    +0.000 F 
ATOM     22  C   UNL     1       0.614  10.671  19.480  0.00  0.00    +0.000 A 
ATOM     23  C   UNL     1       0.709   9.797  20.552  0.00  0.00    +0.000 A 
ATOM     24  C   UNL     1       1.383   8.586  20.388  0.00  0.00    +0.000 A 
ATOM     25  C   UNL     1       1.958   8.223  19.152  0.00  0.00    +0.000 A 
ATOM     26  C   UNL     1       1.856   9.145  18.092  0.00  0.00    +0.000 A 
ATOM     27  C   UNL     1       1.186  10.361  18.253  0.00  0.00    +0.000 A 
ENDBRANCH   1  25
TORSDOF 2
ENDMDL
MODEL 6
REMARK VINA RESULT:      -8.7      2.724      7.222
REMARK  Name = 
REMARK  2 active torsions:
REMARK  status: ('A' for Active; 'I' for Inactive)
REMARK    1  A    between atoms: C_5  and  C_6
REMARK    2  A    between atoms: C_8  and  C_9
REMARK                            x       y       z     vdW  Elec       q    Type
REMARK                         _______ _______ _______ _____ _____    ______ ____
ROOT
ATOM      1  C   UNL     1       2.612   6.867  18.986  0.00  0.00    +0.000 A 
ATOM      2  C   UNL     1       3.388   6.579  17.874  0.00  0.00    +0.000 A 
ATOM      3  C   UNL     1       3.969   5.317  17.731  0.00  0.00    +0.000 A 
ATOM      4  C   UNL     1       3.756   4.346  18.740  0.00  0.00    +0.000 A 
ATOM      5  C   UNL     1       4.296   3.034  18.721  0.00  0.00    +0.000 A 
ATOM      6  C   UNL     1       4.042   2.125  19.745  0.00  0.00    +0.000 A 
ATOM      7  C   UNL     1       3.251   2.511  20.814  0.00  0.00    +0.000 A 
ATOM      8  C   UNL     1       2.726   3.805  20.851  0.00  0.00    +0.000 A 
ATOM      9  C   UNL     1       2.962   4.730  19.841  0.00  0.00    +0.000 A 
ATOM     10  N   UNL     1       2.417   5.954  19.963  0.00  0.00    +0.000 NA
ENDROOT
BRANCH   3  11
ATOM     11  C   UNL     1       4.753   5.053  16.516  0.00  0.00    +0.000 A 
ATOM     12  N   UNL     1       4.438   4.233  15.531  0.00  0.00    +0.000 NA
ATOM     13  C   UNL     1       5.456   4.321  14.618  0.00  0.00    +0.000 A 
ATOM     14  C   UNL     1       5.629   3.645  13.403  0.00  0.00    +0.000 A 
ATOM     15  C   UNL     1       6.771   3.921  12.646  0.00  0.00    +0.000 A 
ATOM     16  C   UNL     1       7.717   4.854  13.083  0.00  0.00    +0.000 A 
ATOM     17  C   UNL     1       7.559   5.536  14.295  0.00  0.00    +0.000 A 
ATOM     18  C   UNL     1       6.416   5.232  15.033  0.00  0.00    +0.000 A 
ATOM     19  N   UNL     1       5.953   5.675  16.241  0.00  0.00    +0.000 N 
ATOM     20  H   UNL     1       6.420   6.339  16.838  0.00  0.00    +0.000 HD
ENDBRANCH   3  11
BRANCH   1  25
ATOM     21  F   UNL     1       0.039  11.832  19.610  0.00  0.00    +0.000 F 
ATOM     22  C   UNL     1       0.670  10.659  19.468  0.00  0.00    +0.000 A 
ATOM     23  C   UNL     1       0.726   9.781  20.540  0.00  0.00    +0.000 A 
ATOM     24  C   UNL     1       1.378   8.557  20.388  0.00  0.00    +0.000 A 
ATOM     25  C   UNL     1       1.971   8.185  19.162  0.00  0.00    +0.000 A 
ATOM     26  C   UNL     1       1.910   9.110  18.103  0.00  0.00    +0.000 A 
ATOM     27  C   UNL     1       1.261  10.339  18.253  0.00  0.00    +0.000 A 
ENDBRANCH   1  25
TORSDOF 2
ENDMDL
MODEL 7
REMARK VINA RESULT:      -8.1      4.731      9.774
REMARK  Name = 
REMARK  2 active torsions:
REMARK  status: ('A' for Active; 'I' for Inactive)
REMARK    1  A    between atoms: C_5  and  C_6
REMARK    2  A    between atoms: C_8  and  C_9
REMARK                            x       y       z     vdW  Elec       q    Type
REMARK                         _______ _______ _______ _____ _____    ______ ____
ROOT
ATOM      1  C   UNL     1      -1.746  11.895  18.759  0.00  0.00    +0.000 A 
ATOM      2  C   UNL     1      -0.939  10.772  18.669  0.00  0.00    +0.000 A 
ATOM      3  C   UNL     1       0.451  10.907  18.630  0.00  0.00    +0.000 A 
ATOM      4  C   UNL     1       1.014  12.206  18.679  0.00  0.00    +0.000 A 
ATOM      5  C   UNL     1       2.405  12.481  18.637  0.00  0.00    +0.000 A 
ATOM      6  C   UNL     1       2.894  13.784  18.695  0.00  0.00    +0.000 A 
ATOM      7  C   UNL     1       2.002  14.840  18.786  0.00  0.00    +0.000 A 
ATOM      8  C   UNL     1       0.630  14.582  18.811  0.00  0.00    +0.000 A 
ATOM      9  C   UNL     1       0.117  13.292  18.759  0.00  0.00    +0.000 A 
ATOM     10  N   UNL     1      -1.220  13.140  18.787  0.00  0.00    +0.000 NA
ENDROOT
BRANCH   3  11
ATOM     11  C   UNL     1       1.261   9.683  18.570  0.00  0.00    +0.000 A 
ATOM     12  N   UNL     1       2.062   9.309  17.591  0.00  0.00    +0.000 NA
ATOM     13  C   UNL     1       2.609   8.114  17.977  0.00  0.00    +0.000 A 
ATOM     14  C   UNL     1       3.507   7.279  17.298  0.00  0.00    +0.000 A 
ATOM     15  C   UNL     1       3.920   6.099  17.923  0.00  0.00    +0.000 A 
ATOM     16  C   UNL     1       3.455   5.758  19.198  0.00  0.00    +0.000 A 
ATOM     17  C   UNL     1       2.557   6.580  19.888  0.00  0.00    +0.000 A 
ATOM     18  C   UNL     1       2.156   7.746  19.235  0.00  0.00    +0.000 A 
ATOM     19  N   UNL     1       1.297   8.750  19.586  0.00  0.00    +0.000 N 
ATOM     20  H   UNL     1       0.767   8.794  20.442  0.00  0.00    +0.000 HD
ENDBRANCH   3  11
BRANCH   1  25
ATOM     21  F   UNL     1      -7.340  11.365  19.062  0.00  0.00    +0.000 F 
ATOM     22  C   UNL     1      -6.011  11.509  18.977  0.00  0.00    +0.000 A 
ATOM     23  C   UNL     1      -5.351  12.302  19.903  0.00  0.00    +0.000 A 
ATOM     24  C   UNL     1      -3.965  12.445  19.817  0.00  0.00    +0.000 A 
ATOM     25  C   UNL     1      -3.218  11.789  18.816  0.00  0.00    +0.000 A 
ATOM     26  C   UNL     1      -3.926  11.007  17.883  0.00  0.00    +0.000 A 
ATOM     27  C   UNL     1      -5.314  10.865  17.964  0.00  0.00    +0.000 A 
ENDBRANCH   1  25
TORSDOF 2
ENDMDL
MODEL 8
REMARK VINA RESULT:      -8.1      4.330      8.142
REMARK  Name = 
REMARK  2 active torsions:
REMARK  status: ('A' for Active; 'I' for Inactive)
REMARK    1  A    between atoms: C_5  and  C_6
REMARK    2  A    between atoms: C_8  and  C_9
REMARK                            x       y       z     vdW  Elec       q    Type
REMARK                         _______ _______ _______ _____ _____    ______ ____
ROOT
ATOM      1  C   UNL     1       0.867  10.494  18.920  0.00  0.00    +0.000 A 
ATOM      2  C   UNL     1      -0.511  10.638  18.959  0.00  0.00    +0.000 A 
ATOM      3  C   UNL     1      -1.085  11.912  18.946  0.00  0.00    +0.000 A 
ATOM      4  C   UNL     1      -0.236  13.045  18.900  0.00  0.00    +0.000 A 
ATOM      5  C   UNL     1      -0.688  14.390  18.893  0.00  0.00    +0.000 A 
ATOM      6  C   UNL     1       0.201  15.460  18.840  0.00  0.00    +0.000 A 
ATOM      7  C   UNL     1       1.563  15.208  18.803  0.00  0.00    +0.000 A 
ATOM      8  C   UNL     1       2.021  13.889  18.825  0.00  0.00    +0.000 A 
ATOM      9  C   UNL     1       1.155  12.804  18.874  0.00  0.00    +0.000 A 
ATOM     10  N   UNL     1       1.687  11.569  18.895  0.00  0.00    +0.000 NA
ENDROOT
BRANCH   3  11
ATOM     11  C   UNL     1      -2.550  12.008  18.953  0.00  0.00    +0.000 A 
ATOM     12  N   UNL     1      -3.320  12.341  19.972  0.00  0.00    +0.000 NA
ATOM     13  C   UNL     1      -4.609  12.305  19.509  0.00  0.00    +0.000 A 
ATOM     14  C   UNL     1      -5.810  12.554  20.185  0.00  0.00    +0.000 A 
ATOM     15  C   UNL     1      -7.008  12.451  19.472  0.00  0.00    +0.000 A 
ATOM     16  C   UNL     1      -7.012  12.115  18.114  0.00  0.00    +0.000 A 
ATOM     17  C   UNL     1      -5.820  11.862  17.425  0.00  0.00    +0.000 A 
ATOM     18  C   UNL     1      -4.642  11.963  18.165  0.00  0.00    +0.000 A 
ATOM     19  N   UNL     1      -3.329  11.770  17.839  0.00  0.00    +0.000 N 
ATOM     20  H   UNL     1      -2.986  11.489  16.933  0.00  0.00    +0.000 HD
ENDBRANCH   3  11
BRANCH   1  25
ATOM     21  F   UNL     1       3.435   5.488  18.956  0.00  0.00    +0.000 F 
ATOM     22  C   UNL     1       2.805   6.669  18.940  0.00  0.00    +0.000 A 
ATOM     23  C   UNL     1       2.141   7.102  20.078  0.00  0.00    +0.000 A 
ATOM     24  C   UNL     1       1.491   8.337  20.062  0.00  0.00    +0.000 A 
ATOM     25  C   UNL     1       1.506   9.163  18.918  0.00  0.00    +0.000 A 
ATOM     26  C   UNL     1       2.176   8.682  17.777  0.00  0.00    +0.000 A 
ATOM     27  C   UNL     1       2.824   7.443  17.788  0.00  0.00    +0.000 A 
ENDBRANCH   1  25
TORSDOF 2
ENDMDL
MODEL 9
REMARK VINA RESULT:      -8.0      4.215      7.886
REMARK  Name = 
REMARK  2 active torsions:
REMARK  status: ('A' for Active; 'I' for Inactive)
REMARK    1  A    between atoms: C_5  and  C_6
REMARK    2  A    between atoms: C_8  and  C_9
REMARK                            x       y       z     vdW  Elec       q    Type
REMARK                         _______ _______ _______ _____ _____    ______ ____
ROOT
ATOM      1  C   UNL     1       1.031  10.310  18.838  0.00  0.00    +0.000 A 
ATOM      2  C   UNL     1      -0.347  10.453  18.811  0.00  0.00    +0.000 A 
ATOM      3  C   UNL     1      -0.921  11.726  18.774  0.00  0.00    +0.000 A 
ATOM      4  C   UNL     1      -0.072  12.860  18.771  0.00  0.00    +0.000 A 
ATOM      5  C   UNL     1      -0.524  14.204  18.744  0.00  0.00    +0.000 A 
ATOM      6  C   UNL     1       0.366  15.275  18.737  0.00  0.00    +0.000 A 
ATOM      7  C   UNL     1       1.728  15.025  18.765  0.00  0.00    +0.000 A 
ATOM      8  C   UNL     1       2.185  13.706  18.806  0.00  0.00    +0.000 A 
ATOM      9  C   UNL     1       1.319  12.620  18.811  0.00  0.00    +0.000 A 
ATOM     10  N   UNL     1       1.850  11.385  18.854  0.00  0.00    +0.000 NA
ENDROOT
BRANCH   3  11
ATOM     11  C   UNL     1      -2.385  11.821  18.710  0.00  0.00    +0.000 A 
ATOM     12  N   UNL     1      -3.159  11.487  17.694  0.00  0.00    +0.000 NA
ATOM     13  C   UNL     1      -4.446  11.737  18.092  0.00  0.00    +0.000 A 
ATOM     14  C   UNL     1      -5.647  11.578  17.389  0.00  0.00    +0.000 A 
ATOM     15  C   UNL     1      -6.843  11.907  18.033  0.00  0.00    +0.000 A 
ATOM     16  C   UNL     1      -6.846  12.379  19.350  0.00  0.00    +0.000 A 
ATOM     17  C   UNL     1      -5.654  12.546  20.064  0.00  0.00    +0.000 A 
ATOM     18  C   UNL     1      -4.477  12.217  19.392  0.00  0.00    +0.000 A 
ATOM     19  N   UNL     1      -3.161  12.271  19.758  0.00  0.00    +0.000 N 
ATOM     20  H   UNL     1      -2.813  12.597  20.647  0.00  0.00    +0.000 HD
ENDBRANCH   3  11
BRANCH   1  25
ATOM     21  F   UNL     1       3.598   5.305  18.987  0.00  0.00    +0.000 F 
ATOM     22  C   UNL     1       2.969   6.486  18.944  0.00  0.00    +0.000 A 
ATOM     23  C   UNL     1       2.242   6.912  20.045  0.00  0.00    +0.000 A 
ATOM     24  C   UNL     1       1.593   8.147  20.000  0.00  0.00    +0.000 A 
ATOM     25  C   UNL     1       1.671   8.980  18.864  0.00  0.00    +0.000 A 
ATOM     26  C   UNL     1       2.403   8.505  17.759  0.00  0.00    +0.000 A 
ATOM     27  C   UNL     1       3.050   7.267  17.798  0.00  0.00    +0.000 A 
ENDBRANCH   1  25
TORSDOF 2
ENDMDL
