MODEL 1
REMARK VINA RESULT:      -8.0      0.000      0.000
REMARK  Name = 
REMARK  8 active torsions:
REMARK  status: ('A' for Active; 'I' for Inactive)
REMARK    1  A    between atoms: C_1  and  C_2
REMARK    2  A    between atoms: C_2  and  C_3
REMARK    3  A    between atoms: C_2  and  C_4
REMARK    4  A    between atoms: C_7  and  N_8
REMARK    5  A    between atoms: C_9  and  C_11
REMARK    6  A    between atoms: C_13  and  S_14
REMARK    7  A    between atoms: S_14  and  N_17
REMARK    8  A    between atoms: N_24  and  C_25
REMARK                            x       y       z     vdW  Elec       q    Type
REMARK                         _______ _______ _______ _____ _____    ______ ____
ROOT
ATOM      1  C   UNL     1       3.621   6.503  17.915  0.00  0.00    +0.000 A 
ATOM      2  C   UNL     1       4.920   6.737  17.485  0.00  0.00    +0.000 A 
ATOM      3  C   UNL     1       5.414   5.542  16.910  0.00  0.00    +0.000 A 
ATOM      4  C   UNL     1       4.432   4.583  17.049  0.00  0.00    +0.000 A 
ATOM      5  N   UNL     1       3.350   5.173  17.655  0.00  0.00    +0.000 N 
ATOM      6  C   UNL     1       2.070   4.520  17.859  0.00  0.00    +0.000 C 
ENDROOT
BRANCH   1   8
ATOM      7  N   UNL     1       2.435   8.537  17.708  0.00  0.00    +0.000 N 
ATOM      8  C   UNL     1       2.690   7.436  18.513  0.00  0.00    +0.000 C 
ATOM      9  O   UNL     1       2.156   7.211  19.596  0.00  0.00    +0.000 OA
ATOM     10  H   UNL     1       2.783   8.488  16.759  0.00  0.00    +0.000 HD
BRANCH   7  14
ATOM     11  C   UNL     1      -0.220  11.698  18.608  0.00  0.00    +0.000 A 
ATOM     12  C   UNL     1       1.161  11.903  18.692  0.00  0.00    +0.000 A 
ATOM     13  C   UNL     1       2.051  10.867  18.394  0.00  0.00    +0.000 A 
ATOM     14  C   UNL     1       1.581   9.613  18.012  0.00  0.00    +0.000 A 
ATOM     15  C   UNL     1       0.207   9.403  17.911  0.00  0.00    +0.000 A 
ATOM     16  C   UNL     1      -0.686  10.430  18.225  0.00  0.00    +0.000 A 
BRANCH  11  18
ATOM     17  C   UNL     1      -2.086  12.486  20.081  0.00  0.00    +0.000 C 
ATOM     18  C   UNL     1      -1.182  12.835  18.894  0.00  0.00    +0.000 C 
ATOM     19  C   UNL     1      -0.439  14.150  19.141  0.00  0.00    +0.000 C 
ENDBRANCH  11  18
ENDBRANCH   7  14
ENDBRANCH   1   8
BRANCH   3  20
ATOM     20  S   UNL     1       6.973   5.380  16.157  0.00  0.00    +0.000 S 
ATOM     21  O   UNL     1       7.572   6.686  16.311  0.00  0.00    +0.000 OA
ATOM     22  O   UNL     1       7.530   4.200  16.784  0.00  0.00    +0.000 OA
BRANCH  20  23
ATOM     23  N   UNL     1       6.735   5.062  14.492  0.00  0.00    +0.000 NA
ATOM     24  C   UNL     1       7.871   5.467  13.623  0.00  0.00    +0.000 C 
ATOM     25  C   UNL     1       7.535   5.283  12.148  0.00  0.00    +0.000 C 
ATOM     26  C   UNL     1       7.070   3.861  11.866  0.00  0.00    +0.000 C 
ATOM     27  C   UNL     1       5.863   3.537  12.734  0.00  0.00    +0.000 C 
ATOM     28  C   UNL     1       6.185   3.711  14.213  0.00  0.00    +0.000 C 
ENDBRANCH  20  23
ENDBRANCH   3  20
TORSDOF 5
ENDMDL
MODEL 2
REMARK VINA RESULT:      -8.0      1.722      1.939
REMARK  Name = 
REMARK  8 active torsions:
REMARK  status: ('A' for Active; 'I' for Inactive)
REMARK    1  A    between atoms: C_1  and  C_2
REMARK    2  A    between atoms: C_2  and  C_3
REMARK    3  A    between atoms: C_2  and  C_4
REMARK    4  A    between atoms: C_7  and  N_8
REMARK    5  A    between atoms: C_9  and  C_11
REMARK    6  A    between atoms: C_13  and  S_14
REMARK    7  A    between atoms: S_14  and  N_17
REMARK    8  A    between atoms: N_24  and  C_25
REMARK                            x       y       z     vdW  Elec       q    Type
REMARK                         _______ _______ _______ _____ _____    ______ ____
ROOT
ATOM      1  C   UNL     1       3.680   5.371  18.224  0.00  0.00    +0.000 A 
ATOM      2  C   UNL     1       4.885   5.918  17.808  0.00  0.00    +0.000 A 
ATOM      3  C   UNL     1       5.536   4.973  16.981  0.00  0.00    +0.000 A 
ATOM      4  C   UNL     1       4.747   3.842  16.950  0.00  0.00    +0.000 A 
ATOM      5  N   UNL     1       3.624   4.092  17.702  0.00  0.00    +0.000 N 
ATOM      6  C   UNL     1       2.494   3.188  17.809  0.00  0.00    +0.000 C 
ENDROOT
BRANCH   1   8
ATOM      7  N   UNL     1       2.693   7.366  19.019  0.00  0.00    +0.000 N 
ATOM      8  C   UNL     1       2.646   5.980  19.033  0.00  0.00    +0.000 C 
ATOM      9  O   UNL     1       1.798   5.305  19.611  0.00  0.00    +0.000 OA
ATOM     10  H   UNL     1       3.315   7.785  18.338  0.00  0.00    +0.000 HD
BRANCH   7  14
ATOM     11  C   UNL     1       0.074  10.036  20.982  0.00  0.00    +0.000 A 
ATOM     12  C   UNL     1       0.672   8.994  21.698  0.00  0.00    +0.000 A 
ATOM     13  C   UNL     1       1.542   8.105  21.062  0.00  0.00    +0.000 A 
ATOM     14  C   UNL     1       1.830   8.238  19.705  0.00  0.00    +0.000 A 
ATOM     15  C   UNL     1       1.251   9.282  18.987  0.00  0.00    +0.000 A 
ATOM     16  C   UNL     1       0.366  10.162  19.614  0.00  0.00    +0.000 A 
BRANCH  11  18
ATOM     17  C   UNL     1      -1.065  10.603  23.139  0.00  0.00    +0.000 C 
ATOM     18  C   UNL     1      -0.840  11.023  21.683  0.00  0.00    +0.000 C 
ATOM     19  C   UNL     1      -0.291  12.450  21.604  0.00  0.00    +0.000 C 
ENDBRANCH  11  18
ENDBRANCH   7  14
ENDBRANCH   1   8
BRANCH   3  20
ATOM     20  S   UNL     1       7.042   5.252  16.158  0.00  0.00    +0.000 S 
ATOM     21  O   UNL     1       7.320   6.649  16.403  0.00  0.00    +0.000 OA
ATOM     22  O   UNL     1       7.901   4.198  16.657  0.00  0.00    +0.000 OA
BRANCH  20  23
ATOM     23  N   UNL     1       6.791   5.013  14.481  0.00  0.00    +0.000 NA
ATOM     24  C   UNL     1       7.949   5.391  13.629  0.00  0.00    +0.000 C 
ATOM     25  C   UNL     1       7.607   5.283  12.148  0.00  0.00    +0.000 C 
ATOM     26  C   UNL     1       7.067   3.901  11.809  0.00  0.00    +0.000 C 
ATOM     27  C   UNL     1       5.842   3.608  12.664  0.00  0.00    +0.000 C 
ATOM     28  C   UNL     1       6.170   3.705  14.149  0.00  0.00    +0.000 C 
ENDBRANCH  20  23
ENDBRANCH   3  20
TORSDOF 5
ENDMDL
MODEL 3
REMARK VINA RESULT:      -8.0      1.234      1.482
REMARK  Name = 
REMARK  8 active torsions:
REMARK  status: ('A' for Active; 'I' for Inactive)
REMARK    1  A    between atoms: C_1  and  C_2
REMARK    2  A    between atoms: C_2  and  C_3
REMARK    3  A    between atoms: C_2  and  C_4
REMARK    4  A    between atoms: C_7  and  N_8
REMARK    5  A    between atoms: C_9  and  C_11
REMARK    6  A    between atoms: C_13  and  S_14
REMARK    7  A    between atoms: S_14  and  N_17
REMARK    8  A    between atoms: N_24  and  C_25
REMARK                            x       y       z     vdW  Elec       q    Type
REMARK                         _______ _______ _______ _____ _____    ______ ____
ROOT
ATOM      1  C   UNL     1       3.784   5.969  18.061  0.00  0.00    +0.000 A 
ATOM      2  C   UNL     1       4.789   6.321  17.171  0.00  0.00    +0.000 A 
ATOM      3  C   UNL     1       5.831   5.370  17.286  0.00  0.00    +0.000 A 
ATOM      4  C   UNL     1       5.472   4.486  18.283  0.00  0.00    +0.000 A 
ATOM      5  N   UNL     1       4.231   4.854  18.745  0.00  0.00    +0.000 N 
ATOM      6  C   UNL     1       3.460   4.092  19.710  0.00  0.00    +0.000 C 
ENDROOT
BRANCH   1   8
ATOM      7  N   UNL     1       2.606   7.920  18.690  0.00  0.00    +0.000 N 
ATOM      8  C   UNL     1       2.499   6.604  18.264  0.00  0.00    +0.000 C 
ATOM      9  O   UNL     1       1.446   6.022  18.017  0.00  0.00    +0.000 OA
ATOM     10  H   UNL     1       3.532   8.328  18.652  0.00  0.00    +0.000 HD
BRANCH   7  14
ATOM     11  C   UNL     1      -0.576  10.523  19.658  0.00  0.00    +0.000 A 
ATOM     12  C   UNL     1      -0.128  10.433  18.336  0.00  0.00    +0.000 A 
ATOM     13  C   UNL     1       0.922   9.574  18.001  0.00  0.00    +0.000 A 
ATOM     14  C   UNL     1       1.542   8.794  18.974  0.00  0.00    +0.000 A 
ATOM     15  C   UNL     1       1.092   8.866  20.292  0.00  0.00    +0.000 A 
ATOM     16  C   UNL     1       0.056   9.737  20.634  0.00  0.00    +0.000 A 
BRANCH  11  18
ATOM     17  C   UNL     1      -1.236  12.733  20.635  0.00  0.00    +0.000 C 
ATOM     18  C   UNL     1      -1.742  11.428  20.012  0.00  0.00    +0.000 C 
ATOM     19  C   UNL     1      -2.623  11.709  18.793  0.00  0.00    +0.000 C 
ENDBRANCH  11  18
ENDBRANCH   7  14
ENDBRANCH   1   8
BRANCH   3  20
ATOM     20  S   UNL     1       7.265   5.354  16.304  0.00  0.00    +0.000 S 
ATOM     21  O   UNL     1       7.755   6.712  16.379  0.00  0.00    +0.000 OA
ATOM     22  O   UNL     1       8.020   4.234  16.825  0.00  0.00    +0.000 OA
BRANCH  20  23
ATOM     23  N   UNL     1       6.808   5.009  14.690  0.00  0.00    +0.000 NA
ATOM     24  C   UNL     1       7.890   5.211  13.691  0.00  0.00    +0.000 C 
ATOM     25  C   UNL     1       7.375   5.019  12.270  0.00  0.00    +0.000 C 
ATOM     26  C   UNL     1       6.688   3.670  12.112  0.00  0.00    +0.000 C 
ATOM     27  C   UNL     1       5.547   3.560  13.114  0.00  0.00    +0.000 C 
ATOM     28  C   UNL     1       6.047   3.742  14.541  0.00  0.00    +0.000 C 
ENDBRANCH  20  23
ENDBRANCH   3  20
TORSDOF 5
ENDMDL
MODEL 4
REMARK VINA RESULT:      -8.0      1.112      1.302
REMARK  Name = 
REMARK  8 active torsions:
REMARK  status: ('A' for Active; 'I' for Inactive)
REMARK    1  A    between atoms: C_1  and  C_2
REMARK    2  A    between atoms: C_2  and  C_3
REMARK    3  A    between atoms: C_2  and  C_4
REMARK    4  A    between atoms: C_7  and  N_8
REMARK    5  A    between atoms: C_9  and  C_11
REMARK    6  A    between atoms: C_13  and  S_14
REMARK    7  A    between atoms: S_14  and  N_17
REMARK    8  A    between atoms: N_24  and  C_25
REMARK                            x       y       z     vdW  Elec       q    Type
REMARK                         _______ _______ _______ _____ _____    ______ ____
ROOT
ATOM      1  C   UNL     1       3.737   5.789  18.202  0.00  0.00    +0.000 A 
ATOM      2  C   UNL     1       4.989   6.207  17.774  0.00  0.00    +0.000 A 
ATOM      3  C   UNL     1       5.546   5.180  16.976  0.00  0.00    +0.000 A 
ATOM      4  C   UNL     1       4.653   4.129  16.976  0.00  0.00    +0.000 A 
ATOM      5  N   UNL     1       3.560   4.507  17.718  0.00  0.00    +0.000 N 
ATOM      6  C   UNL     1       2.348   3.717  17.848  0.00  0.00    +0.000 C 
ENDROOT
BRANCH   1   8
ATOM      7  N   UNL     1       2.459   7.760  18.460  0.00  0.00    +0.000 N 
ATOM      8  C   UNL     1       2.767   6.517  18.992  0.00  0.00    +0.000 C 
ATOM      9  O   UNL     1       2.248   6.024  19.991  0.00  0.00    +0.000 OA
ATOM     10  H   UNL     1       2.806   7.945  17.527  0.00  0.00    +0.000 HD
BRANCH   7  14
ATOM     11  C   UNL     1      -0.274  10.609  19.964  0.00  0.00    +0.000 A 
ATOM     12  C   UNL     1       0.377   9.737  20.842  0.00  0.00    +0.000 A 
ATOM     13  C   UNL     1       1.286   8.791  20.359  0.00  0.00    +0.000 A 
ATOM     14  C   UNL     1       1.559   8.698  18.996  0.00  0.00    +0.000 A 
ATOM     15  C   UNL     1       0.926   9.573  18.115  0.00  0.00    +0.000 A 
ATOM     16  C   UNL     1       0.004  10.506  18.591  0.00  0.00    +0.000 A 
BRANCH  11  18
ATOM     17  C   UNL     1      -0.458  12.776  21.207  0.00  0.00    +0.000 C 
ATOM     18  C   UNL     1      -1.230  11.660  20.495  0.00  0.00    +0.000 C 
ATOM     19  C   UNL     1      -2.111  12.230  19.381  0.00  0.00    +0.000 C 
ENDBRANCH  11  18
ENDBRANCH   7  14
ENDBRANCH   1   8
BRANCH   3  20
ATOM     20  S   UNL     1       7.072   5.290  16.149  0.00  0.00    +0.000 S 
ATOM     21  O   UNL     1       7.476   6.664  16.344  0.00  0.00    +0.000 OA
ATOM     22  O   UNL     1       7.830   4.182  16.689  0.00  0.00    +0.000 OA
BRANCH  20  23
ATOM     23  N   UNL     1       6.801   5.014  14.481  0.00  0.00    +0.000 NA
ATOM     24  C   UNL     1       7.947   5.375  13.607  0.00  0.00    +0.000 C 
ATOM     25  C   UNL     1       7.587   5.234  12.133  0.00  0.00    +0.000 C 
ATOM     26  C   UNL     1       7.046   3.843  11.832  0.00  0.00    +0.000 C 
ATOM     27  C   UNL     1       5.832   3.567  12.708  0.00  0.00    +0.000 C 
ATOM     28  C   UNL     1       6.178   3.698  14.185  0.00  0.00    +0.000 C 
ENDBRANCH  20  23
ENDBRANCH   3  20
TORSDOF 5
ENDMDL
MODEL 5
REMARK VINA RESULT:      -7.8      0.481      1.063
REMARK  Name = 
REMARK  8 active torsions:
REMARK  status: ('A' for Active; 'I' for Inactive)
REMARK    1  A    between atoms: C_1  and  C_2
REMARK    2  A    between atoms: C_2  and  C_3
REMARK    3  A    between atoms: C_2  and  C_4
REMARK    4  A    between atoms: C_7  and  N_8
REMARK    5  A    between atoms: C_9  and  C_11
REMARK    6  A    between atoms: C_13  and  S_14
REMARK    7  A    between atoms: S_14  and  N_17
REMARK    8  A    between atoms: N_24  and  C_25
REMARK                            x       y       z     vdW  Elec       q    Type
REMARK                         _______ _______ _______ _____ _____    ______ ____
ROOT
ATOM      1  C   UNL     1       3.658   6.398  17.891  0.00  0.00    +0.000 A 
ATOM      2  C   UNL     1       4.963   6.622  17.477  0.00  0.00    +0.000 A 
ATOM      3  C   UNL     1       5.441   5.438  16.867  0.00  0.00    +0.000 A 
ATOM      4  C   UNL     1       4.442   4.493  16.968  0.00  0.00    +0.000 A 
ATOM      5  N   UNL     1       3.366   5.082  17.586  0.00  0.00    +0.000 N 
ATOM      6  C   UNL     1       2.074   4.444  17.761  0.00  0.00    +0.000 C 
ENDROOT
BRANCH   1   8
ATOM      7  N   UNL     1       2.201   8.238  17.615  0.00  0.00    +0.000 N 
ATOM      8  C   UNL     1       2.739   7.328  18.512  0.00  0.00    +0.000 C 
ATOM      9  O   UNL     1       2.446   7.247  19.703  0.00  0.00    +0.000 OA
ATOM     10  H   UNL     1       2.374   8.056  16.635  0.00  0.00    +0.000 HD
BRANCH   7  14
ATOM     11  C   UNL     1      -0.461  11.386  18.538  0.00  0.00    +0.000 A 
ATOM     12  C   UNL     1      -0.956  10.184  18.021  0.00  0.00    +0.000 A 
ATOM     13  C   UNL     1      -0.088   9.134  17.714  0.00  0.00    +0.000 A 
ATOM     14  C   UNL     1       1.285   9.263  17.914  0.00  0.00    +0.000 A 
ATOM     15  C   UNL     1       1.786  10.451  18.443  0.00  0.00    +0.000 A 
ATOM     16  C   UNL     1       0.923  11.510  18.734  0.00  0.00    +0.000 A 
BRANCH  11  18
ATOM     17  C   UNL     1      -2.866  12.050  18.771  0.00  0.00    +0.000 C 
ATOM     18  C   UNL     1      -1.410  12.510  18.907  0.00  0.00    +0.000 C 
ATOM     19  C   UNL     1      -1.133  13.038  20.317  0.00  0.00    +0.000 C 
ENDBRANCH  11  18
ENDBRANCH   7  14
ENDBRANCH   1   8
BRANCH   3  20
ATOM     20  S   UNL     1       7.002   5.274  16.119  0.00  0.00    +0.000 S 
ATOM     21  O   UNL     1       7.634   6.554  16.344  0.00  0.00    +0.000 OA
ATOM     22  O   UNL     1       7.522   4.049  16.688  0.00  0.00    +0.000 OA
BRANCH  20  23
ATOM     23  N   UNL     1       6.771   5.048  14.437  0.00  0.00    +0.000 NA
ATOM     24  C   UNL     1       7.917   5.486  13.598  0.00  0.00    +0.000 C 
ATOM     25  C   UNL     1       7.588   5.385  12.114  0.00  0.00    +0.000 C 
ATOM     26  C   UNL     1       7.110   3.985  11.753  0.00  0.00    +0.000 C 
ATOM     27  C   UNL     1       5.894   3.629  12.596  0.00  0.00    +0.000 C 
ATOM     28  C   UNL     1       6.209   3.719  14.083  0.00  0.00    +0.000 C 
ENDBRANCH  20  23
ENDBRANCH   3  20
TORSDOF 5
ENDMDL
MODEL 6
REMARK VINA RESULT:      -7.7      1.652      1.991
REMARK  Name = 
REMARK  8 active torsions:
REMARK  status: ('A' for Active; 'I' for Inactive)
REMARK    1  A    between atoms: C_1  and  C_2
REMARK    2  A    between atoms: C_2  and  C_3
REMARK    3  A    between atoms: C_2  and  C_4
REMARK    4  A    between atoms: C_7  and  N_8
REMARK    5  A    between atoms: C_9  and  C_11
REMARK    6  A    between atoms: C_13  and  S_14
REMARK    7  A    between atoms: S_14  and  N_17
REMARK    8  A    between atoms: N_24  and  C_25
REMARK                            x       y       z     vdW  Elec       q    Type
REMARK                         _______ _______ _______ _____ _____    ______ ____
ROOT
ATOM      1  C   UNL     1       3.453   6.913  17.678  0.00  0.00    +0.000 A 
ATOM      2  C   UNL     1       4.756   7.047  17.221  0.00  0.00    +0.000 A 
ATOM      3  C   UNL     1       5.259   5.755  16.938  0.00  0.00    +0.000 A 
ATOM      4  C   UNL     1       4.276   4.849  17.280  0.00  0.00    +0.000 A 
ATOM      5  N   UNL     1       3.186   5.557  17.724  0.00  0.00    +0.000 N 
ATOM      6  C   UNL     1       1.905   4.962  18.056  0.00  0.00    +0.000 C 
ENDROOT
BRANCH   1   8
ATOM      7  N   UNL     1       2.280   8.023  19.404  0.00  0.00    +0.000 N 
ATOM      8  C   UNL     1       2.514   7.953  18.038  0.00  0.00    +0.000 C 
ATOM      9  O   UNL     1       2.040   8.714  17.198  0.00  0.00    +0.000 OA
ATOM     10  H   UNL     1       2.894   7.473  19.991  0.00  0.00    +0.000 HD
BRANCH   7  14
ATOM     11  C   UNL     1      -0.282  10.803  21.289  0.00  0.00    +0.000 A 
ATOM     12  C   UNL     1      -0.192   9.496  21.778  0.00  0.00    +0.000 A 
ATOM     13  C   UNL     1       0.654   8.567  21.167  0.00  0.00    +0.000 A 
ATOM     14  C   UNL     1       1.420   8.922  20.059  0.00  0.00    +0.000 A 
ATOM     15  C   UNL     1       1.347  10.227  19.573  0.00  0.00    +0.000 A 
ATOM     16  C   UNL     1       0.490  11.153  20.170  0.00  0.00    +0.000 A 
BRANCH  11  18
ATOM     17  C   UNL     1      -2.262  12.314  21.022  0.00  0.00    +0.000 C 
ATOM     18  C   UNL     1      -1.172  11.820  21.979  0.00  0.00    +0.000 C 
ATOM     19  C   UNL     1      -1.785  11.251  23.260  0.00  0.00    +0.000 C 
ENDBRANCH  11  18
ENDBRANCH   7  14
ENDBRANCH   1   8
BRANCH   3  20
ATOM     20  S   UNL     1       6.826   5.432  16.259  0.00  0.00    +0.000 S 
ATOM     21  O   UNL     1       7.533   6.685  16.403  0.00  0.00    +0.000 OA
ATOM     22  O   UNL     1       7.249   4.228  16.941  0.00  0.00    +0.000 OA
BRANCH  20  23
ATOM     23  N   UNL     1       6.630   5.085  14.593  0.00  0.00    +0.000 NA
ATOM     24  C   UNL     1       7.834   5.355  13.766  0.00  0.00    +0.000 C 
ATOM     25  C   UNL     1       7.544   5.156  12.283  0.00  0.00    +0.000 C 
ATOM     26  C   UNL     1       6.961   3.775  12.020  0.00  0.00    +0.000 C 
ATOM     27  C   UNL     1       5.693   3.592  12.842  0.00  0.00    +0.000 C 
ATOM     28  C   UNL     1       5.967   3.782  14.328  0.00  0.00    +0.000 C 
ENDBRANCH  20  23
ENDBRANCH   3  20
TORSDOF 5
ENDMDL
MODEL 7
REMARK VINA RESULT:      -7.5      2.950      4.300
REMARK  Name = 
REMARK  8 active torsions:
REMARK  status: ('A' for Active; 'I' for Inactive)
REMARK    1  A    between atoms: C_1  and  C_2
REMARK    2  A    between atoms: C_2  and  C_3
REMARK    3  A    between atoms: C_2  and  C_4
REMARK    4  A    between atoms: C_7  and  N_8
REMARK    5  A    between atoms: C_9  and  C_11
REMARK    6  A    between atoms: C_13  and  S_14
REMARK    7  A    between atoms: S_14  and  N_17
REMARK    8  A    between atoms: N_24  and  C_25
REMARK                            x       y       z     vdW  Elec       q    Type
REMARK                         _______ _______ _______ _____ _____    ______ ____
ROOT
ATOM      1  C   UNL     1       1.901   7.515  19.963  0.00  0.00    +0.000 A 
ATOM      2  C   UNL     1       2.140   6.163  20.165  0.00  0.00    +0.000 A 
ATOM      3  C   UNL     1       2.678   5.628  18.971  0.00  0.00    +0.000 A 
ATOM      4  C   UNL     1       2.705   6.646  18.040  0.00  0.00    +0.000 A 
ATOM      5  N   UNL     1       2.237   7.785  18.649  0.00  0.00    +0.000 N 
ATOM      6  C   UNL     1       2.232   9.099  18.032  0.00  0.00    +0.000 C 
ENDROOT
BRANCH   1   8
ATOM      7  N   UNL     1       0.263   9.142  20.472  0.00  0.00    +0.000 N 
ATOM      8  C   UNL     1       1.409   8.494  20.909  0.00  0.00    +0.000 C 
ATOM      9  O   UNL     1       1.946   8.661  22.002  0.00  0.00    +0.000 OA
ATOM     10  H   UNL     1      -0.181   8.757  19.648  0.00  0.00    +0.000 HD
BRANCH   7  14
ATOM     11  C   UNL     1      -1.888  12.195  22.444  0.00  0.00    +0.000 A 
ATOM     12  C   UNL     1      -1.398  11.107  23.173  0.00  0.00    +0.000 A 
ATOM     13  C   UNL     1      -0.682  10.091  22.534  0.00  0.00    +0.000 A 
ATOM     14  C   UNL     1      -0.445  10.141  21.162  0.00  0.00    +0.000 A 
ATOM     15  C   UNL     1      -0.917  11.230  20.430  0.00  0.00    +0.000 A 
ATOM     16  C   UNL     1      -1.648  12.238  21.062  0.00  0.00    +0.000 A 
BRANCH  11  18
ATOM     17  C   UNL     1      -3.701  12.744  24.083  0.00  0.00    +0.000 C 
ATOM     18  C   UNL     1      -2.631  13.316  23.147  0.00  0.00    +0.000 C 
ATOM     19  C   UNL     1      -1.672  14.233  23.909  0.00  0.00    +0.000 C 
ENDBRANCH  11  18
ENDBRANCH   7  14
ENDBRANCH   1   8
BRANCH   3  20
ATOM     20  S   UNL     1       3.213   3.985  18.779  0.00  0.00    +0.000 S 
ATOM     21  O   UNL     1       3.376   3.510  20.134  0.00  0.00    +0.000 OA
ATOM     22  O   UNL     1       2.235   3.414  17.877  0.00  0.00    +0.000 OA
BRANCH  20  23
ATOM     23  N   UNL     1       4.738   4.003  18.001  0.00  0.00    +0.000 NA
ATOM     24  C   UNL     1       4.669   4.106  16.520  0.00  0.00    +0.000 C 
ATOM     25  C   UNL     1       6.050   3.978  15.890  0.00  0.00    +0.000 C 
ATOM     26  C   UNL     1       7.023   4.982  16.493  0.00  0.00    +0.000 C 
ATOM     27  C   UNL     1       7.101   4.773  17.999  0.00  0.00    +0.000 C 
ATOM     28  C   UNL     1       5.728   4.905  18.645  0.00  0.00    +0.000 C 
ENDBRANCH  20  23
ENDBRANCH   3  20
TORSDOF 5
ENDMDL
MODEL 8
REMARK VINA RESULT:      -7.4      2.952      4.325
REMARK  Name = 
REMARK  8 active torsions:
REMARK  status: ('A' for Active; 'I' for Inactive)
REMARK    1  A    between atoms: C_1  and  C_2
REMARK    2  A    between atoms: C_2  and  C_3
REMARK    3  A    between atoms: C_2  and  C_4
REMARK    4  A    between atoms: C_7  and  N_8
REMARK    5  A    between atoms: C_9  and  C_11
REMARK    6  A    between atoms: C_13  and  S_14
REMARK    7  A    between atoms: S_14  and  N_17
REMARK    8  A    between atoms: N_24  and  C_25
REMARK                            x       y       z     vdW  Elec       q    Type
REMARK                         _______ _______ _______ _____ _____    ______ ____
ROOT
ATOM      1  C   UNL     1       1.921   7.524  19.962  0.00  0.00    +0.000 A 
ATOM      2  C   UNL     1       2.164   6.174  20.169  0.00  0.00    +0.000 A 
ATOM      3  C   UNL     1       2.698   5.634  18.975  0.00  0.00    +0.000 A 
ATOM      4  C   UNL     1       2.720   6.649  18.041  0.00  0.00    +0.000 A 
ATOM      5  N   UNL     1       2.251   7.789  18.646  0.00  0.00    +0.000 N 
ATOM      6  C   UNL     1       2.241   9.100  18.023  0.00  0.00    +0.000 C 
ENDROOT
BRANCH   1   8
ATOM      7  N   UNL     1       0.295   9.165  20.461  0.00  0.00    +0.000 N 
ATOM      8  C   UNL     1       1.431   8.506  20.906  0.00  0.00    +0.000 C 
ATOM      9  O   UNL     1       1.960   8.666  22.003  0.00  0.00    +0.000 OA
ATOM     10  H   UNL     1      -0.146   8.785  19.633  0.00  0.00    +0.000 HD
BRANCH   7  14
ATOM     11  C   UNL     1      -1.807  12.125  22.620  0.00  0.00    +0.000 A 
ATOM     12  C   UNL     1      -1.534  12.316  21.262  0.00  0.00    +0.000 A 
ATOM     13  C   UNL     1      -0.842  11.344  20.535  0.00  0.00    +0.000 A 
ATOM     14  C   UNL     1      -0.410  10.169  21.147  0.00  0.00    +0.000 A 
ATOM     15  C   UNL     1      -0.691   9.964  22.497  0.00  0.00    +0.000 A 
ATOM     16  C   UNL     1      -1.366  10.941  23.232  0.00  0.00    +0.000 A 
BRANCH  11  18
ATOM     17  C   UNL     1      -3.054  14.292  22.469  0.00  0.00    +0.000 C 
ATOM     18  C   UNL     1      -2.592  13.164  23.398  0.00  0.00    +0.000 C 
ATOM     19  C   UNL     1      -3.781  12.537  24.130  0.00  0.00    +0.000 C 
ENDBRANCH  11  18
ENDBRANCH   7  14
ENDBRANCH   1   8
BRANCH   3  20
ATOM     20  S   UNL     1       3.236   3.991  18.788  0.00  0.00    +0.000 S 
ATOM     21  O   UNL     1       3.414   3.526  20.145  0.00  0.00    +0.000 OA
ATOM     22  O   UNL     1       2.252   3.412  17.900  0.00  0.00    +0.000 OA
BRANCH  20  23
ATOM     23  N   UNL     1       4.754   4.010  17.996  0.00  0.00    +0.000 NA
ATOM     24  C   UNL     1       4.670   4.100  16.515  0.00  0.00    +0.000 C 
ATOM     25  C   UNL     1       6.046   3.973  15.872  0.00  0.00    +0.000 C 
ATOM     26  C   UNL     1       7.021   4.985  16.458  0.00  0.00    +0.000 C 
ATOM     27  C   UNL     1       7.114   4.788  17.965  0.00  0.00    +0.000 C 
ATOM     28  C   UNL     1       5.746   4.920  18.623  0.00  0.00    +0.000 C 
ENDBRANCH  20  23
ENDBRANCH   3  20
TORSDOF 5
ENDMDL
MODEL 9
REMARK VINA RESULT:      -7.4      1.306      1.805
REMARK  Name = 
REMARK  8 active torsions:
REMARK  status: ('A' for Active; 'I' for Inactive)
REMARK    1  A    between atoms: C_1  and  C_2
REMARK    2  A    between atoms: C_2  and  C_3
REMARK    3  A    between atoms: C_2  and  C_4
REMARK    4  A    between atoms: C_7  and  N_8
REMARK    5  A    between atoms: C_9  and  C_11
REMARK    6  A    between atoms: C_13  and  S_14
REMARK    7  A    between atoms: S_14  and  N_17
REMARK    8  A    between atoms: N_24  and  C_25
REMARK                            x       y       z     vdW  Elec       q    Type
REMARK                         _______ _______ _______ _____ _____    ______ ____
ROOT
ATOM      1  C   UNL     1       3.796   5.834  18.034  0.00  0.00    +0.000 A 
ATOM      2  C   UNL     1       4.830   6.142  17.163  0.00  0.00    +0.000 A 
ATOM      3  C   UNL     1       5.834   5.155  17.306  0.00  0.00    +0.000 A 
ATOM      4  C   UNL     1       5.423   4.293  18.301  0.00  0.00    +0.000 A 
ATOM      5  N   UNL     1       4.188   4.709  18.734  0.00  0.00    +0.000 N 
ATOM      6  C   UNL     1       3.370   3.984  19.689  0.00  0.00    +0.000 C 
ENDROOT
BRANCH   1   8
ATOM      7  N   UNL     1       2.674   7.811  18.685  0.00  0.00    +0.000 N 
ATOM      8  C   UNL     1       2.531   6.517  18.206  0.00  0.00    +0.000 C 
ATOM      9  O   UNL     1       1.466   5.991  17.893  0.00  0.00    +0.000 OA
ATOM     10  H   UNL     1       3.617   8.179  18.702  0.00  0.00    +0.000 HD
BRANCH   7  14
ATOM     11  C   UNL     1      -0.433  10.517  19.615  0.00  0.00    +0.000 A 
ATOM     12  C   UNL     1       0.043  10.428  18.303  0.00  0.00    +0.000 A 
ATOM     13  C   UNL     1       1.068   9.535  17.980  0.00  0.00    +0.000 A 
ATOM     14  C   UNL     1       1.637   8.720  18.957  0.00  0.00    +0.000 A 
ATOM     15  C   UNL     1       1.159   8.792  20.265  0.00  0.00    +0.000 A 
ATOM     16  C   UNL     1       0.147   9.696  20.595  0.00  0.00    +0.000 A 
BRANCH  11  18
ATOM     17  C   UNL     1      -1.029  12.839  20.343  0.00  0.00    +0.000 C 
ATOM     18  C   UNL     1      -1.572  11.459  19.955  0.00  0.00    +0.000 C 
ATOM     19  C   UNL     1      -2.571  11.571  18.800  0.00  0.00    +0.000 C 
ENDBRANCH  11  18
ENDBRANCH   7  14
ENDBRANCH   1   8
BRANCH   3  20
ATOM     20  S   UNL     1       7.287   5.079  16.353  0.00  0.00    +0.000 S 
ATOM     21  O   UNL     1       7.647   6.465  16.155  0.00  0.00    +0.000 OA
ATOM     22  O   UNL     1       8.130   4.165  17.094  0.00  0.00    +0.000 OA
BRANCH  20  23
ATOM     23  N   UNL     1       6.902   4.375  14.840  0.00  0.00    +0.000 NA
ATOM     24  C   UNL     1       5.453   4.122  14.635  0.00  0.00    +0.000 C 
ATOM     25  C   UNL     1       5.200   3.372  13.332  0.00  0.00    +0.000 C 
ATOM     26  C   UNL     1       5.833   4.095  12.152  0.00  0.00    +0.000 C 
ATOM     27  C   UNL     1       7.327   4.256  12.395  0.00  0.00    +0.000 C 
ATOM     28  C   UNL     1       7.596   5.010  13.690  0.00  0.00    +0.000 C 
ENDBRANCH  20  23
ENDBRANCH   3  20
TORSDOF 5
ENDMDL
