MODEL 1
REMARK VINA RESULT:      -8.3      0.000      0.000
REMARK  Name = 
REMARK  10 active torsions:
REMARK  status: ('A' for Active; 'I' for Inactive)
REMARK    1  A    between atoms: C_1  and  O_2
REMARK    2  A    between atoms: O_2  and  C_3
REMARK    3  A    between atoms: C_6  and  N_7
REMARK    4  A    between atoms: N_7  and  C_8
REMARK    5  A    between atoms: N_7  and  C_9
REMARK    6  A    between atoms: C_9  and  C_10
REMARK    7  A    between atoms: C_14  and  C_15
REMARK    8  A    between atoms: C_23  and  C_24
REMARK    9  A    between atoms: C_31  and  O_32
REMARK   10  A    between atoms: O_32  and  C_33
REMARK                            x       y       z     vdW  Elec       q    Type
REMARK                         _______ _______ _______ _____ _____    ______ ____
ROOT
ATOM      1  C   UNL     1       4.261   5.922  18.013  0.00  0.00    +0.000 A 
ATOM      2  N   UNL     1       4.664   4.876  18.768  0.00  0.00    +0.000 NA
ATOM      3  C   UNL     1       3.717   3.946  18.978  0.00  0.00    +0.000 A 
ATOM      4  C   UNL     1       3.596   3.280  20.178  0.00  0.00    +0.000 A 
ATOM      5  C   UNL     1       2.470   2.483  20.400  0.00  0.00    +0.000 A 
ATOM      6  C   UNL     1       1.792   1.976  19.288  0.00  0.00    +0.000 A 
ATOM      7  C   UNL     1       1.896   2.688  18.102  0.00  0.00    +0.000 A 
ATOM      8  C   UNL     1       2.607   3.874  18.132  0.00  0.00    +0.000 A 
ATOM      9  N   UNL     1       2.129   5.036  17.611  0.00  0.00    +0.000 NA
ATOM     10  C   UNL     1       2.907   6.126  17.846  0.00  0.00    +0.000 A 
ENDROOT
BRANCH  10  11
ATOM     11  C   UNL     1       2.308   7.310  18.562  0.00  0.00    +0.000 A 
ATOM     12  C   UNL     1       1.980   8.499  17.843  0.00  0.00    +0.000 A 
ATOM     13  C   UNL     1       1.320   9.581  18.427  0.00  0.00    +0.000 A 
ATOM     14  C   UNL     1       1.024   9.537  19.776  0.00  0.00    +0.000 A 
ATOM     15  C   UNL     1       1.439   8.446  20.535  0.00  0.00    +0.000 A 
ATOM     16  C   UNL     1       2.089   7.347  19.939  0.00  0.00    +0.000 A 
ENDBRANCH  10  11
BRANCH   5  17
ATOM     17  C   UNL     1       1.777   2.496  21.741  0.00  0.00    +0.000 C 
ATOM     18  F   UNL     1       2.216   3.490  22.566  0.00  0.00    +0.000 F 
ATOM     19  F   UNL     1       0.433   2.723  21.603  0.00  0.00    +0.000 F 
ATOM     20  F   UNL     1       1.890   1.340  22.431  0.00  0.00    +0.000 F 
ENDBRANCH   5  17
BRANCH   1  21
ATOM     21  C   UNL     1       5.227   6.934  17.441  0.00  0.00    +0.000 C 
BRANCH  21  22
ATOM     22  N   UNL     1       6.528   6.328  17.093  0.00  0.00    +0.000 N 
ATOM     23  C   UNL     1       7.714   6.921  17.693  0.00  0.00    +0.000 C 
BRANCH  22  27
ATOM     24  C   UNL     1       6.551   3.998  13.557  0.00  0.00    +0.000 A 
ATOM     25  C   UNL     1       5.805   3.601  14.674  0.00  0.00    +0.000 A 
ATOM     26  C   UNL     1       5.822   4.342  15.849  0.00  0.00    +0.000 A 
ATOM     27  C   UNL     1       6.624   5.491  15.984  0.00  0.00    +0.000 A 
ATOM     28  C   UNL     1       7.445   5.784  14.902  0.00  0.00    +0.000 A 
ATOM     29  C   UNL     1       7.444   5.062  13.696  0.00  0.00    +0.000 A 
BRANCH  24  31
ATOM     30  C   UNL     1       5.043   3.309  11.893  0.00  0.00    +0.000 C 
ATOM     31  O   UNL     1       6.392   3.371  12.351  0.00  0.00    +0.000 OA
ENDBRANCH  24  31
BRANCH  29  32
ATOM     32  O   UNL     1       8.298   5.603  12.775  0.00  0.00    +0.000 OA
ATOM     33  C   UNL     1       7.794   6.054  11.531  0.00  0.00    +0.000 C 
ENDBRANCH  29  32
ENDBRANCH  22  27
ENDBRANCH  21  22
ENDBRANCH   1  21
TORSDOF 7
ENDMDL
MODEL 2
REMARK VINA RESULT:      -7.9      3.642      6.505
REMARK  Name = 
REMARK  10 active torsions:
REMARK  status: ('A' for Active; 'I' for Inactive)
REMARK    1  A    between atoms: C_1  and  O_2
REMARK    2  A    between atoms: O_2  and  C_3
REMARK    3  A    between atoms: C_6  and  N_7
REMARK    4  A    between atoms: N_7  and  C_8
REMARK    5  A    between atoms: N_7  and  C_9
REMARK    6  A    between atoms: C_9  and  C_10
REMARK    7  A    between atoms: C_14  and  C_15
REMARK    8  A    between atoms: C_23  and  C_24
REMARK    9  A    between atoms: C_31  and  O_32
REMARK   10  A    between atoms: O_32  and  C_33
REMARK                            x       y       z     vdW  Elec       q    Type
REMARK                         _______ _______ _______ _____ _____    ______ ____
ROOT
ATOM      1  C   UNL     1       6.088   6.516  17.458  0.00  0.00    +0.000 A 
ATOM      2  N   UNL     1       4.900   6.691  18.079  0.00  0.00    +0.000 NA
ATOM      3  C   UNL     1       4.379   5.569  18.604  0.00  0.00    +0.000 A 
ATOM      4  C   UNL     1       3.025   5.312  18.589  0.00  0.00    +0.000 A 
ATOM      5  C   UNL     1       2.572   4.043  18.961  0.00  0.00    +0.000 A 
ATOM      6  C   UNL     1       3.385   3.272  19.796  0.00  0.00    +0.000 A 
ATOM      7  C   UNL     1       4.749   3.522  19.762  0.00  0.00    +0.000 A 
ATOM      8  C   UNL     1       5.201   4.467  18.858  0.00  0.00    +0.000 A 
ATOM      9  N   UNL     1       6.244   4.244  18.014  0.00  0.00    +0.000 NA
ATOM     10  C   UNL     1       6.462   5.235  17.109  0.00  0.00    +0.000 A 
ENDROOT
BRANCH  10  11
ATOM     11  C   UNL     1       6.437   4.900  15.639  0.00  0.00    +0.000 A 
ATOM     12  C   UNL     1       7.518   5.285  14.791  0.00  0.00    +0.000 A 
ATOM     13  C   UNL     1       7.605   4.905  13.452  0.00  0.00    +0.000 A 
ATOM     14  C   UNL     1       6.571   4.177  12.893  0.00  0.00    +0.000 A 
ATOM     15  C   UNL     1       5.444   3.889  13.657  0.00  0.00    +0.000 A 
ATOM     16  C   UNL     1       5.366   4.259  15.014  0.00  0.00    +0.000 A 
ENDBRANCH  10  11
BRANCH   5  17
ATOM     17  C   UNL     1       1.464   3.370  18.188  0.00  0.00    +0.000 C 
ATOM     18  F   UNL     1       1.883   2.282  17.479  0.00  0.00    +0.000 F 
ATOM     19  F   UNL     1       0.495   2.889  19.028  0.00  0.00    +0.000 F 
ATOM     20  F   UNL     1       0.830   4.182  17.315  0.00  0.00    +0.000 F 
ENDBRANCH   5  17
BRANCH   1  21
ATOM     21  C   UNL     1       6.965   7.673  17.037  0.00  0.00    +0.000 C 
BRANCH  21  22
ATOM     22  N   UNL     1       8.010   7.972  18.035  0.00  0.00    +0.000 N 
ATOM     23  C   UNL     1       8.341   6.917  18.982  0.00  0.00    +0.000 C 
BRANCH  22  27
ATOM     24  C   UNL     1       9.367  11.961  18.470  0.00  0.00    +0.000 A 
ATOM     25  C   UNL     1       9.891  10.933  19.264  0.00  0.00    +0.000 A 
ATOM     26  C   UNL     1       9.424   9.629  19.152  0.00  0.00    +0.000 A 
ATOM     27  C   UNL     1       8.376   9.296  18.274  0.00  0.00    +0.000 A 
ATOM     28  C   UNL     1       7.796  10.360  17.594  0.00  0.00    +0.000 A 
ATOM     29  C   UNL     1       8.251  11.687  17.678  0.00  0.00    +0.000 A 
BRANCH  24  31
ATOM     30  C   UNL     1      10.854  13.410  17.372  0.00  0.00    +0.000 C 
ATOM     31  O   UNL     1       9.950  13.199  18.455  0.00  0.00    +0.000 OA
ENDBRANCH  24  31
BRANCH  29  32
ATOM     32  O   UNL     1       7.545  12.523  16.856  0.00  0.00    +0.000 OA
ATOM     33  C   UNL     1       6.880  13.647  17.405  0.00  0.00    +0.000 C 
ENDBRANCH  29  32
ENDBRANCH  22  27
ENDBRANCH  21  22
ENDBRANCH   1  21
TORSDOF 7
ENDMDL
MODEL 3
REMARK VINA RESULT:      -7.7      3.901      6.822
REMARK  Name = 
REMARK  10 active torsions:
REMARK  status: ('A' for Active; 'I' for Inactive)
REMARK    1  A    between atoms: C_1  and  O_2
REMARK    2  A    between atoms: O_2  and  C_3
REMARK    3  A    between atoms: C_6  and  N_7
REMARK    4  A    between atoms: N_7  and  C_8
REMARK    5  A    between atoms: N_7  and  C_9
REMARK    6  A    between atoms: C_9  and  C_10
REMARK    7  A    between atoms: C_14  and  C_15
REMARK    8  A    between atoms: C_23  and  C_24
REMARK    9  A    between atoms: C_31  and  O_32
REMARK   10  A    between atoms: O_32  and  C_33
REMARK                            x       y       z     vdW  Elec       q    Type
REMARK                         _______ _______ _______ _____ _____    ______ ____
ROOT
ATOM      1  C   UNL     1       6.363   6.541  17.348  0.00  0.00    +0.000 A 
ATOM      2  N   UNL     1       5.163   6.773  17.926  0.00  0.00    +0.000 NA
ATOM      3  C   UNL     1       4.588   5.684  18.465  0.00  0.00    +0.000 A 
ATOM      4  C   UNL     1       3.226   5.473  18.414  0.00  0.00    +0.000 A 
ATOM      5  C   UNL     1       2.720   4.231  18.806  0.00  0.00    +0.000 A 
ATOM      6  C   UNL     1       3.479   3.457  19.688  0.00  0.00    +0.000 A 
ATOM      7  C   UNL     1       4.852   3.660  19.690  0.00  0.00    +0.000 A 
ATOM      8  C   UNL     1       5.363   4.564  18.775  0.00  0.00    +0.000 A 
ATOM      9  N   UNL     1       6.423   4.282  17.971  0.00  0.00    +0.000 NA
ATOM     10  C   UNL     1       6.703   5.239  17.047  0.00  0.00    +0.000 A 
ENDROOT
BRANCH  10  11
ATOM     11  C   UNL     1       6.712   4.863  15.586  0.00  0.00    +0.000 A 
ATOM     12  C   UNL     1       5.697   4.014  15.052  0.00  0.00    +0.000 A 
ATOM     13  C   UNL     1       5.589   3.726  13.691  0.00  0.00    +0.000 A 
ATOM     14  C   UNL     1       6.539   4.226  12.821  0.00  0.00    +0.000 A 
ATOM     15  C   UNL     1       7.613   4.955  13.324  0.00  0.00    +0.000 A 
ATOM     16  C   UNL     1       7.711   5.261  14.696  0.00  0.00    +0.000 A 
ENDBRANCH  10  11
BRANCH   5  17
ATOM     17  C   UNL     1       1.613   3.574  18.017  0.00  0.00    +0.000 C 
ATOM     18  F   UNL     1       2.048   2.550  17.226  0.00  0.00    +0.000 F 
ATOM     19  F   UNL     1       0.683   3.004  18.846  0.00  0.00    +0.000 F 
ATOM     20  F   UNL     1       0.930   4.420  17.217  0.00  0.00    +0.000 F 
ENDBRANCH   5  17
BRANCH   1  21
ATOM     21  C   UNL     1       7.291   7.656  16.924  0.00  0.00    +0.000 C 
BRANCH  21  22
ATOM     22  N   UNL     1       8.175   8.094  18.022  0.00  0.00    +0.000 N 
ATOM     23  C   UNL     1       8.355   7.171  19.133  0.00  0.00    +0.000 C 
BRANCH  22  27
ATOM     24  C   UNL     1       8.910  12.216  18.658  0.00  0.00    +0.000 A 
ATOM     25  C   UNL     1       8.093  11.786  17.605  0.00  0.00    +0.000 A 
ATOM     26  C   UNL     1       7.877  10.434  17.368  0.00  0.00    +0.000 A 
ATOM     27  C   UNL     1       8.506   9.442  18.144  0.00  0.00    +0.000 A 
ATOM     28  C   UNL     1       9.406   9.901  19.098  0.00  0.00    +0.000 A 
ATOM     29  C   UNL     1       9.638  11.261  19.369  0.00  0.00    +0.000 A 
BRANCH  24  31
ATOM     30  C   UNL     1       9.767  14.334  18.115  0.00  0.00    +0.000 C 
ATOM     31  O   UNL     1       8.975  13.540  18.997  0.00  0.00    +0.000 OA
ENDBRANCH  24  31
BRANCH  29  32
ATOM     32  O   UNL     1      10.520  11.434  20.400  0.00  0.00    +0.000 OA
ATOM     33  C   UNL     1      11.832  11.895  20.130  0.00  0.00    +0.000 C 
ENDBRANCH  29  32
ENDBRANCH  22  27
ENDBRANCH  21  22
ENDBRANCH   1  21
TORSDOF 7
ENDMDL
MODEL 4
REMARK VINA RESULT:      -7.6      5.431      8.377
REMARK  Name = 
REMARK  10 active torsions:
REMARK  status: ('A' for Active; 'I' for Inactive)
REMARK    1  A    between atoms: C_1  and  O_2
REMARK    2  A    between atoms: O_2  and  C_3
REMARK    3  A    between atoms: C_6  and  N_7
REMARK    4  A    between atoms: N_7  and  C_8
REMARK    5  A    between atoms: N_7  and  C_9
REMARK    6  A    between atoms: C_9  and  C_10
REMARK    7  A    between atoms: C_14  and  C_15
REMARK    8  A    between atoms: C_23  and  C_24
REMARK    9  A    between atoms: C_31  and  O_32
REMARK   10  A    between atoms: O_32  and  C_33
REMARK                            x       y       z     vdW  Elec       q    Type
REMARK                         _______ _______ _______ _____ _____    ______ ____
ROOT
ATOM      1  C   UNL     1      -0.370  10.293  19.327  0.00  0.00    +0.000 A 
ATOM      2  N   UNL     1      -1.384   9.498  18.918  0.00  0.00    +0.000 NA
ATOM      3  C   UNL     1      -2.274  10.105  18.114  0.00  0.00    +0.000 A 
ATOM      4  C   UNL     1      -3.625   9.838  18.181  0.00  0.00    +0.000 A 
ATOM      5  C   UNL     1      -4.511  10.648  17.468  0.00  0.00    +0.000 A 
ATOM      6  C   UNL     1      -4.025  11.333  16.351  0.00  0.00    +0.000 A 
ATOM      7  C   UNL     1      -2.669  11.627  16.327  0.00  0.00    +0.000 A 
ATOM      8  C   UNL     1      -1.922  11.275  17.437  0.00  0.00    +0.000 A 
ATOM      9  N   UNL     1      -1.067  12.134  18.055  0.00  0.00    +0.000 NA
ATOM     10  C   UNL     1      -0.518  11.659  19.204  0.00  0.00    +0.000 A 
ENDROOT
BRANCH  10  11
ATOM     11  C   UNL     1      -0.713  12.436  20.482  0.00  0.00    +0.000 A 
ATOM     12  C   UNL     1      -1.852  12.196  21.308  0.00  0.00    +0.000 A 
ATOM     13  C   UNL     1      -2.027  12.799  22.553  0.00  0.00    +0.000 A 
ATOM     14  C   UNL     1      -1.093  13.721  22.990  0.00  0.00    +0.000 A 
ATOM     15  C   UNL     1      -0.035  14.071  22.156  0.00  0.00    +0.000 A 
ATOM     16  C   UNL     1       0.150  13.447  20.906  0.00  0.00    +0.000 A 
ENDBRANCH  10  11
BRANCH   5  17
ATOM     17  C   UNL     1      -5.815  11.087  18.090  0.00  0.00    +0.000 C 
ATOM     18  F   UNL     1      -6.639  10.047  18.406  0.00  0.00    +0.000 F 
ATOM     19  F   UNL     1      -5.604  11.740  19.276  0.00  0.00    +0.000 F 
ATOM     20  F   UNL     1      -6.535  11.934  17.323  0.00  0.00    +0.000 F 
ENDBRANCH   5  17
BRANCH   1  21
ATOM     21  C   UNL     1       0.866   9.751  20.008  0.00  0.00    +0.000 C 
BRANCH  21  22
ATOM     22  N   UNL     1       1.723   8.986  19.082  0.00  0.00    +0.000 N 
ATOM     23  C   UNL     1       1.939   9.554  17.759  0.00  0.00    +0.000 C 
BRANCH  22  27
ATOM     24  C   UNL     1       2.198   4.827  19.727  0.00  0.00    +0.000 A 
ATOM     25  C   UNL     1       1.767   5.670  20.759  0.00  0.00    +0.000 A 
ATOM     26  C   UNL     1       1.644   7.040  20.565  0.00  0.00    +0.000 A 
ATOM     27  C   UNL     1       1.992   7.644  19.342  0.00  0.00    +0.000 A 
ATOM     28  C   UNL     1       2.533   6.797  18.382  0.00  0.00    +0.000 A 
ATOM     29  C   UNL     1       2.660   5.406  18.544  0.00  0.00    +0.000 A 
BRANCH  24  31
ATOM     30  C   UNL     1       1.326   3.018  20.944  0.00  0.00    +0.000 C 
ATOM     31  O   UNL     1       2.145   3.467  19.866  0.00  0.00    +0.000 OA
ENDBRANCH  24  31
BRANCH  29  32
ATOM     32  O   UNL     1       3.161   4.804  17.422  0.00  0.00    +0.000 OA
ATOM     33  C   UNL     1       4.515   4.390  17.394  0.00  0.00    +0.000 C 
ENDBRANCH  29  32
ENDBRANCH  22  27
ENDBRANCH  21  22
ENDBRANCH   1  21
TORSDOF 7
ENDMDL
MODEL 5
REMARK VINA RESULT:      -7.6      5.375      8.327
REMARK  Name = 
REMARK  10 active torsions:
REMARK  status: ('A' for Active; 'I' for Inactive)
REMARK    1  A    between atoms: C_1  and  O_2
REMARK    2  A    between atoms: O_2  and  C_3
REMARK    3  A    between atoms: C_6  and  N_7
REMARK    4  A    between atoms: N_7  and  C_8
REMARK    5  A    between atoms: N_7  and  C_9
REMARK    6  A    between atoms: C_9  and  C_10
REMARK    7  A    between atoms: C_14  and  C_15
REMARK    8  A    between atoms: C_23  and  C_24
REMARK    9  A    between atoms: C_31  and  O_32
REMARK   10  A    between atoms: O_32  and  C_33
REMARK                            x       y       z     vdW  Elec       q    Type
REMARK                         _______ _______ _______ _____ _____    ______ ____
ROOT
ATOM      1  C   UNL     1      -0.199  10.551  18.782  0.00  0.00    +0.000 A 
ATOM      2  N   UNL     1      -1.145   9.639  18.465  0.00  0.00    +0.000 NA
ATOM      3  C   UNL     1      -2.238  10.156  17.878  0.00  0.00    +0.000 A 
ATOM      4  C   UNL     1      -3.505   9.677  18.134  0.00  0.00    +0.000 A 
ATOM      5  C   UNL     1      -4.607  10.389  17.654  0.00  0.00    +0.000 A 
ATOM      6  C   UNL     1      -4.423  11.220  16.546  0.00  0.00    +0.000 A 
ATOM      7  C   UNL     1      -3.148  11.723  16.334  0.00  0.00    +0.000 A 
ATOM      8  C   UNL     1      -2.177  11.413  17.271  0.00  0.00    +0.000 A 
ATOM      9  N   UNL     1      -1.360  12.348  17.825  0.00  0.00    +0.000 NA
ATOM     10  C   UNL     1      -0.558  11.882  18.819  0.00  0.00    +0.000 A 
ENDROOT
BRANCH  10  11
ATOM     11  C   UNL     1      -0.637  12.524  20.182  0.00  0.00    +0.000 A 
ATOM     12  C   UNL     1       0.323  13.502  20.577  0.00  0.00    +0.000 A 
ATOM     13  C   UNL     1       0.235  14.211  21.775  0.00  0.00    +0.000 A 
ATOM     14  C   UNL     1      -0.788  13.915  22.657  0.00  0.00    +0.000 A 
ATOM     15  C   UNL     1      -1.670  12.880  22.360  0.00  0.00    +0.000 A 
ATOM     16  C   UNL     1      -1.591  12.178  21.140  0.00  0.00    +0.000 A 
ENDBRANCH  10  11
BRANCH   5  17
ATOM     17  C   UNL     1      -5.832  10.572  18.516  0.00  0.00    +0.000 C 
ATOM     18  F   UNL     1      -6.903  11.074  17.834  0.00  0.00    +0.000 F 
ATOM     19  F   UNL     1      -6.268   9.375  19.020  0.00  0.00    +0.000 F 
ATOM     20  F   UNL     1      -5.640  11.376  19.584  0.00  0.00    +0.000 F 
ENDBRANCH   5  17
BRANCH   1  21
ATOM     21  C   UNL     1       1.200  10.161  19.201  0.00  0.00    +0.000 C 
BRANCH  21  22
ATOM     22  N   UNL     1       1.225   8.886  19.944  0.00  0.00    +0.000 N 
ATOM     23  C   UNL     1       0.818   8.927  21.340  0.00  0.00    +0.000 C 
BRANCH  22  27
ATOM     24  C   UNL     1       3.703   5.728  18.591  0.00  0.00    +0.000 A 
ATOM     25  C   UNL     1       3.500   6.870  17.805  0.00  0.00    +0.000 A 
ATOM     26  C   UNL     1       2.660   7.893  18.227  0.00  0.00    +0.000 A 
ATOM     27  C   UNL     1       1.941   7.805  19.434  0.00  0.00    +0.000 A 
ATOM     28  C   UNL     1       2.068   6.607  20.126  0.00  0.00    +0.000 A 
ATOM     29  C   UNL     1       2.917   5.558  19.732  0.00  0.00    +0.000 A 
BRANCH  24  31
ATOM     30  C   UNL     1       5.911   5.002  18.922  0.00  0.00    +0.000 C 
ATOM     31  O   UNL     1       4.663   4.812  18.258  0.00  0.00    +0.000 OA
ENDBRANCH  24  31
BRANCH  29  32
ATOM     32  O   UNL     1       2.902   4.523  20.627  0.00  0.00    +0.000 OA
ATOM     33  C   UNL     1       1.670   3.918  20.977  0.00  0.00    +0.000 C 
ENDBRANCH  29  32
ENDBRANCH  22  27
ENDBRANCH  21  22
ENDBRANCH   1  21
TORSDOF 7
ENDMDL
MODEL 6
REMARK VINA RESULT:      -7.6      5.349      7.976
REMARK  Name = 
REMARK  10 active torsions:
REMARK  status: ('A' for Active; 'I' for Inactive)
REMARK    1  A    between atoms: C_1  and  O_2
REMARK    2  A    between atoms: O_2  and  C_3
REMARK    3  A    between atoms: C_6  and  N_7
REMARK    4  A    between atoms: N_7  and  C_8
REMARK    5  A    between atoms: N_7  and  C_9
REMARK    6  A    between atoms: C_9  and  C_10
REMARK    7  A    between atoms: C_14  and  C_15
REMARK    8  A    between atoms: C_23  and  C_24
REMARK    9  A    between atoms: C_31  and  O_32
REMARK   10  A    between atoms: O_32  and  C_33
REMARK                            x       y       z     vdW  Elec       q    Type
REMARK                         _______ _______ _______ _____ _____    ______ ____
ROOT
ATOM      1  C   UNL     1       1.083  10.213  18.373  0.00  0.00    +0.000 A 
ATOM      2  N   UNL     1       1.965  11.229  18.253  0.00  0.00    +0.000 NA
ATOM      3  C   UNL     1       1.731  12.267  19.074  0.00  0.00    +0.000 A 
ATOM      4  C   UNL     1       1.935  13.573  18.683  0.00  0.00    +0.000 A 
ATOM      5  C   UNL     1       1.478  14.605  19.507  0.00  0.00    +0.000 A 
ATOM      6  C   UNL     1       1.312  14.338  20.868  0.00  0.00    +0.000 A 
ATOM      7  C   UNL     1       1.066  13.022  21.232  0.00  0.00    +0.000 A 
ATOM      8  C   UNL     1       0.941  12.093  20.214  0.00  0.00    +0.000 A 
ATOM      9  N   UNL     1      -0.087  11.205  20.145  0.00  0.00    +0.000 NA
ATOM     10  C   UNL     1      -0.116  10.459  19.010  0.00  0.00    +0.000 A 
ENDROOT
BRANCH  10  11
ATOM     11  C   UNL     1      -1.348  10.499  18.140  0.00  0.00    +0.000 A 
ATOM     12  C   UNL     1      -2.457  11.324  18.496  0.00  0.00    +0.000 A 
ATOM     13  C   UNL     1      -3.573  11.490  17.675  0.00  0.00    +0.000 A 
ATOM     14  C   UNL     1      -3.648  10.779  16.492  0.00  0.00    +0.000 A 
ATOM     15  C   UNL     1      -2.641   9.871  16.173  0.00  0.00    +0.000 A 
ATOM     16  C   UNL     1      -1.506   9.719  16.994  0.00  0.00    +0.000 A 
ENDBRANCH  10  11
BRANCH   5  17
ATOM     17  C   UNL     1       0.812  15.821  18.909  0.00  0.00    +0.000 C 
ATOM     18  F   UNL     1       0.553  16.800  19.823  0.00  0.00    +0.000 F 
ATOM     19  F   UNL     1       1.616  16.418  17.975  0.00  0.00    +0.000 F 
ATOM     20  F   UNL     1      -0.355  15.558  18.281  0.00  0.00    +0.000 F 
ENDBRANCH   5  17
BRANCH   1  21
ATOM     21  C   UNL     1       1.311   8.857  17.745  0.00  0.00    +0.000 C 
BRANCH  21  22
ATOM     22  N   UNL     1       1.919   7.901  18.690  0.00  0.00    +0.000 N 
ATOM     23  C   UNL     1       1.793   8.201  20.108  0.00  0.00    +0.000 C 
BRANCH  22  27
ATOM     24  C   UNL     1       4.643   5.169  16.941  0.00  0.00    +0.000 A 
ATOM     25  C   UNL     1       3.450   4.721  17.523  0.00  0.00    +0.000 A 
ATOM     26  C   UNL     1       2.570   5.608  18.130  0.00  0.00    +0.000 A 
ATOM     27  C   UNL     1       2.861   6.981  18.230  0.00  0.00    +0.000 A 
ATOM     28  C   UNL     1       4.107   7.371  17.754  0.00  0.00    +0.000 A 
ATOM     29  C   UNL     1       5.015   6.501  17.125  0.00  0.00    +0.000 A 
BRANCH  24  31
ATOM     30  C   UNL     1       5.313   4.529  14.783  0.00  0.00    +0.000 C 
ATOM     31  O   UNL     1       5.415   4.324  16.191  0.00  0.00    +0.000 OA
ENDBRANCH  24  31
BRANCH  29  32
ATOM     32  O   UNL     1       6.136   7.157  16.694  0.00  0.00    +0.000 OA
ATOM     33  C   UNL     1       7.343   7.034  17.424  0.00  0.00    +0.000 C 
ENDBRANCH  29  32
ENDBRANCH  22  27
ENDBRANCH  21  22
ENDBRANCH   1  21
TORSDOF 7
ENDMDL
MODEL 7
REMARK VINA RESULT:      -7.6      5.554      8.440
REMARK  Name = 
REMARK  10 active torsions:
REMARK  status: ('A' for Active; 'I' for Inactive)
REMARK    1  A    between atoms: C_1  and  O_2
REMARK    2  A    between atoms: O_2  and  C_3
REMARK    3  A    between atoms: C_6  and  N_7
REMARK    4  A    between atoms: N_7  and  C_8
REMARK    5  A    between atoms: N_7  and  C_9
REMARK    6  A    between atoms: C_9  and  C_10
REMARK    7  A    between atoms: C_14  and  C_15
REMARK    8  A    between atoms: C_23  and  C_24
REMARK    9  A    between atoms: C_31  and  O_32
REMARK   10  A    between atoms: O_32  and  C_33
REMARK                            x       y       z     vdW  Elec       q    Type
REMARK                         _______ _______ _______ _____ _____    ______ ____
ROOT
ATOM      1  C   UNL     1       0.901  10.264  18.581  0.00  0.00    +0.000 A 
ATOM      2  N   UNL     1       1.792  11.276  18.499  0.00  0.00    +0.000 NA
ATOM      3  C   UNL     1       1.506  12.332  19.279  0.00  0.00    +0.000 A 
ATOM      4  C   UNL     1       1.741  13.629  18.874  0.00  0.00    +0.000 A 
ATOM      5  C   UNL     1       1.232  14.680  19.641  0.00  0.00    +0.000 A 
ATOM      6  C   UNL     1       0.974  14.444  20.994  0.00  0.00    +0.000 A 
ATOM      7  C   UNL     1       0.700  13.137  21.370  0.00  0.00    +0.000 A 
ATOM      8  C   UNL     1       0.641  12.185  20.367  0.00  0.00    +0.000 A 
ATOM      9  N   UNL     1      -0.383  11.298  20.248  0.00  0.00    +0.000 NA
ATOM     10  C   UNL     1      -0.337  10.526  19.130  0.00  0.00    +0.000 A 
ENDROOT
BRANCH  10  11
ATOM     11  C   UNL     1      -1.508  10.549  18.179  0.00  0.00    +0.000 A 
ATOM     12  C   UNL     1      -2.631  11.392  18.435  0.00  0.00    +0.000 A 
ATOM     13  C   UNL     1      -3.687  11.541  17.536  0.00  0.00    +0.000 A 
ATOM     14  C   UNL     1      -3.689  10.795  16.372  0.00  0.00    +0.000 A 
ATOM     15  C   UNL     1      -2.672   9.871  16.149  0.00  0.00    +0.000 A 
ATOM     16  C   UNL     1      -1.596   9.735  17.049  0.00  0.00    +0.000 A 
ENDBRANCH  10  11
BRANCH   5  17
ATOM     17  C   UNL     1       0.611  15.883  18.973  0.00  0.00    +0.000 C 
ATOM     18  F   UNL     1       1.449  16.503  18.092  0.00  0.00    +0.000 F 
ATOM     19  F   UNL     1      -0.481  15.528  18.226  0.00  0.00    +0.000 F 
ATOM     20  F   UNL     1       0.181  16.831  19.833  0.00  0.00    +0.000 F 
ENDBRANCH   5  17
BRANCH   1  21
ATOM     21  C   UNL     1       1.166   8.894  18.000  0.00  0.00    +0.000 C 
BRANCH  21  22
ATOM     22  N   UNL     1       1.810   7.991  18.974  0.00  0.00    +0.000 N 
ATOM     23  C   UNL     1       1.645   8.314  20.384  0.00  0.00    +0.000 C 
BRANCH  22  27
ATOM     24  C   UNL     1       5.065   5.486  17.941  0.00  0.00    +0.000 A 
ATOM     25  C   UNL     1       4.798   6.653  17.214  0.00  0.00    +0.000 A 
ATOM     26  C   UNL     1       3.711   7.460  17.525  0.00  0.00    +0.000 A 
ATOM     27  C   UNL     1       2.807   7.115  18.547  0.00  0.00    +0.000 A 
ATOM     28  C   UNL     1       3.030   5.890  19.163  0.00  0.00    +0.000 A 
ATOM     29  C   UNL     1       4.126   5.056  18.879  0.00  0.00    +0.000 A 
BRANCH  24  31
ATOM     30  C   UNL     1       7.378   5.402  18.339  0.00  0.00    +0.000 C 
ATOM     31  O   UNL     1       6.230   4.794  17.750  0.00  0.00    +0.000 OA
ENDBRANCH  24  31
BRANCH  29  32
ATOM     32  O   UNL     1       4.141   3.943  19.674  0.00  0.00    +0.000 OA
ATOM     33  C   UNL     1       3.024   3.072  19.683  0.00  0.00    +0.000 C 
ENDBRANCH  29  32
ENDBRANCH  22  27
ENDBRANCH  21  22
ENDBRANCH   1  21
TORSDOF 7
ENDMDL
MODEL 8
REMARK VINA RESULT:      -7.6      5.329      8.212
REMARK  Name = 
REMARK  10 active torsions:
REMARK  status: ('A' for Active; 'I' for Inactive)
REMARK    1  A    between atoms: C_1  and  O_2
REMARK    2  A    between atoms: O_2  and  C_3
REMARK    3  A    between atoms: C_6  and  N_7
REMARK    4  A    between atoms: N_7  and  C_8
REMARK    5  A    between atoms: N_7  and  C_9
REMARK    6  A    between atoms: C_9  and  C_10
REMARK    7  A    between atoms: C_14  and  C_15
REMARK    8  A    between atoms: C_23  and  C_24
REMARK    9  A    between atoms: C_31  and  O_32
REMARK   10  A    between atoms: O_32  and  C_33
REMARK                            x       y       z     vdW  Elec       q    Type
REMARK                         _______ _______ _______ _____ _____    ______ ____
ROOT
ATOM      1  C   UNL     1      -0.197  10.601  18.799  0.00  0.00    +0.000 A 
ATOM      2  N   UNL     1      -1.132   9.673  18.495  0.00  0.00    +0.000 NA
ATOM      3  C   UNL     1      -2.227  10.167  17.892  0.00  0.00    +0.000 A 
ATOM      4  C   UNL     1      -3.490   9.678  18.151  0.00  0.00    +0.000 A 
ATOM      5  C   UNL     1      -4.598  10.369  17.652  0.00  0.00    +0.000 A 
ATOM      6  C   UNL     1      -4.418  11.181  16.530  0.00  0.00    +0.000 A 
ATOM      7  C   UNL     1      -3.147  11.694  16.315  0.00  0.00    +0.000 A 
ATOM      8  C   UNL     1      -2.178  11.413  17.262  0.00  0.00    +0.000 A 
ATOM      9  N   UNL     1      -1.373  12.367  17.802  0.00  0.00    +0.000 NA
ATOM     10  C   UNL     1      -0.572  11.928  18.809  0.00  0.00    +0.000 A 
ENDROOT
BRANCH  10  11
ATOM     11  C   UNL     1      -0.665  12.595  20.159  0.00  0.00    +0.000 A 
ATOM     12  C   UNL     1      -1.589  12.121  21.137  0.00  0.00    +0.000 A 
ATOM     13  C   UNL     1      -1.640  12.622  22.438  0.00  0.00    +0.000 A 
ATOM     14  C   UNL     1      -0.807  13.668  22.788  0.00  0.00    +0.000 A 
ATOM     15  C   UNL     1       0.020  14.237  21.823  0.00  0.00    +0.000 A 
ATOM     16  C   UNL     1       0.083  13.718  20.515  0.00  0.00    +0.000 A 
ENDBRANCH  10  11
BRANCH   5  17
ATOM     17  C   UNL     1      -5.829  10.554  18.505  0.00  0.00    +0.000 C 
ATOM     18  F   UNL     1      -5.638  11.411  19.551  0.00  0.00    +0.000 F 
ATOM     19  F   UNL     1      -6.854  11.107  17.784  0.00  0.00    +0.000 F 
ATOM     20  F   UNL     1      -6.318   9.408  19.026  0.00  0.00    +0.000 F 
ENDBRANCH   5  17
BRANCH   1  21
ATOM     21  C   UNL     1       1.204  10.235  19.231  0.00  0.00    +0.000 C 
BRANCH  21  22
ATOM     22  N   UNL     1       1.269   8.886  19.826  0.00  0.00    +0.000 N 
ATOM     23  C   UNL     1       0.843   8.753  21.211  0.00  0.00    +0.000 C 
BRANCH  22  27
ATOM     24  C   UNL     1       3.886   6.003  18.158  0.00  0.00    +0.000 A 
ATOM     25  C   UNL     1       3.622   7.205  17.490  0.00  0.00    +0.000 A 
ATOM     26  C   UNL     1       2.736   8.139  18.014  0.00  0.00    +0.000 A 
ATOM     27  C   UNL     1       2.033   7.897  19.209  0.00  0.00    +0.000 A 
ATOM     28  C   UNL     1       2.224   6.644  19.779  0.00  0.00    +0.000 A 
ATOM     29  C   UNL     1       3.120   5.682  19.280  0.00  0.00    +0.000 A 
BRANCH  24  31
ATOM     30  C   UNL     1       5.741   5.740  16.742  0.00  0.00    +0.000 C 
ATOM     31  O   UNL     1       4.888   5.172  17.734  0.00  0.00    +0.000 OA
ENDBRANCH  24  31
BRANCH  29  32
ATOM     32  O   UNL     1       3.163   4.565  20.069  0.00  0.00    +0.000 OA
ATOM     33  C   UNL     1       2.247   4.429  21.140  0.00  0.00    +0.000 C 
ENDBRANCH  29  32
ENDBRANCH  22  27
ENDBRANCH  21  22
ENDBRANCH   1  21
TORSDOF 7
ENDMDL
MODEL 9
REMARK VINA RESULT:      -7.6      5.261      8.139
REMARK  Name = 
REMARK  10 active torsions:
REMARK  status: ('A' for Active; 'I' for Inactive)
REMARK    1  A    between atoms: C_1  and  O_2
REMARK    2  A    between atoms: O_2  and  C_3
REMARK    3  A    between atoms: C_6  and  N_7
REMARK    4  A    between atoms: N_7  and  C_8
REMARK    5  A    between atoms: N_7  and  C_9
REMARK    6  A    between atoms: C_9  and  C_10
REMARK    7  A    between atoms: C_14  and  C_15
REMARK    8  A    between atoms: C_23  and  C_24
REMARK    9  A    between atoms: C_31  and  O_32
REMARK   10  A    between atoms: O_32  and  C_33
REMARK                            x       y       z     vdW  Elec       q    Type
REMARK                         _______ _______ _______ _____ _____    ______ ____
ROOT
ATOM      1  C   UNL     1      -0.213  10.464  18.791  0.00  0.00    +0.000 A 
ATOM      2  N   UNL     1      -1.183   9.574  18.482  0.00  0.00    +0.000 NA
ATOM      3  C   UNL     1      -2.249  10.109  17.863  0.00  0.00    +0.000 A 
ATOM      4  C   UNL     1      -3.534   9.676  18.111  0.00  0.00    +0.000 A 
ATOM      5  C   UNL     1      -4.606  10.409  17.595  0.00  0.00    +0.000 A 
ATOM      6  C   UNL     1      -4.379  11.205  16.469  0.00  0.00    +0.000 A 
ATOM      7  C   UNL     1      -3.086  11.662  16.265  0.00  0.00    +0.000 A 
ATOM      8  C   UNL     1      -2.140  11.347  17.225  0.00  0.00    +0.000 A 
ATOM      9  N   UNL     1      -1.302  12.270  17.769  0.00  0.00    +0.000 NA
ATOM     10  C   UNL     1      -0.531  11.806  18.787  0.00  0.00    +0.000 A 
ENDROOT
BRANCH  10  11
ATOM     11  C   UNL     1      -0.611  12.485  20.132  0.00  0.00    +0.000 A 
ATOM     12  C   UNL     1      -1.657  12.158  21.046  0.00  0.00    +0.000 A 
ATOM     13  C   UNL     1      -1.717  12.668  22.343  0.00  0.00    +0.000 A 
ATOM     14  C   UNL     1      -0.762  13.581  22.751  0.00  0.00    +0.000 A 
ATOM     15  C   UNL     1       0.200  14.017  21.844  0.00  0.00    +0.000 A 
ATOM     16  C   UNL     1       0.270  13.487  20.540  0.00  0.00    +0.000 A 
ENDBRANCH  10  11
BRANCH   5  17
ATOM     17  C   UNL     1      -5.839  10.652  18.432  0.00  0.00    +0.000 C 
ATOM     18  F   UNL     1      -6.331   9.519  19.010  0.00  0.00    +0.000 F 
ATOM     19  F   UNL     1      -5.568  11.490  19.481  0.00  0.00    +0.000 F 
ATOM     20  F   UNL     1      -6.861  11.220  17.757  0.00  0.00    +0.000 F 
ENDBRANCH   5  17
BRANCH   1  21
ATOM     21  C   UNL     1       1.166  10.042  19.242  0.00  0.00    +0.000 C 
BRANCH  21  22
ATOM     22  N   UNL     1       1.124   8.887  20.160  0.00  0.00    +0.000 N 
ATOM     23  C   UNL     1       0.642   9.135  21.511  0.00  0.00    +0.000 C 
BRANCH  22  27
ATOM     24  C   UNL     1       3.020   5.281  19.004  0.00  0.00    +0.000 A 
ATOM     25  C   UNL     1       2.313   5.367  20.210  0.00  0.00    +0.000 A 
ATOM     26  C   UNL     1       1.720   6.557  20.612  0.00  0.00    +0.000 A 
ATOM     27  C   UNL     1       1.844   7.735  19.852  0.00  0.00    +0.000 A 
ATOM     28  C   UNL     1       2.655   7.646  18.728  0.00  0.00    +0.000 A 
ATOM     29  C   UNL     1       3.260   6.455  18.288  0.00  0.00    +0.000 A 
BRANCH  24  31
ATOM     30  C   UNL     1       4.168   3.287  19.475  0.00  0.00    +0.000 C 
ATOM     31  O   UNL     1       3.447   4.071  18.527  0.00  0.00    +0.000 OA
ENDBRANCH  24  31
BRANCH  29  32
ATOM     32  O   UNL     1       3.949   6.633  17.119  0.00  0.00    +0.000 OA
ATOM     33  C   UNL     1       5.365   6.638  17.135  0.00  0.00    +0.000 C 
ENDBRANCH  29  32
ENDBRANCH  22  27
ENDBRANCH  21  22
ENDBRANCH   1  21
TORSDOF 7
ENDMDL
