MODEL 1
REMARK VINA RESULT:      -7.4      0.000      0.000
REMARK  Name = 
REMARK  15 active torsions:
REMARK  status: ('A' for Active; 'I' for Inactive)
REMARK    1  A    between atoms: C_1  and  O_2
REMARK    2  A    between atoms: O_2  and  C_3
REMARK    3  A    between atoms: C_3  and  C_4
REMARK    4  A    between atoms: C_4  and  O_5
REMARK    5  A    between atoms: O_5  and  C_6
REMARK    6  A    between atoms: C_6  and  O_7
REMARK    7  A    between atoms: O_7  and  C_8
REMARK    8  A    between atoms: C_11  and  C_12
REMARK    9  A    between atoms: C_15  and  C_16
REMARK   10  A    between atoms: C_16  and  O_18
REMARK   11  A    between atoms: C_22  and  C_23
REMARK   12  A    between atoms: C_29  and  C_30
REMARK   13  A    between atoms: C_29  and  C_31
REMARK   14  A    between atoms: C_34  and  C_35
REMARK   15  A    between atoms: C_34  and  C_36
REMARK                            x       y       z     vdW  Elec       q    Type
REMARK                         _______ _______ _______ _____ _____    ______ ____
ROOT
ATOM      1  C   UNL     1       0.963   8.254  20.676  0.00  0.00    +0.000 A 
ATOM      2  C   UNL     1       1.206   6.872  20.683  0.00  0.00    +0.000 A 
ATOM      3  C   UNL     1       2.032   6.291  19.730  0.00  0.00    +0.000 A 
ATOM      4  C   UNL     1       2.633   7.072  18.738  0.00  0.00    +0.000 A 
ATOM      5  C   UNL     1       2.313   8.460  18.700  0.00  0.00    +0.000 A 
ATOM      6  C   UNL     1       1.460   9.096  19.632  0.00  0.00    +0.000 A 
ENDROOT
BRANCH   6   7
ATOM      7  C   UNL     1       1.021  10.546  19.440  0.00  0.00    +0.000 A 
ATOM      8  C   UNL     1      -0.304  11.012  19.365  0.00  0.00    +0.000 A 
ATOM      9  C   UNL     1      -0.633  12.428  19.339  0.00  0.00    +0.000 A 
ATOM     10  C   UNL     1       0.332  13.449  19.398  0.00  0.00    +0.000 A 
ATOM     11  C   UNL     1       1.636  12.966  19.424  0.00  0.00    +0.000 A 
ATOM     12  C   UNL     1       1.973  11.535  19.427  0.00  0.00    +0.000 A 
ATOM     13  C   UNL     1       2.814  13.940  19.519  0.00  0.00    +0.000 C 
ATOM     14  C   UNL     1       2.747  13.820  17.908  0.00  0.00    +0.000 C 
ATOM     15  C   UNL     1       2.682  13.648  21.110  0.00  0.00    +0.000 C 
ATOM     16  C   UNL     1       2.817  15.442  19.609  0.00  0.00    +0.000 C 
ATOM     17  C   UNL     1       1.404  15.968  19.677  0.00  0.00    +0.000 C 
ATOM     18  C   UNL     1       0.125  14.982  19.562  0.00  0.00    +0.000 C 
ATOM     19  C   UNL     1      -0.723  15.149  20.847  0.00  0.00    +0.000 C 
ATOM     20  C   UNL     1      -0.686  15.670  18.438  0.00  0.00    +0.000 C 
ENDBRANCH   6   7
BRANCH   4  21
ATOM     21  C   UNL     1       3.566   6.443  17.778  0.00  0.00    +0.000 A 
ATOM     22  C   UNL     1       4.504   7.198  17.060  0.00  0.00    +0.000 A 
ATOM     23  C   UNL     1       5.422   6.590  16.195  0.00  0.00    +0.000 A 
ATOM     24  C   UNL     1       5.416   5.207  16.003  0.00  0.00    +0.000 A 
ATOM     25  C   UNL     1       4.475   4.421  16.685  0.00  0.00    +0.000 A 
ATOM     26  C   UNL     1       3.562   5.046  17.567  0.00  0.00    +0.000 A 
BRANCH  24  27
ATOM     27  C   UNL     1       6.441   4.608  15.119  0.00  0.00    +0.000 C 
ATOM     28  O   UNL     1       7.467   5.187  14.808  0.00  0.00    +0.000 OA
BRANCH  27  29
ATOM     29  O   UNL     1       6.112   3.376  14.662  0.00  0.00    +0.000 OA
ATOM     30  H   UNL     1       6.807   2.913  14.161  0.00  0.00    +0.000 HD
ENDBRANCH  27  29
ENDBRANCH  24  27
ENDBRANCH   4  21
BRANCH   1  31
ATOM     31  O   UNL     1       0.188   8.820  21.662  0.00  0.00    +0.000 OA
BRANCH  31  32
ATOM     32  C   UNL     1       0.929   9.216  22.821  0.00  0.00    +0.000 C 
BRANCH  32  33
ATOM     33  O   UNL     1       0.223  10.178  23.596  0.00  0.00    +0.000 OA
BRANCH  33  34
ATOM     34  C   UNL     1      -1.092  10.464  23.120  0.00  0.00    +0.000 C 
BRANCH  34  35
ATOM     35  C   UNL     1      -1.409  11.957  22.982  0.00  0.00    +0.000 C 
BRANCH  35  37
ATOM     36  C   UNL     1      -3.042  13.600  23.447  0.00  0.00    +0.000 C 
ATOM     37  O   UNL     1      -2.726  12.216  23.473  0.00  0.00    +0.000 OA
ENDBRANCH  35  37
ENDBRANCH  34  35
ENDBRANCH  33  34
ENDBRANCH  32  33
ENDBRANCH  31  32
ENDBRANCH   1  31
TORSDOF 10
ENDMDL
MODEL 2
REMARK VINA RESULT:      -7.2      2.506      5.015
REMARK  Name = 
REMARK  15 active torsions:
REMARK  status: ('A' for Active; 'I' for Inactive)
REMARK    1  A    between atoms: C_1  and  O_2
REMARK    2  A    between atoms: O_2  and  C_3
REMARK    3  A    between atoms: C_3  and  C_4
REMARK    4  A    between atoms: C_4  and  O_5
REMARK    5  A    between atoms: O_5  and  C_6
REMARK    6  A    between atoms: C_6  and  O_7
REMARK    7  A    between atoms: O_7  and  C_8
REMARK    8  A    between atoms: C_11  and  C_12
REMARK    9  A    between atoms: C_15  and  C_16
REMARK   10  A    between atoms: C_16  and  O_18
REMARK   11  A    between atoms: C_22  and  C_23
REMARK   12  A    between atoms: C_29  and  C_30
REMARK   13  A    between atoms: C_29  and  C_31
REMARK   14  A    between atoms: C_34  and  C_35
REMARK   15  A    between atoms: C_34  and  C_36
REMARK                            x       y       z     vdW  Elec       q    Type
REMARK                         _______ _______ _______ _____ _____    ______ ____
ROOT
ATOM      1  C   UNL     1       0.923  11.258  18.716  0.00  0.00    +0.000 A 
ATOM      2  C   UNL     1       1.984  10.777  17.935  0.00  0.00    +0.000 A 
ATOM      3  C   UNL     1       2.441   9.475  18.083  0.00  0.00    +0.000 A 
ATOM      4  C   UNL     1       1.856   8.617  19.020  0.00  0.00    +0.000 A 
ATOM      5  C   UNL     1       0.832   9.146  19.857  0.00  0.00    +0.000 A 
ATOM      6  C   UNL     1       0.346  10.472  19.763  0.00  0.00    +0.000 A 
ENDROOT
BRANCH   6   7
ATOM      7  C   UNL     1      -0.629  11.032  20.796  0.00  0.00    +0.000 A 
ATOM      8  C   UNL     1      -0.586  10.814  22.186  0.00  0.00    +0.000 A 
ATOM      9  C   UNL     1      -1.461  11.513  23.112  0.00  0.00    +0.000 A 
ATOM     10  C   UNL     1      -2.412  12.467  22.710  0.00  0.00    +0.000 A 
ATOM     11  C   UNL     1      -2.470  12.631  21.330  0.00  0.00    +0.000 A 
ATOM     12  C   UNL     1      -1.602  11.909  20.388  0.00  0.00    +0.000 A 
ATOM     13  C   UNL     1      -3.431  13.655  20.718  0.00  0.00    +0.000 C 
ATOM     14  C   UNL     1      -4.403  12.365  20.657  0.00  0.00    +0.000 C 
ATOM     15  C   UNL     1      -2.131  14.626  20.771  0.00  0.00    +0.000 C 
ATOM     16  C   UNL     1      -4.390  14.598  21.391  0.00  0.00    +0.000 C 
ATOM     17  C   UNL     1      -4.265  14.494  22.892  0.00  0.00    +0.000 C 
ATOM     18  C   UNL     1      -3.278  13.415  23.588  0.00  0.00    +0.000 C 
ATOM     19  C   UNL     1      -2.272  14.192  24.473  0.00  0.00    +0.000 C 
ATOM     20  C   UNL     1      -4.245  12.716  24.573  0.00  0.00    +0.000 C 
ENDBRANCH   6   7
BRANCH   4  21
ATOM     21  C   UNL     1       2.311   7.212  19.110  0.00  0.00    +0.000 A 
ATOM     22  C   UNL     1       3.105   6.630  18.111  0.00  0.00    +0.000 A 
ATOM     23  C   UNL     1       3.579   5.318  18.230  0.00  0.00    +0.000 A 
ATOM     24  C   UNL     1       3.255   4.537  19.342  0.00  0.00    +0.000 A 
ATOM     25  C   UNL     1       2.443   5.078  20.349  0.00  0.00    +0.000 A 
ATOM     26  C   UNL     1       1.982   6.410  20.225  0.00  0.00    +0.000 A 
BRANCH  24  27
ATOM     27  C   UNL     1       3.826   3.176  19.444  0.00  0.00    +0.000 C 
ATOM     28  O   UNL     1       3.142   2.183  19.625  0.00  0.00    +0.000 OA
BRANCH  27  29
ATOM     29  O   UNL     1       5.177   3.144  19.355  0.00  0.00    +0.000 OA
ATOM     30  H   UNL     1       5.563   2.290  19.093  0.00  0.00    +0.000 HD
ENDBRANCH  27  29
ENDBRANCH  24  27
ENDBRANCH   4  21
BRANCH   1  31
ATOM     31  O   UNL     1       0.446  12.534  18.517  0.00  0.00    +0.000 OA
BRANCH  31  32
ATOM     32  C   UNL     1       1.472  13.531  18.467  0.00  0.00    +0.000 C 
BRANCH  32  33
ATOM     33  O   UNL     1       1.267  14.549  19.439  0.00  0.00    +0.000 OA
BRANCH  33  34
ATOM     34  C   UNL     1       2.463  15.024  20.053  0.00  0.00    +0.000 C 
BRANCH  34  35
ATOM     35  C   UNL     1       3.142  14.017  20.989  0.00  0.00    +0.000 C 
BRANCH  35  37
ATOM     36  C   UNL     1       4.318  15.048  22.760  0.00  0.00    +0.000 C 
ATOM     37  O   UNL     1       3.082  14.495  22.335  0.00  0.00    +0.000 OA
ENDBRANCH  35  37
ENDBRANCH  34  35
ENDBRANCH  33  34
ENDBRANCH  32  33
ENDBRANCH  31  32
ENDBRANCH   1  31
TORSDOF 10
ENDMDL
MODEL 3
REMARK VINA RESULT:      -7.1      1.428      2.390
REMARK  Name = 
REMARK  15 active torsions:
REMARK  status: ('A' for Active; 'I' for Inactive)
REMARK    1  A    between atoms: C_1  and  O_2
REMARK    2  A    between atoms: O_2  and  C_3
REMARK    3  A    between atoms: C_3  and  C_4
REMARK    4  A    between atoms: C_4  and  O_5
REMARK    5  A    between atoms: O_5  and  C_6
REMARK    6  A    between atoms: C_6  and  O_7
REMARK    7  A    between atoms: O_7  and  C_8
REMARK    8  A    between atoms: C_11  and  C_12
REMARK    9  A    between atoms: C_15  and  C_16
REMARK   10  A    between atoms: C_16  and  O_18
REMARK   11  A    between atoms: C_22  and  C_23
REMARK   12  A    between atoms: C_29  and  C_30
REMARK   13  A    between atoms: C_29  and  C_31
REMARK   14  A    between atoms: C_34  and  C_35
REMARK   15  A    between atoms: C_34  and  C_36
REMARK                            x       y       z     vdW  Elec       q    Type
REMARK                         _______ _______ _______ _____ _____    ______ ____
ROOT
ATOM      1  C   UNL     1       0.351  10.413  21.882  0.00  0.00    +0.000 A 
ATOM      2  C   UNL     1       0.373   9.067  22.276  0.00  0.00    +0.000 A 
ATOM      3  C   UNL     1       0.960   8.100  21.470  0.00  0.00    +0.000 A 
ATOM      4  C   UNL     1       1.535   8.449  20.244  0.00  0.00    +0.000 A 
ATOM      5  C   UNL     1       1.434   9.807  19.825  0.00  0.00    +0.000 A 
ATOM      6  C   UNL     1       0.826  10.826  20.598  0.00  0.00    +0.000 A 
ENDROOT
BRANCH   6   7
ATOM      7  C   UNL     1       0.598  12.222  20.024  0.00  0.00    +0.000 A 
ATOM      8  C   UNL     1      -0.640  12.779  19.655  0.00  0.00    +0.000 A 
ATOM      9  C   UNL     1      -0.785  14.171  19.266  0.00  0.00    +0.000 A 
ATOM     10  C   UNL     1       0.286  15.082  19.233  0.00  0.00    +0.000 A 
ATOM     11  C   UNL     1       1.507  14.500  19.555  0.00  0.00    +0.000 A 
ATOM     12  C   UNL     1       1.661  13.085  19.928  0.00  0.00    +0.000 A 
ATOM     13  C   UNL     1       2.778  15.353  19.599  0.00  0.00    +0.000 C 
ATOM     14  C   UNL     1       2.888  14.859  18.064  0.00  0.00    +0.000 C 
ATOM     15  C   UNL     1       2.422  15.464  21.180  0.00  0.00    +0.000 C 
ATOM     16  C   UNL     1       2.957  16.826  19.350  0.00  0.00    +0.000 C 
ATOM     17  C   UNL     1       1.623  17.483  19.094  0.00  0.00    +0.000 C 
ATOM     18  C   UNL     1       0.254  16.622  19.018  0.00  0.00    +0.000 C 
ATOM     19  C   UNL     1      -0.714  17.170  20.097  0.00  0.00    +0.000 C 
ATOM     20  C   UNL     1      -0.325  17.095  17.663  0.00  0.00    +0.000 C 
ENDBRANCH   6   7
BRANCH   4  21
ATOM     21  C   UNL     1       2.218   7.415  19.436  0.00  0.00    +0.000 A 
ATOM     22  C   UNL     1       2.901   7.737  18.255  0.00  0.00    +0.000 A 
ATOM     23  C   UNL     1       3.593   6.763  17.525  0.00  0.00    +0.000 A 
ATOM     24  C   UNL     1       3.604   5.430  17.941  0.00  0.00    +0.000 A 
ATOM     25  C   UNL     1       2.911   5.066  19.105  0.00  0.00    +0.000 A 
ATOM     26  C   UNL     1       2.227   6.062  19.842  0.00  0.00    +0.000 A 
BRANCH  24  27
ATOM     27  C   UNL     1       4.395   4.449  17.164  0.00  0.00    +0.000 C 
ATOM     28  O   UNL     1       4.721   4.632  16.004  0.00  0.00    +0.000 OA
BRANCH  27  29
ATOM     29  O   UNL     1       4.687   3.319  17.852  0.00  0.00    +0.000 OA
ATOM     30  H   UNL     1       4.090   3.110  18.592  0.00  0.00    +0.000 HD
ENDBRANCH  27  29
ENDBRANCH  24  27
ENDBRANCH   4  21
BRANCH   1  31
ATOM     31  O   UNL     1      -0.184  11.365  22.719  0.00  0.00    +0.000 OA
BRANCH  31  32
ATOM     32  C   UNL     1      -1.540  11.102  23.099  0.00  0.00    +0.000 C 
BRANCH  32  33
ATOM     33  O   UNL     1      -2.410  12.158  22.712  0.00  0.00    +0.000 OA
BRANCH  33  34
ATOM     34  C   UNL     1      -2.356  13.304  23.561  0.00  0.00    +0.000 C 
BRANCH  34  35
ATOM     35  C   UNL     1      -3.718  13.771  24.088  0.00  0.00    +0.000 C 
BRANCH  35  37
ATOM     36  C   UNL     1      -5.808  12.683  24.255  0.00  0.00    +0.000 C 
ATOM     37  O   UNL     1      -4.436  12.655  24.618  0.00  0.00    +0.000 OA
ENDBRANCH  35  37
ENDBRANCH  34  35
ENDBRANCH  33  34
ENDBRANCH  32  33
ENDBRANCH  31  32
ENDBRANCH   1  31
TORSDOF 10
ENDMDL
MODEL 4
REMARK VINA RESULT:      -7.0      0.881      1.051
REMARK  Name = 
REMARK  15 active torsions:
REMARK  status: ('A' for Active; 'I' for Inactive)
REMARK    1  A    between atoms: C_1  and  O_2
REMARK    2  A    between atoms: O_2  and  C_3
REMARK    3  A    between atoms: C_3  and  C_4
REMARK    4  A    between atoms: C_4  and  O_5
REMARK    5  A    between atoms: O_5  and  C_6
REMARK    6  A    between atoms: C_6  and  O_7
REMARK    7  A    between atoms: O_7  and  C_8
REMARK    8  A    between atoms: C_11  and  C_12
REMARK    9  A    between atoms: C_15  and  C_16
REMARK   10  A    between atoms: C_16  and  O_18
REMARK   11  A    between atoms: C_22  and  C_23
REMARK   12  A    between atoms: C_29  and  C_30
REMARK   13  A    between atoms: C_29  and  C_31
REMARK   14  A    between atoms: C_34  and  C_35
REMARK   15  A    between atoms: C_34  and  C_36
REMARK                            x       y       z     vdW  Elec       q    Type
REMARK                         _______ _______ _______ _____ _____    ______ ____
ROOT
ATOM      1  C   UNL     1       0.626   9.074  20.496  0.00  0.00    +0.000 A 
ATOM      2  C   UNL     1       0.765   7.683  20.610  0.00  0.00    +0.000 A 
ATOM      3  C   UNL     1       1.615   6.983  19.764  0.00  0.00    +0.000 A 
ATOM      4  C   UNL     1       2.344   7.651  18.776  0.00  0.00    +0.000 A 
ATOM      5  C   UNL     1       2.131   9.051  18.625  0.00  0.00    +0.000 A 
ATOM      6  C   UNL     1       1.259   9.807  19.444  0.00  0.00    +0.000 A 
ENDROOT
BRANCH   6   7
ATOM      7  C   UNL     1       0.944  11.267  19.127  0.00  0.00    +0.000 A 
ATOM      8  C   UNL     1      -0.274  11.767  18.630  0.00  0.00    +0.000 A 
ATOM      9  C   UNL     1      -0.540  13.190  18.506  0.00  0.00    +0.000 A 
ATOM     10  C   UNL     1       0.380  14.186  18.876  0.00  0.00    +0.000 A 
ATOM     11  C   UNL     1       1.593  13.670  19.319  0.00  0.00    +0.000 A 
ATOM     12  C   UNL     1       1.875  12.231  19.425  0.00  0.00    +0.000 A 
ATOM     13  C   UNL     1       2.703  14.614  19.793  0.00  0.00    +0.000 C 
ATOM     14  C   UNL     1       3.155  14.488  18.246  0.00  0.00    +0.000 C 
ATOM     15  C   UNL     1       2.058  14.333  21.256  0.00  0.00    +0.000 C 
ATOM     16  C   UNL     1       2.715  16.115  19.885  0.00  0.00    +0.000 C 
ATOM     17  C   UNL     1       1.370  16.678  19.496  0.00  0.00    +0.000 C 
ATOM     18  C   UNL     1       0.171  15.725  18.971  0.00  0.00    +0.000 C 
ATOM     19  C   UNL     1      -1.041  15.920  19.915  0.00  0.00    +0.000 C 
ATOM     20  C   UNL     1      -0.215  16.429  17.649  0.00  0.00    +0.000 C 
ENDBRANCH   6   7
BRANCH   4  21
ATOM     21  C   UNL     1       3.298   6.895  17.933  0.00  0.00    +0.000 A 
ATOM     22  C   UNL     1       4.265   7.544  17.154  0.00  0.00    +0.000 A 
ATOM     23  C   UNL     1       5.202   6.822  16.404  0.00  0.00    +0.000 A 
ATOM     24  C   UNL     1       5.184   5.425  16.391  0.00  0.00    +0.000 A 
ATOM     25  C   UNL     1       4.215   4.742  17.139  0.00  0.00    +0.000 A 
ATOM     26  C   UNL     1       3.284   5.483  17.905  0.00  0.00    +0.000 A 
BRANCH  24  27
ATOM     27  C   UNL     1       6.228   4.709  15.625  0.00  0.00    +0.000 C 
ATOM     28  O   UNL     1       6.110   3.549  15.269  0.00  0.00    +0.000 OA
BRANCH  27  29
ATOM     29  O   UNL     1       7.337   5.452  15.390  0.00  0.00    +0.000 OA
ATOM     30  H   UNL     1       8.101   4.967  15.032  0.00  0.00    +0.000 HD
ENDBRANCH  27  29
ENDBRANCH  24  27
ENDBRANCH   4  21
BRANCH   1  31
ATOM     31  O   UNL     1      -0.177   9.759  21.380  0.00  0.00    +0.000 OA
BRANCH  31  32
ATOM     32  C   UNL     1       0.200   9.590  22.751  0.00  0.00    +0.000 C 
BRANCH  32  33
ATOM     33  O   UNL     1      -0.336  10.616  23.576  0.00  0.00    +0.000 OA
BRANCH  33  34
ATOM     34  C   UNL     1      -1.112  11.588  22.875  0.00  0.00    +0.000 C 
BRANCH  34  35
ATOM     35  C   UNL     1      -2.483  11.878  23.497  0.00  0.00    +0.000 C 
BRANCH  35  37
ATOM     36  C   UNL     1      -2.902  12.940  21.429  0.00  0.00    +0.000 C 
ATOM     37  O   UNL     1      -3.437  12.128  22.463  0.00  0.00    +0.000 OA
ENDBRANCH  35  37
ENDBRANCH  34  35
ENDBRANCH  33  34
ENDBRANCH  32  33
ENDBRANCH  31  32
ENDBRANCH   1  31
TORSDOF 10
ENDMDL
MODEL 5
REMARK VINA RESULT:      -7.0      1.933      3.317
REMARK  Name = 
REMARK  15 active torsions:
REMARK  status: ('A' for Active; 'I' for Inactive)
REMARK    1  A    between atoms: C_1  and  O_2
REMARK    2  A    between atoms: O_2  and  C_3
REMARK    3  A    between atoms: C_3  and  C_4
REMARK    4  A    between atoms: C_4  and  O_5
REMARK    5  A    between atoms: O_5  and  C_6
REMARK    6  A    between atoms: C_6  and  O_7
REMARK    7  A    between atoms: O_7  and  C_8
REMARK    8  A    between atoms: C_11  and  C_12
REMARK    9  A    between atoms: C_15  and  C_16
REMARK   10  A    between atoms: C_16  and  O_18
REMARK   11  A    between atoms: C_22  and  C_23
REMARK   12  A    between atoms: C_29  and  C_30
REMARK   13  A    between atoms: C_29  and  C_31
REMARK   14  A    between atoms: C_34  and  C_35
REMARK   15  A    between atoms: C_34  and  C_36
REMARK                            x       y       z     vdW  Elec       q    Type
REMARK                         _______ _______ _______ _____ _____    ______ ____
ROOT
ATOM      1  C   UNL     1      -0.314  10.952  22.274  0.00  0.00    +0.000 A 
ATOM      2  C   UNL     1      -0.406   9.626  22.721  0.00  0.00    +0.000 A 
ATOM      3  C   UNL     1       0.199   8.595  22.014  0.00  0.00    +0.000 A 
ATOM      4  C   UNL     1       0.907   8.859  20.837  0.00  0.00    +0.000 A 
ATOM      5  C   UNL     1       0.924  10.201  20.358  0.00  0.00    +0.000 A 
ATOM      6  C   UNL     1       0.304  11.283  21.028  0.00  0.00    +0.000 A 
ENDROOT
BRANCH   6   7
ATOM      7  C   UNL     1       0.211  12.663  20.381  0.00  0.00    +0.000 A 
ATOM      8  C   UNL     1      -0.969  13.322  19.991  0.00  0.00    +0.000 A 
ATOM      9  C   UNL     1      -0.977  14.700  19.528  0.00  0.00    +0.000 A 
ATOM     10  C   UNL     1       0.180  15.493  19.439  0.00  0.00    +0.000 A 
ATOM     11  C   UNL     1       1.340  14.808  19.784  0.00  0.00    +0.000 A 
ATOM     12  C   UNL     1       1.354  13.407  20.231  0.00  0.00    +0.000 A 
ATOM     13  C   UNL     1       2.691  15.530  19.773  0.00  0.00    +0.000 C 
ATOM     14  C   UNL     1       2.732  14.946  18.266  0.00  0.00    +0.000 C 
ATOM     15  C   UNL     1       2.368  15.759  21.348  0.00  0.00    +0.000 C 
ATOM     16  C   UNL     1       3.015  16.961  19.444  0.00  0.00    +0.000 C 
ATOM     17  C   UNL     1       1.751  17.736  19.161  0.00  0.00    +0.000 C 
ATOM     18  C   UNL     1       0.301  17.016  19.141  0.00  0.00    +0.000 C 
ATOM     19  C   UNL     1      -0.593  17.715  20.195  0.00  0.00    +0.000 C 
ATOM     20  C   UNL     1      -0.243  17.472  17.767  0.00  0.00    +0.000 C 
ENDBRANCH   6   7
BRANCH   4  21
ATOM     21  C   UNL     1       1.604   7.756  20.140  0.00  0.00    +0.000 A 
ATOM     22  C   UNL     1       1.709   6.477  20.706  0.00  0.00    +0.000 A 
ATOM     23  C   UNL     1       2.320   5.423  20.016  0.00  0.00    +0.000 A 
ATOM     24  C   UNL     1       2.867   5.620  18.746  0.00  0.00    +0.000 A 
ATOM     25  C   UNL     1       2.803   6.892  18.159  0.00  0.00    +0.000 A 
ATOM     26  C   UNL     1       2.170   7.946  18.860  0.00  0.00    +0.000 A 
BRANCH  24  27
ATOM     27  C   UNL     1       3.454   4.461  18.038  0.00  0.00    +0.000 C 
ATOM     28  O   UNL     1       4.629   4.154  18.130  0.00  0.00    +0.000 OA
BRANCH  27  29
ATOM     29  O   UNL     1       2.570   3.800  17.251  0.00  0.00    +0.000 OA
ATOM     30  H   UNL     1       2.134   3.032  17.661  0.00  0.00    +0.000 HD
ENDBRANCH  27  29
ENDBRANCH  24  27
ENDBRANCH   4  21
BRANCH   1  31
ATOM     31  O   UNL     1      -0.872  11.968  23.018  0.00  0.00    +0.000 OA
BRANCH  31  32
ATOM     32  C   UNL     1      -2.251  11.754  23.340  0.00  0.00    +0.000 C 
BRANCH  32  33
ATOM     33  O   UNL     1      -3.048  12.890  23.026  0.00  0.00    +0.000 OA
BRANCH  33  34
ATOM     34  C   UNL     1      -3.840  12.743  21.848  0.00  0.00    +0.000 C 
BRANCH  34  35
ATOM     35  C   UNL     1      -5.304  13.171  22.008  0.00  0.00    +0.000 C 
BRANCH  35  37
ATOM     36  C   UNL     1      -7.324  12.070  21.471  0.00  0.00    +0.000 C 
ATOM     37  O   UNL     1      -6.121  12.019  22.223  0.00  0.00    +0.000 OA
ENDBRANCH  35  37
ENDBRANCH  34  35
ENDBRANCH  33  34
ENDBRANCH  32  33
ENDBRANCH  31  32
ENDBRANCH   1  31
TORSDOF 10
ENDMDL
MODEL 6
REMARK VINA RESULT:      -7.0      2.590      5.112
REMARK  Name = 
REMARK  15 active torsions:
REMARK  status: ('A' for Active; 'I' for Inactive)
REMARK    1  A    between atoms: C_1  and  O_2
REMARK    2  A    between atoms: O_2  and  C_3
REMARK    3  A    between atoms: C_3  and  C_4
REMARK    4  A    between atoms: C_4  and  O_5
REMARK    5  A    between atoms: O_5  and  C_6
REMARK    6  A    between atoms: C_6  and  O_7
REMARK    7  A    between atoms: O_7  and  C_8
REMARK    8  A    between atoms: C_11  and  C_12
REMARK    9  A    between atoms: C_15  and  C_16
REMARK   10  A    between atoms: C_16  and  O_18
REMARK   11  A    between atoms: C_22  and  C_23
REMARK   12  A    between atoms: C_29  and  C_30
REMARK   13  A    between atoms: C_29  and  C_31
REMARK   14  A    between atoms: C_34  and  C_35
REMARK   15  A    between atoms: C_34  and  C_36
REMARK                            x       y       z     vdW  Elec       q    Type
REMARK                         _______ _______ _______ _____ _____    ______ ____
ROOT
ATOM      1  C   UNL     1       0.846  11.158  18.689  0.00  0.00    +0.000 A 
ATOM      2  C   UNL     1       1.902  10.671  17.905  0.00  0.00    +0.000 A 
ATOM      3  C   UNL     1       2.400   9.390  18.101  0.00  0.00    +0.000 A 
ATOM      4  C   UNL     1       1.862   8.561  19.091  0.00  0.00    +0.000 A 
ATOM      5  C   UNL     1       0.844   9.101  19.928  0.00  0.00    +0.000 A 
ATOM      6  C   UNL     1       0.318  10.408  19.786  0.00  0.00    +0.000 A 
ENDROOT
BRANCH   6   7
ATOM      7  C   UNL     1      -0.648  10.988  20.816  0.00  0.00    +0.000 A 
ATOM      8  C   UNL     1      -0.600  10.788  22.208  0.00  0.00    +0.000 A 
ATOM      9  C   UNL     1      -1.465  11.506  23.129  0.00  0.00    +0.000 A 
ATOM     10  C   UNL     1      -2.410  12.462  22.719  0.00  0.00    +0.000 A 
ATOM     11  C   UNL     1      -2.474  12.608  21.338  0.00  0.00    +0.000 A 
ATOM     12  C   UNL     1      -1.616  11.867  20.401  0.00  0.00    +0.000 A 
ATOM     13  C   UNL     1      -3.430  13.631  20.716  0.00  0.00    +0.000 C 
ATOM     14  C   UNL     1      -4.413  12.348  20.678  0.00  0.00    +0.000 C 
ATOM     15  C   UNL     1      -2.122  14.592  20.750  0.00  0.00    +0.000 C 
ATOM     16  C   UNL     1      -4.378  14.590  21.382  0.00  0.00    +0.000 C 
ATOM     17  C   UNL     1      -4.246  14.505  22.884  0.00  0.00    +0.000 C 
ATOM     18  C   UNL     1      -3.264  13.428  23.589  0.00  0.00    +0.000 C 
ATOM     19  C   UNL     1      -2.248  14.208  24.459  0.00  0.00    +0.000 C 
ATOM     20  C   UNL     1      -4.231  12.749  24.588  0.00  0.00    +0.000 C 
ENDBRANCH   6   7
BRANCH   4  21
ATOM     21  C   UNL     1       2.359   7.175  19.234  0.00  0.00    +0.000 A 
ATOM     22  C   UNL     1       1.947   6.351  20.291  0.00  0.00    +0.000 A 
ATOM     23  C   UNL     1       2.377   5.022  20.389  0.00  0.00    +0.000 A 
ATOM     24  C   UNL     1       3.252   4.481  19.445  0.00  0.00    +0.000 A 
ATOM     25  C   UNL     1       3.705   5.284  18.388  0.00  0.00    +0.000 A 
ATOM     26  C   UNL     1       3.252   6.621  18.291  0.00  0.00    +0.000 A 
BRANCH  24  27
ATOM     27  C   UNL     1       3.634   3.056  19.564  0.00  0.00    +0.000 C 
ATOM     28  O   UNL     1       2.831   2.175  19.817  0.00  0.00    +0.000 OA
BRANCH  27  29
ATOM     29  O   UNL     1       4.960   2.834  19.402  0.00  0.00    +0.000 OA
ATOM     30  H   UNL     1       5.496   3.617  19.186  0.00  0.00    +0.000 HD
ENDBRANCH  27  29
ENDBRANCH  24  27
ENDBRANCH   4  21
BRANCH   1  31
ATOM     31  O   UNL     1       0.328  12.410  18.443  0.00  0.00    +0.000 OA
BRANCH  31  32
ATOM     32  C   UNL     1       1.261  13.473  18.667  0.00  0.00    +0.000 C 
BRANCH  32  33
ATOM     33  O   UNL     1       1.356  13.809  20.046  0.00  0.00    +0.000 OA
BRANCH  33  34
ATOM     34  C   UNL     1       2.665  13.666  20.596  0.00  0.00    +0.000 C 
BRANCH  34  35
ATOM     35  C   UNL     1       3.053  14.751  21.607  0.00  0.00    +0.000 C 
BRANCH  35  37
ATOM     36  C   UNL     1       4.763  15.052  20.004  0.00  0.00    +0.000 C 
ATOM     37  O   UNL     1       3.961  15.672  20.998  0.00  0.00    +0.000 OA
ENDBRANCH  35  37
ENDBRANCH  34  35
ENDBRANCH  33  34
ENDBRANCH  32  33
ENDBRANCH  31  32
ENDBRANCH   1  31
TORSDOF 10
ENDMDL
MODEL 7
REMARK VINA RESULT:      -6.9      2.737      4.974
REMARK  Name = 
REMARK  15 active torsions:
REMARK  status: ('A' for Active; 'I' for Inactive)
REMARK    1  A    between atoms: C_1  and  O_2
REMARK    2  A    between atoms: O_2  and  C_3
REMARK    3  A    between atoms: C_3  and  C_4
REMARK    4  A    between atoms: C_4  and  O_5
REMARK    5  A    between atoms: O_5  and  C_6
REMARK    6  A    between atoms: C_6  and  O_7
REMARK    7  A    between atoms: O_7  and  C_8
REMARK    8  A    between atoms: C_11  and  C_12
REMARK    9  A    between atoms: C_15  and  C_16
REMARK   10  A    between atoms: C_16  and  O_18
REMARK   11  A    between atoms: C_22  and  C_23
REMARK   12  A    between atoms: C_29  and  C_30
REMARK   13  A    between atoms: C_29  and  C_31
REMARK   14  A    between atoms: C_34  and  C_35
REMARK   15  A    between atoms: C_34  and  C_36
REMARK                            x       y       z     vdW  Elec       q    Type
REMARK                         _______ _______ _______ _____ _____    ______ ____
ROOT
ATOM      1  C   UNL     1       1.198  10.773  18.642  0.00  0.00    +0.000 A 
ATOM      2  C   UNL     1       2.211  10.164  17.888  0.00  0.00    +0.000 A 
ATOM      3  C   UNL     1       2.541   8.830  18.088  0.00  0.00    +0.000 A 
ATOM      4  C   UNL     1       1.874   8.069  19.053  0.00  0.00    +0.000 A 
ATOM      5  C   UNL     1       0.903   8.726  19.863  0.00  0.00    +0.000 A 
ATOM      6  C   UNL     1       0.546  10.088  19.715  0.00  0.00    +0.000 A 
ENDROOT
BRANCH   6   7
ATOM      7  C   UNL     1      -0.375  10.778  20.719  0.00  0.00    +0.000 A 
ATOM      8  C   UNL     1      -0.361  10.606  22.115  0.00  0.00    +0.000 A 
ATOM      9  C   UNL     1      -1.168  11.421  23.008  0.00  0.00    +0.000 A 
ATOM     10  C   UNL     1      -2.017  12.450  22.565  0.00  0.00    +0.000 A 
ATOM     11  C   UNL     1      -2.051  12.570  21.180  0.00  0.00    +0.000 A 
ATOM     12  C   UNL     1      -1.254  11.732  20.271  0.00  0.00    +0.000 A 
ATOM     13  C   UNL     1      -2.902  13.661  20.523  0.00  0.00    +0.000 C 
ATOM     14  C   UNL     1      -3.997  12.473  20.499  0.00  0.00    +0.000 C 
ATOM     15  C   UNL     1      -1.512  14.499  20.554  0.00  0.00    +0.000 C 
ATOM     16  C   UNL     1      -3.765  14.718  21.155  0.00  0.00    +0.000 C 
ATOM     17  C   UNL     1      -3.660  14.656  22.659  0.00  0.00    +0.000 C 
ATOM     18  C   UNL     1      -2.789  13.510  23.401  0.00  0.00    +0.000 C 
ATOM     19  C   UNL     1      -1.716  14.214  24.268  0.00  0.00    +0.000 C 
ATOM     20  C   UNL     1      -3.826  12.945  24.402  0.00  0.00    +0.000 C 
ENDBRANCH   6   7
BRANCH   4  21
ATOM     21  C   UNL     1       2.192   6.632  19.201  0.00  0.00    +0.000 A 
ATOM     22  C   UNL     1       2.774   5.897  18.158  0.00  0.00    +0.000 A 
ATOM     23  C   UNL     1       3.125   4.551  18.323  0.00  0.00    +0.000 A 
ATOM     24  C   UNL     1       2.884   3.891  19.530  0.00  0.00    +0.000 A 
ATOM     25  C   UNL     1       2.281   4.588  20.587  0.00  0.00    +0.000 A 
ATOM     26  C   UNL     1       1.944   5.952  20.413  0.00  0.00    +0.000 A 
BRANCH  24  27
ATOM     27  C   UNL     1       3.322   2.485  19.671  0.00  0.00    +0.000 C 
ATOM     28  O   UNL     1       4.262   2.150  20.370  0.00  0.00    +0.000 OA
BRANCH  27  29
ATOM     29  O   UNL     1       2.604   1.614  18.920  0.00  0.00    +0.000 OA
ATOM     30  H   UNL     1       2.108   2.006  18.180  0.00  0.00    +0.000 HD
ENDBRANCH  27  29
ENDBRANCH  24  27
ENDBRANCH   4  21
BRANCH   1  31
ATOM     31  O   UNL     1       0.846  12.080  18.390  0.00  0.00    +0.000 OA
BRANCH  31  32
ATOM     32  C   UNL     1       1.946  12.995  18.450  0.00  0.00    +0.000 C 
BRANCH  32  33
ATOM     33  O   UNL     1       2.259  13.356  19.790  0.00  0.00    +0.000 OA
BRANCH  33  34
ATOM     34  C   UNL     1       2.988  14.577  19.914  0.00  0.00    +0.000 C 
BRANCH  34  35
ATOM     35  C   UNL     1       2.135  15.844  19.783  0.00  0.00    +0.000 C 
BRANCH  35  37
ATOM     36  C   UNL     1       1.455  17.500  18.240  0.00  0.00    +0.000 C 
ATOM     37  O   UNL     1       2.381  16.459  18.516  0.00  0.00    +0.000 OA
ENDBRANCH  35  37
ENDBRANCH  34  35
ENDBRANCH  33  34
ENDBRANCH  32  33
ENDBRANCH  31  32
ENDBRANCH   1  31
TORSDOF 10
ENDMDL
MODEL 8
REMARK VINA RESULT:      -6.9      1.682      2.925
REMARK  Name = 
REMARK  15 active torsions:
REMARK  status: ('A' for Active; 'I' for Inactive)
REMARK    1  A    between atoms: C_1  and  O_2
REMARK    2  A    between atoms: O_2  and  C_3
REMARK    3  A    between atoms: C_3  and  C_4
REMARK    4  A    between atoms: C_4  and  O_5
REMARK    5  A    between atoms: O_5  and  C_6
REMARK    6  A    between atoms: C_6  and  O_7
REMARK    7  A    between atoms: O_7  and  C_8
REMARK    8  A    between atoms: C_11  and  C_12
REMARK    9  A    between atoms: C_15  and  C_16
REMARK   10  A    between atoms: C_16  and  O_18
REMARK   11  A    between atoms: C_22  and  C_23
REMARK   12  A    between atoms: C_29  and  C_30
REMARK   13  A    between atoms: C_29  and  C_31
REMARK   14  A    between atoms: C_34  and  C_35
REMARK   15  A    between atoms: C_34  and  C_36
REMARK                            x       y       z     vdW  Elec       q    Type
REMARK                         _______ _______ _______ _____ _____    ______ ____
ROOT
ATOM      1  C   UNL     1       0.012  10.638  22.196  0.00  0.00    +0.000 A 
ATOM      2  C   UNL     1      -0.024   9.303  22.628  0.00  0.00    +0.000 A 
ATOM      3  C   UNL     1       0.558   8.296  21.870  0.00  0.00    +0.000 A 
ATOM      4  C   UNL     1       1.185   8.591  20.656  0.00  0.00    +0.000 A 
ATOM      5  C   UNL     1       1.143   9.939  20.196  0.00  0.00    +0.000 A 
ATOM      6  C   UNL     1       0.543  10.998  20.918  0.00  0.00    +0.000 A 
ENDROOT
BRANCH   6   7
ATOM      7  C   UNL     1       0.380  12.384  20.299  0.00  0.00    +0.000 A 
ATOM      8  C   UNL     1      -0.834  13.000  19.944  0.00  0.00    +0.000 A 
ATOM      9  C   UNL     1      -0.908  14.384  19.507  0.00  0.00    +0.000 A 
ATOM     10  C   UNL     1       0.213  15.227  19.410  0.00  0.00    +0.000 A 
ATOM     11  C   UNL     1       1.407  14.585  19.719  0.00  0.00    +0.000 A 
ATOM     12  C   UNL     1       1.488  13.178  20.140  0.00  0.00    +0.000 A 
ATOM     13  C   UNL     1       2.727  15.362  19.695  0.00  0.00    +0.000 C 
ATOM     14  C   UNL     1       2.761  14.807  18.177  0.00  0.00    +0.000 C 
ATOM     15  C   UNL     1       2.426  15.550  21.279  0.00  0.00    +0.000 C 
ATOM     16  C   UNL     1       2.984  16.811  19.385  0.00  0.00    +0.000 C 
ATOM     17  C   UNL     1       1.684  17.537  19.141  0.00  0.00    +0.000 C 
ATOM     18  C   UNL     1       0.265  16.758  19.137  0.00  0.00    +0.000 C 
ATOM     19  C   UNL     1      -0.635  17.401  20.221  0.00  0.00    +0.000 C 
ATOM     20  C   UNL     1      -0.325  17.215  17.782  0.00  0.00    +0.000 C 
ENDBRANCH   6   7
BRANCH   4  21
ATOM     21  C   UNL     1       1.860   7.513  19.900  0.00  0.00    +0.000 A 
ATOM     22  C   UNL     1       1.914   6.198  20.384  0.00  0.00    +0.000 A 
ATOM     23  C   UNL     1       2.505   5.171  19.637  0.00  0.00    +0.000 A 
ATOM     24  C   UNL     1       3.082   5.431  18.392  0.00  0.00    +0.000 A 
ATOM     25  C   UNL     1       3.068   6.740  17.888  0.00  0.00    +0.000 A 
ATOM     26  C   UNL     1       2.455   7.766  18.644  0.00  0.00    +0.000 A 
BRANCH  24  27
ATOM     27  C   UNL     1       3.645   4.302  17.620  0.00  0.00    +0.000 C 
ATOM     28  O   UNL     1       4.292   4.455  16.599  0.00  0.00    +0.000 OA
BRANCH  27  29
ATOM     29  O   UNL     1       3.342   3.086  18.136  0.00  0.00    +0.000 OA
ATOM     30  H   UNL     1       2.842   3.095  18.971  0.00  0.00    +0.000 HD
ENDBRANCH  27  29
ENDBRANCH  24  27
ENDBRANCH   4  21
BRANCH   1  31
ATOM     31  O   UNL     1      -0.520  11.630  22.988  0.00  0.00    +0.000 OA
BRANCH  31  32
ATOM     32  C   UNL     1      -1.931  11.506  23.198  0.00  0.00    +0.000 C 
BRANCH  32  33
ATOM     33  O   UNL     1      -2.533  12.759  23.495  0.00  0.00    +0.000 OA
BRANCH  33  34
ATOM     34  C   UNL     1      -3.912  12.678  23.854  0.00  0.00    +0.000 C 
BRANCH  34  35
ATOM     35  C   UNL     1      -4.650  14.022  23.852  0.00  0.00    +0.000 C 
BRANCH  35  37
ATOM     36  C   UNL     1      -3.685  15.939  24.840  0.00  0.00    +0.000 C 
ATOM     37  O   UNL     1      -3.709  15.087  23.705  0.00  0.00    +0.000 OA
ENDBRANCH  35  37
ENDBRANCH  34  35
ENDBRANCH  33  34
ENDBRANCH  32  33
ENDBRANCH  31  32
ENDBRANCH   1  31
TORSDOF 10
ENDMDL
MODEL 9
REMARK VINA RESULT:      -6.9      2.895      5.449
REMARK  Name = 
REMARK  15 active torsions:
REMARK  status: ('A' for Active; 'I' for Inactive)
REMARK    1  A    between atoms: C_1  and  O_2
REMARK    2  A    between atoms: O_2  and  C_3
REMARK    3  A    between atoms: C_3  and  C_4
REMARK    4  A    between atoms: C_4  and  O_5
REMARK    5  A    between atoms: O_5  and  C_6
REMARK    6  A    between atoms: C_6  and  O_7
REMARK    7  A    between atoms: O_7  and  C_8
REMARK    8  A    between atoms: C_11  and  C_12
REMARK    9  A    between atoms: C_15  and  C_16
REMARK   10  A    between atoms: C_16  and  O_18
REMARK   11  A    between atoms: C_22  and  C_23
REMARK   12  A    between atoms: C_29  and  C_30
REMARK   13  A    between atoms: C_29  and  C_31
REMARK   14  A    between atoms: C_34  and  C_35
REMARK   15  A    between atoms: C_34  and  C_36
REMARK                            x       y       z     vdW  Elec       q    Type
REMARK                         _______ _______ _______ _____ _____    ______ ____
ROOT
ATOM      1  C   UNL     1       0.855  11.528  18.800  0.00  0.00    +0.000 A 
ATOM      2  C   UNL     1       1.945  11.092  18.031  0.00  0.00    +0.000 A 
ATOM      3  C   UNL     1       2.406   9.786  18.129  0.00  0.00    +0.000 A 
ATOM      4  C   UNL     1       1.797   8.880  19.002  0.00  0.00    +0.000 A 
ATOM      5  C   UNL     1       0.742   9.362  19.831  0.00  0.00    +0.000 A 
ATOM      6  C   UNL     1       0.251  10.689  19.787  0.00  0.00    +0.000 A 
ENDROOT
BRANCH   6   7
ATOM      7  C   UNL     1      -0.761  11.191  20.814  0.00  0.00    +0.000 A 
ATOM      8  C   UNL     1      -0.735  10.944  22.199  0.00  0.00    +0.000 A 
ATOM      9  C   UNL     1      -1.650  11.592  23.124  0.00  0.00    +0.000 A 
ATOM     10  C   UNL     1      -2.626  12.521  22.725  0.00  0.00    +0.000 A 
ATOM     11  C   UNL     1      -2.666  12.714  21.349  0.00  0.00    +0.000 A 
ATOM     12  C   UNL     1      -1.757  12.043  20.407  0.00  0.00    +0.000 A 
ATOM     13  C   UNL     1      -3.652  13.716  20.741  0.00  0.00    +0.000 C 
ATOM     14  C   UNL     1      -4.577  12.396  20.636  0.00  0.00    +0.000 C 
ATOM     15  C   UNL     1      -2.387  14.730  20.839  0.00  0.00    +0.000 C 
ATOM     16  C   UNL     1      -4.654  14.611  21.418  0.00  0.00    +0.000 C 
ATOM     17  C   UNL     1      -4.551  14.478  22.918  0.00  0.00    +0.000 C 
ATOM     18  C   UNL     1      -3.540  13.419  23.608  0.00  0.00    +0.000 C 
ATOM     19  C   UNL     1      -2.577  14.210  24.528  0.00  0.00    +0.000 C 
ATOM     20  C   UNL     1      -4.498  12.665  24.561  0.00  0.00    +0.000 C 
ENDBRANCH   6   7
BRANCH   4  21
ATOM     21  C   UNL     1       2.258   7.475  19.038  0.00  0.00    +0.000 A 
ATOM     22  C   UNL     1       1.988   6.639  20.130  0.00  0.00    +0.000 A 
ATOM     23  C   UNL     1       2.378   5.294  20.132  0.00  0.00    +0.000 A 
ATOM     24  C   UNL     1       3.072   4.748  19.050  0.00  0.00    +0.000 A 
ATOM     25  C   UNL     1       3.381   5.561  17.950  0.00  0.00    +0.000 A 
ATOM     26  C   UNL     1       2.969   6.915  17.953  0.00  0.00    +0.000 A 
BRANCH  24  27
ATOM     27  C   UNL     1       3.414   3.308  19.079  0.00  0.00    +0.000 C 
ATOM     28  O   UNL     1       2.738   2.479  19.662  0.00  0.00    +0.000 OA
BRANCH  27  29
ATOM     29  O   UNL     1       4.564   3.010  18.429  0.00  0.00    +0.000 OA
ATOM     30  H   UNL     1       4.592   2.136  18.000  0.00  0.00    +0.000 HD
ENDBRANCH  27  29
ENDBRANCH  24  27
ENDBRANCH   4  21
BRANCH   1  31
ATOM     31  O   UNL     1       0.376  12.810  18.648  0.00  0.00    +0.000 OA
BRANCH  31  32
ATOM     32  C   UNL     1       1.239  13.815  19.192  0.00  0.00    +0.000 C 
BRANCH  32  33
ATOM     33  O   UNL     1       1.947  14.510  18.173  0.00  0.00    +0.000 OA
BRANCH  33  34
ATOM     34  C   UNL     1       3.074  15.250  18.641  0.00  0.00    +0.000 C 
BRANCH  34  35
ATOM     35  C   UNL     1       2.807  16.742  18.868  0.00  0.00    +0.000 C 
BRANCH  35  37
ATOM     36  C   UNL     1       1.402  17.895  17.358  0.00  0.00    +0.000 C 
ATOM     37  O   UNL     1       2.712  17.410  17.607  0.00  0.00    +0.000 OA
ENDBRANCH  35  37
ENDBRANCH  34  35
ENDBRANCH  33  34
ENDBRANCH  32  33
ENDBRANCH  31  32
ENDBRANCH   1  31
TORSDOF 10
ENDMDL
