MODEL 1
REMARK VINA RESULT:      -8.9      0.000      0.000
REMARK  Name = 
REMARK  4 active torsions:
REMARK  status: ('A' for Active; 'I' for Inactive)
REMARK    1  A    between atoms: C_1  and  C_2
REMARK    2  A    between atoms: C_5  and  C_6
REMARK    3  A    between atoms: C_7  and  N_8
REMARK    4  A    between atoms: C_13  and  C_14
REMARK                            x       y       z     vdW  Elec       q    Type
REMARK                         _______ _______ _______ _____ _____    ______ ____
ROOT
ATOM      1  N   UNL     1       0.945   9.908  19.858  0.00  0.00    +0.000 N 
ATOM      2  C   UNL     1       0.752   9.387  21.121  0.00  0.00    +0.000 A 
ATOM      3  N   UNL     1       1.264   8.189  21.277  0.00  0.00    +0.000 NA
ATOM      4  C   UNL     1       1.790   7.874  20.058  0.00  0.00    +0.000 A 
ATOM      5  C   UNL     1       2.442   6.694  19.675  0.00  0.00    +0.000 A 
ATOM      6  C   UNL     1       2.937   6.579  18.370  0.00  0.00    +0.000 A 
ATOM      7  C   UNL     1       2.753   7.617  17.454  0.00  0.00    +0.000 A 
ATOM      8  C   UNL     1       2.119   8.809  17.829  0.00  0.00    +0.000 A 
ATOM      9  C   UNL     1       1.612   8.908  19.138  0.00  0.00    +0.000 A 
ENDROOT
BRANCH   6  10
ATOM     10  C   UNL     1       3.641   5.351  17.923  0.00  0.00    +0.000 C 
ATOM     11  O   UNL     1       3.087   4.259  18.024  0.00  0.00    +0.000 OA
ATOM     12  N   UNL     1       4.900   5.510  17.400  0.00  0.00    +0.000 N 
ATOM     13  C   UNL     1       5.760   4.540  16.711  0.00  0.00    +0.000 C 
ATOM     14  C   UNL     1       7.148   4.554  17.360  0.00  0.00    +0.000 C 
ATOM     15  O   UNL     1       7.777   5.849  17.219  0.00  0.00    +0.000 OA
ATOM     16  C   UNL     1       6.850   6.947  17.329  0.00  0.00    +0.000 C 
ATOM     17  C   UNL     1       5.525   6.603  16.648  0.00  0.00    +0.000 C 
ATOM     18  C   UNL     1       5.657   5.533  15.526  0.00  0.00    +0.000 C 
ENDBRANCH   6  10
BRANCH   1  25
ATOM     19  C   UNL     1       1.708  14.780  19.853  0.00  0.00    +0.000 C 
ATOM     20  C   UNL     1       0.890  13.610  19.392  0.00  0.00    +0.000 A 
ATOM     21  C   UNL     1      -0.270  13.785  18.646  0.00  0.00    +0.000 A 
ATOM     22  C   UNL     1      -1.021  12.680  18.247  0.00  0.00    +0.000 A 
ATOM     23  C   UNL     1      -0.665  11.366  18.619  0.00  0.00    +0.000 A 
ATOM     24  C   UNL     1      -1.617  10.276  18.210  0.00  0.00    +0.000 C 
ATOM     25  C   UNL     1       0.510  11.185  19.384  0.00  0.00    +0.000 A 
ATOM     26  C   UNL     1       1.284  12.309  19.728  0.00  0.00    +0.000 A 
ENDBRANCH   1  25
TORSDOF 2
ENDMDL
MODEL 2
REMARK VINA RESULT:      -8.6      1.697      2.910
REMARK  Name = 
REMARK  4 active torsions:
REMARK  status: ('A' for Active; 'I' for Inactive)
REMARK    1  A    between atoms: C_1  and  C_2
REMARK    2  A    between atoms: C_5  and  C_6
REMARK    3  A    between atoms: C_7  and  N_8
REMARK    4  A    between atoms: C_13  and  C_14
REMARK                            x       y       z     vdW  Elec       q    Type
REMARK                         _______ _______ _______ _____ _____    ______ ____
ROOT
ATOM      1  N   UNL     1       0.810   9.978  19.916  0.00  0.00    +0.000 N 
ATOM      2  C   UNL     1       0.525   9.503  21.179  0.00  0.00    +0.000 A 
ATOM      3  N   UNL     1       1.048   8.325  21.425  0.00  0.00    +0.000 NA
ATOM      4  C   UNL     1       1.678   7.975  20.266  0.00  0.00    +0.000 A 
ATOM      5  C   UNL     1       2.384   6.797  19.987  0.00  0.00    +0.000 A 
ATOM      6  C   UNL     1       2.986   6.643  18.732  0.00  0.00    +0.000 A 
ATOM      7  C   UNL     1       2.857   7.639  17.762  0.00  0.00    +0.000 A 
ATOM      8  C   UNL     1       2.170   8.830  18.035  0.00  0.00    +0.000 A 
ATOM      9  C   UNL     1       1.555   8.968  19.294  0.00  0.00    +0.000 A 
ENDROOT
BRANCH   6  10
ATOM     10  C   UNL     1       3.751   5.415  18.395  0.00  0.00    +0.000 C 
ATOM     11  O   UNL     1       4.862   5.511  17.880  0.00  0.00    +0.000 OA
ATOM     12  N   UNL     1       3.162   4.213  18.693  0.00  0.00    +0.000 N 
ATOM     13  C   UNL     1       3.725   2.857  18.661  0.00  0.00    +0.000 C 
ATOM     14  C   UNL     1       2.787   1.946  17.862  0.00  0.00    +0.000 C 
ATOM     15  O   UNL     1       1.491   1.847  18.496  0.00  0.00    +0.000 OA
ATOM     16  C   UNL     1       1.057   3.082  19.099  0.00  0.00    +0.000 C 
ATOM     17  C   UNL     1       2.234   3.805  19.754  0.00  0.00    +0.000 C 
ATOM     18  C   UNL     1       3.394   2.857  20.175  0.00  0.00    +0.000 C 
ENDBRANCH   6  10
BRANCH   1  25
ATOM     19  C   UNL     1       1.604  14.836  19.612  0.00  0.00    +0.000 C 
ATOM     20  C   UNL     1       0.785  13.643  19.214  0.00  0.00    +0.000 A 
ATOM     21  C   UNL     1      -0.364  13.778  18.443  0.00  0.00    +0.000 A 
ATOM     22  C   UNL     1      -1.117  12.653  18.105  0.00  0.00    +0.000 A 
ATOM     23  C   UNL     1      -0.773  11.364  18.564  0.00  0.00    +0.000 A 
ATOM     24  C   UNL     1      -1.726  10.255  18.212  0.00  0.00    +0.000 C 
ATOM     25  C   UNL     1       0.390  11.225  19.355  0.00  0.00    +0.000 A 
ATOM     26  C   UNL     1       1.167  12.364  19.637  0.00  0.00    +0.000 A 
ENDBRANCH   1  25
TORSDOF 2
ENDMDL
MODEL 3
REMARK VINA RESULT:      -8.4      3.060      8.005
REMARK  Name = 
REMARK  4 active torsions:
REMARK  status: ('A' for Active; 'I' for Inactive)
REMARK    1  A    between atoms: C_1  and  C_2
REMARK    2  A    between atoms: C_5  and  C_6
REMARK    3  A    between atoms: C_7  and  N_8
REMARK    4  A    between atoms: C_13  and  C_14
REMARK                            x       y       z     vdW  Elec       q    Type
REMARK                         _______ _______ _______ _____ _____    ______ ____
ROOT
ATOM      1  N   UNL     1       2.873   6.208  19.297  0.00  0.00    +0.000 N 
ATOM      2  C   UNL     1       2.407   5.896  20.558  0.00  0.00    +0.000 A 
ATOM      3  N   UNL     1       1.565   6.781  21.038  0.00  0.00    +0.000 NA
ATOM      4  C   UNL     1       1.491   7.747  20.078  0.00  0.00    +0.000 A 
ATOM      5  C   UNL     1       0.740   8.931  20.097  0.00  0.00    +0.000 A 
ATOM      6  C   UNL     1       0.782   9.785  18.989  0.00  0.00    +0.000 A 
ATOM      7  C   UNL     1       1.587   9.474  17.891  0.00  0.00    +0.000 A 
ATOM      8  C   UNL     1       2.328   8.285  17.851  0.00  0.00    +0.000 A 
ATOM      9  C   UNL     1       2.291   7.441  18.977  0.00  0.00    +0.000 A 
ENDROOT
BRANCH   6  10
ATOM     10  C   UNL     1      -0.003  11.045  18.962  0.00  0.00    +0.000 C 
ATOM     11  O   UNL     1       0.489  12.079  19.406  0.00  0.00    +0.000 OA
ATOM     12  N   UNL     1      -1.262  10.984  18.421  0.00  0.00    +0.000 N 
ATOM     13  C   UNL     1      -2.194  12.067  18.083  0.00  0.00    +0.000 C 
ATOM     14  C   UNL     1      -3.562  11.759  18.698  0.00  0.00    +0.000 C 
ATOM     15  O   UNL     1      -4.119  10.542  18.151  0.00  0.00    +0.000 OA
ATOM     16  C   UNL     1      -3.127   9.526  17.899  0.00  0.00    +0.000 C 
ATOM     17  C   UNL     1      -1.840  10.152  17.360  0.00  0.00    +0.000 C 
ATOM     18  C   UNL     1      -2.061  11.514  16.641  0.00  0.00    +0.000 C 
ENDBRANCH   6  10
BRANCH   1  25
ATOM     19  C   UNL     1       7.543   5.638  17.820  0.00  0.00    +0.000 C 
ATOM     20  C   UNL     1       6.118   5.172  17.774  0.00  0.00    +0.000 A 
ATOM     21  C   UNL     1       5.721   4.137  16.935  0.00  0.00    +0.000 A 
ATOM     22  C   UNL     1       4.385   3.738  16.898  0.00  0.00    +0.000 A 
ATOM     23  C   UNL     1       3.394   4.388  17.663  0.00  0.00    +0.000 A 
ATOM     24  C   UNL     1       1.979   3.925  17.453  0.00  0.00    +0.000 C 
ATOM     25  C   UNL     1       3.794   5.445  18.512  0.00  0.00    +0.000 A 
ATOM     26  C   UNL     1       5.155   5.796  18.576  0.00  0.00    +0.000 A 
ENDBRANCH   1  25
TORSDOF 2
ENDMDL
MODEL 4
REMARK VINA RESULT:      -8.3      3.019      7.697
REMARK  Name = 
REMARK  4 active torsions:
REMARK  status: ('A' for Active; 'I' for Inactive)
REMARK    1  A    between atoms: C_1  and  C_2
REMARK    2  A    between atoms: C_5  and  C_6
REMARK    3  A    between atoms: C_7  and  N_8
REMARK    4  A    between atoms: C_13  and  C_14
REMARK                            x       y       z     vdW  Elec       q    Type
REMARK                         _______ _______ _______ _____ _____    ______ ____
ROOT
ATOM      1  N   UNL     1       2.702   6.620  19.154  0.00  0.00    +0.000 N 
ATOM      2  C   UNL     1       2.290   6.295  20.429  0.00  0.00    +0.000 A 
ATOM      3  N   UNL     1       1.508   7.200  20.972  0.00  0.00    +0.000 NA
ATOM      4  C   UNL     1       1.423   8.192  20.039  0.00  0.00    +0.000 A 
ATOM      5  C   UNL     1       0.722   9.402  20.124  0.00  0.00    +0.000 A 
ATOM      6  C   UNL     1       0.741  10.281  19.034  0.00  0.00    +0.000 A 
ATOM      7  C   UNL     1       1.475   9.966  17.889  0.00  0.00    +0.000 A 
ATOM      8  C   UNL     1       2.166   8.751  17.784  0.00  0.00    +0.000 A 
ATOM      9  C   UNL     1       2.153   7.882  18.891  0.00  0.00    +0.000 A 
ENDROOT
BRANCH   6  10
ATOM     10  C   UNL     1       0.006  11.570  19.077  0.00  0.00    +0.000 C 
ATOM     11  O   UNL     1      -1.195  11.596  18.818  0.00  0.00    +0.000 OA
ATOM     12  N   UNL     1       0.725  12.686  19.420  0.00  0.00    +0.000 N 
ATOM     13  C   UNL     1       0.261  14.045  19.731  0.00  0.00    +0.000 C 
ATOM     14  C   UNL     1       1.062  15.048  18.895  0.00  0.00    +0.000 C 
ATOM     15  O   UNL     1       2.469  15.000  19.226  0.00  0.00    +0.000 OA
ATOM     16  C   UNL     1       2.939  13.668  19.513  0.00  0.00    +0.000 C 
ATOM     17  C   UNL     1       1.887  12.881  20.295  0.00  0.00    +0.000 C 
ATOM     18  C   UNL     1       0.913  13.779  21.111  0.00  0.00    +0.000 C 
ENDBRANCH   6  10
BRANCH   1  25
ATOM     19  C   UNL     1       7.123   6.205  17.007  0.00  0.00    +0.000 C 
ATOM     20  C   UNL     1       5.749   5.645  17.233  0.00  0.00    +0.000 A 
ATOM     21  C   UNL     1       5.313   4.506  16.566  0.00  0.00    +0.000 A 
ATOM     22  C   UNL     1       4.023   4.019  16.779  0.00  0.00    +0.000 A 
ATOM     23  C   UNL     1       3.112   4.679  17.631  0.00  0.00    +0.000 A 
ATOM     24  C   UNL     1       1.723   4.106  17.693  0.00  0.00    +0.000 C 
ATOM     25  C   UNL     1       3.550   5.842  18.304  0.00  0.00    +0.000 A 
ATOM     26  C   UNL     1       4.873   6.284  18.118  0.00  0.00    +0.000 A 
ENDBRANCH   1  25
TORSDOF 2
ENDMDL
MODEL 5
REMARK VINA RESULT:      -8.3      0.654      1.863
REMARK  Name = 
REMARK  4 active torsions:
REMARK  status: ('A' for Active; 'I' for Inactive)
REMARK    1  A    between atoms: C_1  and  C_2
REMARK    2  A    between atoms: C_5  and  C_6
REMARK    3  A    between atoms: C_7  and  N_8
REMARK    4  A    between atoms: C_13  and  C_14
REMARK                            x       y       z     vdW  Elec       q    Type
REMARK                         _______ _______ _______ _____ _____    ______ ____
ROOT
ATOM      1  N   UNL     1       0.775   9.606  19.953  0.00  0.00    +0.000 N 
ATOM      2  C   UNL     1       0.764   9.178  21.265  0.00  0.00    +0.000 A 
ATOM      3  N   UNL     1       1.423   8.058  21.455  0.00  0.00    +0.000 NA
ATOM      4  C   UNL     1       1.862   7.698  20.215  0.00  0.00    +0.000 A 
ATOM      5  C   UNL     1       2.605   6.565  19.855  0.00  0.00    +0.000 A 
ATOM      6  C   UNL     1       2.983   6.392  18.518  0.00  0.00    +0.000 A 
ATOM      7  C   UNL     1       2.596   7.323  17.551  0.00  0.00    +0.000 A 
ATOM      8  C   UNL     1       1.868   8.469  17.900  0.00  0.00    +0.000 A 
ATOM      9  C   UNL     1       1.481   8.625  19.244  0.00  0.00    +0.000 A 
ENDROOT
BRANCH   6  10
ATOM     10  C   UNL     1       3.777   5.212  18.093  0.00  0.00    +0.000 C 
ATOM     11  O   UNL     1       3.321   4.082  18.249  0.00  0.00    +0.000 OA
ATOM     12  N   UNL     1       5.003   5.457  17.527  0.00  0.00    +0.000 N 
ATOM     13  C   UNL     1       5.924   4.538  16.846  0.00  0.00    +0.000 C 
ATOM     14  C   UNL     1       7.322   4.693  17.452  0.00  0.00    +0.000 C 
ATOM     15  O   UNL     1       7.835   6.030  17.247  0.00  0.00    +0.000 OA
ATOM     16  C   UNL     1       6.821   7.049  17.346  0.00  0.00    +0.000 C 
ATOM     17  C   UNL     1       5.511   6.570  16.719  0.00  0.00    +0.000 C 
ATOM     18  C   UNL     1       5.704   5.474  15.631  0.00  0.00    +0.000 C 
ENDBRANCH   6  10
BRANCH   1  25
ATOM     19  C   UNL     1      -2.824  11.469  17.143  0.00  0.00    +0.000 C 
ATOM     20  C   UNL     1      -1.634  11.705  18.026  0.00  0.00    +0.000 A 
ATOM     21  C   UNL     1      -1.120  12.982  18.223  0.00  0.00    +0.000 A 
ATOM     22  C   UNL     1      -0.001  13.169  19.034  0.00  0.00    +0.000 A 
ATOM     23  C   UNL     1       0.670  12.085  19.637  0.00  0.00    +0.000 A 
ATOM     24  C   UNL     1       1.922  12.416  20.402  0.00  0.00    +0.000 C 
ATOM     25  C   UNL     1       0.154  10.785  19.433  0.00  0.00    +0.000 A 
ATOM     26  C   UNL     1      -1.009  10.623  18.657  0.00  0.00    +0.000 A 
ENDBRANCH   1  25
TORSDOF 2
ENDMDL
MODEL 6
REMARK VINA RESULT:      -8.2      2.615      3.405
REMARK  Name = 
REMARK  4 active torsions:
REMARK  status: ('A' for Active; 'I' for Inactive)
REMARK    1  A    between atoms: C_1  and  C_2
REMARK    2  A    between atoms: C_5  and  C_6
REMARK    3  A    between atoms: C_7  and  N_8
REMARK    4  A    between atoms: C_13  and  C_14
REMARK                            x       y       z     vdW  Elec       q    Type
REMARK                         _______ _______ _______ _____ _____    ______ ____
ROOT
ATOM      1  N   UNL     1       1.318  10.053  18.909  0.00  0.00    +0.000 N 
ATOM      2  C   UNL     1       2.055   9.926  17.749  0.00  0.00    +0.000 A 
ATOM      3  N   UNL     1       2.564   8.727  17.583  0.00  0.00    +0.000 NA
ATOM      4  C   UNL     1       2.187   8.031  18.694  0.00  0.00    +0.000 A 
ATOM      5  C   UNL     1       2.484   6.702  19.026  0.00  0.00    +0.000 A 
ATOM      6  C   UNL     1       1.973   6.163  20.213  0.00  0.00    +0.000 A 
ATOM      7  C   UNL     1       1.203   6.952  21.069  0.00  0.00    +0.000 A 
ATOM      8  C   UNL     1       0.884   8.277  20.741  0.00  0.00    +0.000 A 
ATOM      9  C   UNL     1       1.415   8.814  19.554  0.00  0.00    +0.000 A 
ENDROOT
BRANCH   6  10
ATOM     10  C   UNL     1       2.256   4.758  20.599  0.00  0.00    +0.000 C 
ATOM     11  O   UNL     1       2.486   4.484  21.775  0.00  0.00    +0.000 OA
ATOM     12  N   UNL     1       2.233   3.820  19.599  0.00  0.00    +0.000 N 
ATOM     13  C   UNL     1       2.281   2.354  19.684  0.00  0.00    +0.000 C 
ATOM     14  C   UNL     1       3.368   1.835  18.737  0.00  0.00    +0.000 C 
ATOM     15  O   UNL     1       3.066   2.166  17.362  0.00  0.00    +0.000 OA
ATOM     16  C   UNL     1       2.449   3.461  17.212  0.00  0.00    +0.000 C 
ATOM     17  C   UNL     1       1.466   3.725  18.353  0.00  0.00    +0.000 C 
ATOM     18  C   UNL     1       0.893   2.430  18.998  0.00  0.00    +0.000 C 
ENDBRANCH   6  10
BRANCH   1  25
ATOM     19  C   UNL     1       1.643  14.288  21.415  0.00  0.00    +0.000 C 
ATOM     20  C   UNL     1       0.805  13.329  20.622  0.00  0.00    +0.000 A 
ATOM     21  C   UNL     1      -0.559  13.530  20.448  0.00  0.00    +0.000 A 
ATOM     22  C   UNL     1      -1.317  12.610  19.723  0.00  0.00    +0.000 A 
ATOM     23  C   UNL     1      -0.747  11.437  19.186  0.00  0.00    +0.000 A 
ATOM     24  C   UNL     1      -1.694  10.482  18.514  0.00  0.00    +0.000 C 
ATOM     25  C   UNL     1       0.639  11.226  19.366  0.00  0.00    +0.000 A 
ATOM     26  C   UNL     1       1.396  12.194  20.053  0.00  0.00    +0.000 A 
ENDBRANCH   1  25
TORSDOF 2
ENDMDL
MODEL 7
REMARK VINA RESULT:      -8.1      2.109      3.590
REMARK  Name = 
REMARK  4 active torsions:
REMARK  status: ('A' for Active; 'I' for Inactive)
REMARK    1  A    between atoms: C_1  and  C_2
REMARK    2  A    between atoms: C_5  and  C_6
REMARK    3  A    between atoms: C_7  and  N_8
REMARK    4  A    between atoms: C_13  and  C_14
REMARK                            x       y       z     vdW  Elec       q    Type
REMARK                         _______ _______ _______ _____ _____    ______ ____
ROOT
ATOM      1  N   UNL     1       0.397   9.603  20.150  0.00  0.00    +0.000 N 
ATOM      2  C   UNL     1       0.116   9.266  21.458  0.00  0.00    +0.000 A 
ATOM      3  N   UNL     1       0.751   8.194  21.870  0.00  0.00    +0.000 NA
ATOM      4  C   UNL     1       1.458   7.769  20.783  0.00  0.00    +0.000 A 
ATOM      5  C   UNL     1       2.295   6.650  20.678  0.00  0.00    +0.000 A 
ATOM      6  C   UNL     1       2.957   6.402  19.469  0.00  0.00    +0.000 A 
ATOM      7  C   UNL     1       2.760   7.245  18.374  0.00  0.00    +0.000 A 
ATOM      8  C   UNL     1       1.941   8.378  18.470  0.00  0.00    +0.000 A 
ATOM      9  C   UNL     1       1.268   8.609  19.685  0.00  0.00    +0.000 A 
ENDROOT
BRANCH   6  10
ATOM     10  C   UNL     1       3.859   5.233  19.315  0.00  0.00    +0.000 C 
ATOM     11  O   UNL     1       5.072   5.406  19.224  0.00  0.00    +0.000 OA
ATOM     12  N   UNL     1       3.273   3.993  19.292  0.00  0.00    +0.000 N 
ATOM     13  C   UNL     1       3.890   2.661  19.343  0.00  0.00    +0.000 C 
ATOM     14  C   UNL     1       3.333   1.809  18.198  0.00  0.00    +0.000 C 
ATOM     15  O   UNL     1       1.906   1.616  18.336  0.00  0.00    +0.000 OA
ATOM     16  C   UNL     1       1.224   2.776  18.853  0.00  0.00    +0.000 C 
ATOM     17  C   UNL     1       2.065   3.461  19.931  0.00  0.00    +0.000 C 
ATOM     18  C   UNL     1       3.065   2.505  20.645  0.00  0.00    +0.000 C 
ENDBRANCH   6  10
BRANCH   1  25
ATOM     19  C   UNL     1      -2.768  11.128  16.689  0.00  0.00    +0.000 C 
ATOM     20  C   UNL     1      -1.703  11.465  17.691  0.00  0.00    +0.000 A 
ATOM     21  C   UNL     1      -1.201  12.756  17.808  0.00  0.00    +0.000 A 
ATOM     22  C   UNL     1      -0.197  13.037  18.734  0.00  0.00    +0.000 A 
ATOM     23  C   UNL     1       0.371  12.029  19.542  0.00  0.00    +0.000 A 
ATOM     24  C   UNL     1       1.515  12.447  20.424  0.00  0.00    +0.000 C 
ATOM     25  C   UNL     1      -0.132  10.714  19.420  0.00  0.00    +0.000 A 
ATOM     26  C   UNL     1      -1.184  10.463  18.519  0.00  0.00    +0.000 A 
ENDBRANCH   1  25
TORSDOF 2
ENDMDL
MODEL 8
REMARK VINA RESULT:      -8.1      3.486      8.525
REMARK  Name = 
REMARK  4 active torsions:
REMARK  status: ('A' for Active; 'I' for Inactive)
REMARK    1  A    between atoms: C_1  and  C_2
REMARK    2  A    between atoms: C_5  and  C_6
REMARK    3  A    between atoms: C_7  and  N_8
REMARK    4  A    between atoms: C_13  and  C_14
REMARK                            x       y       z     vdW  Elec       q    Type
REMARK                         _______ _______ _______ _____ _____    ______ ____
ROOT
ATOM      1  N   UNL     1       2.388   7.400  18.318  0.00  0.00    +0.000 N 
ATOM      2  C   UNL     1       2.360   8.479  17.458  0.00  0.00    +0.000 A 
ATOM      3  N   UNL     1       1.853   9.564  17.996  0.00  0.00    +0.000 NA
ATOM      4  C   UNL     1       1.488   9.189  19.257  0.00  0.00    +0.000 A 
ATOM      5  C   UNL     1       0.879   9.968  20.250  0.00  0.00    +0.000 A 
ATOM      6  C   UNL     1       0.610   9.396  21.499  0.00  0.00    +0.000 A 
ATOM      7  C   UNL     1       0.917   8.055  21.739  0.00  0.00    +0.000 A 
ATOM      8  C   UNL     1       1.543   7.270  20.762  0.00  0.00    +0.000 A 
ATOM      9  C   UNL     1       1.795   7.850  19.504  0.00  0.00    +0.000 A 
ENDROOT
BRANCH   6  10
ATOM     10  C   UNL     1      -0.026  10.186  22.583  0.00  0.00    +0.000 C 
ATOM     11  O   UNL     1       0.155   9.869  23.756  0.00  0.00    +0.000 OA
ATOM     12  N   UNL     1      -0.793  11.259  22.204  0.00  0.00    +0.000 N 
ATOM     13  C   UNL     1      -1.385  12.326  23.021  0.00  0.00    +0.000 C 
ATOM     14  C   UNL     1      -2.871  12.454  22.673  0.00  0.00    +0.000 C 
ATOM     15  O   UNL     1      -3.053  12.835  21.289  0.00  0.00    +0.000 OA
ATOM     16  C   UNL     1      -2.091  12.231  20.403  0.00  0.00    +0.000 C 
ATOM     17  C   UNL     1      -0.712  12.175  21.061  0.00  0.00    +0.000 C 
ATOM     18  C   UNL     1      -0.498  13.258  22.158  0.00  0.00    +0.000 C 
ENDBRANCH   6  10
BRANCH   1  25
ATOM     19  C   UNL     1       1.493   2.551  18.395  0.00  0.00    +0.000 C 
ATOM     20  C   UNL     1       2.433   3.677  18.078  0.00  0.00    +0.000 A 
ATOM     21  C   UNL     1       3.730   3.436  17.639  0.00  0.00    +0.000 A 
ATOM     22  C   UNL     1       4.590   4.501  17.372  0.00  0.00    +0.000 A 
ATOM     23  C   UNL     1       4.197   5.841  17.576  0.00  0.00    +0.000 A 
ATOM     24  C   UNL     1       5.253   6.888  17.346  0.00  0.00    +0.000 C 
ATOM     25  C   UNL     1       2.882   6.089  18.029  0.00  0.00    +0.000 A 
ATOM     26  C   UNL     1       2.013   5.002  18.240  0.00  0.00    +0.000 A 
ENDBRANCH   1  25
TORSDOF 2
ENDMDL
MODEL 9
REMARK VINA RESULT:      -7.9      3.278      8.494
REMARK  Name = 
REMARK  4 active torsions:
REMARK  status: ('A' for Active; 'I' for Inactive)
REMARK    1  A    between atoms: C_1  and  C_2
REMARK    2  A    between atoms: C_5  and  C_6
REMARK    3  A    between atoms: C_7  and  N_8
REMARK    4  A    between atoms: C_13  and  C_14
REMARK                            x       y       z     vdW  Elec       q    Type
REMARK                         _______ _______ _______ _____ _____    ______ ____
ROOT
ATOM      1  N   UNL     1       2.895   6.528  18.491  0.00  0.00    +0.000 N 
ATOM      2  C   UNL     1       3.303   7.230  17.376  0.00  0.00    +0.000 A 
ATOM      3  N   UNL     1       2.939   8.491  17.389  0.00  0.00    +0.000 NA
ATOM      4  C   UNL     1       2.223   8.635  18.541  0.00  0.00    +0.000 A 
ATOM      5  C   UNL     1       1.591   9.786  19.030  0.00  0.00    +0.000 A 
ATOM      6  C   UNL     1       0.923   9.730  20.259  0.00  0.00    +0.000 A 
ATOM      7  C   UNL     1       0.863   8.531  20.973  0.00  0.00    +0.000 A 
ATOM      8  C   UNL     1       1.506   7.377  20.505  0.00  0.00    +0.000 A 
ATOM      9  C   UNL     1       2.161   7.441  19.261  0.00  0.00    +0.000 A 
ENDROOT
BRANCH   6  10
ATOM     10  C   UNL     1       0.247  10.927  20.819  0.00  0.00    +0.000 C 
ATOM     11  O   UNL     1       0.600  11.373  21.909  0.00  0.00    +0.000 OA
ATOM     12  N   UNL     1      -0.752  11.488  20.066  0.00  0.00    +0.000 N 
ATOM     13  C   UNL     1      -1.466  12.758  20.247  0.00  0.00    +0.000 C 
ATOM     14  C   UNL     1      -2.974  12.497  20.183  0.00  0.00    +0.000 C 
ATOM     15  O   UNL     1      -3.360  11.981  18.888  0.00  0.00    +0.000 OA
ATOM     16  C   UNL     1      -2.384  11.084  18.320  0.00  0.00    +0.000 C 
ATOM     17  C   UNL     1      -0.966  11.572  18.617  0.00  0.00    +0.000 C 
ATOM     18  C   UNL     1      -0.871  13.107  18.860  0.00  0.00    +0.000 C 
ENDBRANCH   6  10
BRANCH   1  25
ATOM     19  C   UNL     1       0.947   2.034  19.060  0.00  0.00    +0.000 C 
ATOM     20  C   UNL     1       2.162   2.914  19.060  0.00  0.00    +0.000 A 
ATOM     21  C   UNL     1       3.413   2.423  19.416  0.00  0.00    +0.000 A 
ATOM     22  C   UNL     1       4.521   3.269  19.427  0.00  0.00    +0.000 A 
ATOM     23  C   UNL     1       4.410   4.642  19.125  0.00  0.00    +0.000 A 
ATOM     24  C   UNL     1       5.663   5.461  19.273  0.00  0.00    +0.000 C 
ATOM     25  C   UNL     1       3.138   5.147  18.770  0.00  0.00    +0.000 A 
ATOM     26  C   UNL     1       2.043   4.265  18.711  0.00  0.00    +0.000 A 
ENDBRANCH   1  25
TORSDOF 2
ENDMDL
