MODEL 1
REMARK VINA RESULT:      -7.9      0.000      0.000
REMARK  Name = 
REMARK  7 active torsions:
REMARK  status: ('A' for Active; 'I' for Inactive)
REMARK    1  A    between atoms: C_2  and  C_3
REMARK    2  A    between atoms: C_3  and  C_4
REMARK    3  A    between atoms: C_4  and  S_5
REMARK    4  A    between atoms: S_5  and  C_8
REMARK    5  A    between atoms: N_15  and  C_16
REMARK    6  A    between atoms: C_16  and  C_17
REMARK    7  A    between atoms: C_17  and  C_18
REMARK                            x       y       z     vdW  Elec       q    Type
REMARK                         _______ _______ _______ _____ _____    ______ ____
ROOT
ATOM      1  O   UNL     1       8.127   5.493  19.881  0.00  0.00    +0.000 OA
ATOM      2  C   UNL     1       7.700   5.692  18.748  0.00  0.00    +0.000 C 
ATOM      3  N   UNL     1       7.852   6.899  18.101  0.00  0.00    +0.000 N 
ATOM      4  H   UNL     1       7.335   7.092  17.258  0.00  0.00    +0.000 HD
ENDROOT
BRANCH   2   5
ATOM      5  C   UNL     1       6.915   4.629  18.004  0.00  0.00    +0.000 C 
BRANCH   5   6
ATOM      6  C   UNL     1       7.004   4.731  16.490  0.00  0.00    +0.000 C 
BRANCH   6   7
ATOM      7  S   UNL     1       5.527   5.426  15.792  0.00  0.00    +0.000 S 
ATOM      8  O   UNL     1       5.641   6.870  15.810  0.00  0.00    +0.000 OA
ATOM      9  O   UNL     1       5.238   4.709  14.569  0.00  0.00    +0.000 OA
BRANCH   7  10
ATOM     10  C   UNL     1       4.269   4.984  16.976  0.00  0.00    +0.000 A 
ATOM     11  C   UNL     1       3.725   5.974  17.801  0.00  0.00    +0.000 A 
ATOM     12  C   UNL     1       2.696   5.643  18.688  0.00  0.00    +0.000 A 
ATOM     13  C   UNL     1       2.217   4.335  18.738  0.00  0.00    +0.000 A 
ATOM     14 CL   UNL     1       0.939   3.935  19.818  0.00  0.00    +0.000 Cl
ATOM     15  C   UNL     1       2.757   3.349  17.911  0.00  0.00    +0.000 A 
ATOM     16  C   UNL     1       3.785   3.672  17.020  0.00  0.00    +0.000 A 
ENDBRANCH   7  10
ENDBRANCH   6   7
ENDBRANCH   5   6
ENDBRANCH   2   5
BRANCH   3  17
ATOM     17  C   UNL     1       8.532   8.017  18.740  0.00  0.00    +0.000 C 
BRANCH  17  18
ATOM     18  C   UNL     1       8.283   9.328  17.986  0.00  0.00    +0.000 C 
BRANCH  18  19
ATOM     19  C   UNL     1       9.037  10.496  18.572  0.00  0.00    +0.000 A 
ATOM     20  C   UNL     1       9.332  10.528  19.942  0.00  0.00    +0.000 A 
ATOM     21  C   UNL     1      10.021  11.611  20.494  0.00  0.00    +0.000 A 
ATOM     22  C   UNL     1      10.416  12.669  19.679  0.00  0.00    +0.000 A 
ATOM     23 CL   UNL     1      11.262  14.003  20.360  0.00  0.00    +0.000 Cl
ATOM     24  C   UNL     1      10.129  12.651  18.316  0.00  0.00    +0.000 A 
ATOM     25  C   UNL     1       9.439  11.568  17.763  0.00  0.00    +0.000 A 
ENDBRANCH  18  19
ENDBRANCH  17  18
ENDBRANCH   3  17
TORSDOF 7
ENDMDL
MODEL 2
REMARK VINA RESULT:      -7.8      0.357      1.037
REMARK  Name = 
REMARK  7 active torsions:
REMARK  status: ('A' for Active; 'I' for Inactive)
REMARK    1  A    between atoms: C_2  and  C_3
REMARK    2  A    between atoms: C_3  and  C_4
REMARK    3  A    between atoms: C_4  and  S_5
REMARK    4  A    between atoms: S_5  and  C_8
REMARK    5  A    between atoms: N_15  and  C_16
REMARK    6  A    between atoms: C_16  and  C_17
REMARK    7  A    between atoms: C_17  and  C_18
REMARK                            x       y       z     vdW  Elec       q    Type
REMARK                         _______ _______ _______ _____ _____    ______ ____
ROOT
ATOM      1  O   UNL     1       7.966   5.527  19.907  0.00  0.00    +0.000 OA
ATOM      2  C   UNL     1       7.620   5.744  18.750  0.00  0.00    +0.000 C 
ATOM      3  N   UNL     1       7.847   6.950  18.123  0.00  0.00    +0.000 N 
ATOM      4  H   UNL     1       7.391   7.163  17.250  0.00  0.00    +0.000 HD
ENDROOT
BRANCH   2   5
ATOM      5  C   UNL     1       6.855   4.708  17.949  0.00  0.00    +0.000 C 
BRANCH   5   6
ATOM      6  C   UNL     1       7.011   4.843  16.443  0.00  0.00    +0.000 C 
BRANCH   6   7
ATOM      7  S   UNL     1       5.470   5.241  15.658  0.00  0.00    +0.000 S 
ATOM      8  O   UNL     1       5.444   6.663  15.381  0.00  0.00    +0.000 OA
ATOM      9  O   UNL     1       5.243   4.266  14.613  0.00  0.00    +0.000 OA
BRANCH   7  10
ATOM     10  C   UNL     1       4.267   4.934  16.939  0.00  0.00    +0.000 A 
ATOM     11  C   UNL     1       3.859   5.987  17.763  0.00  0.00    +0.000 A 
ATOM     12  C   UNL     1       2.873   5.764  18.728  0.00  0.00    +0.000 A 
ATOM     13  C   UNL     1       2.300   4.499  18.857  0.00  0.00    +0.000 A 
ATOM     14 CL   UNL     1       1.074   4.232  20.034  0.00  0.00    +0.000 Cl
ATOM     15  C   UNL     1       2.705   3.449  18.030  0.00  0.00    +0.000 A 
ATOM     16  C   UNL     1       3.690   3.665  17.061  0.00  0.00    +0.000 A 
ENDBRANCH   7  10
ENDBRANCH   6   7
ENDBRANCH   5   6
ENDBRANCH   2   5
BRANCH   3  17
ATOM     17  C   UNL     1       8.514   8.046  18.813  0.00  0.00    +0.000 C 
BRANCH  17  18
ATOM     18  C   UNL     1       8.303   9.377  18.085  0.00  0.00    +0.000 C 
BRANCH  18  19
ATOM     19  C   UNL     1       9.223  10.468  18.574  0.00  0.00    +0.000 A 
ATOM     20  C   UNL     1       9.891  11.291  17.655  0.00  0.00    +0.000 A 
ATOM     21  C   UNL     1      10.751  12.298  18.100  0.00  0.00    +0.000 A 
ATOM     22  C   UNL     1      10.953  12.484  19.466  0.00  0.00    +0.000 A 
ATOM     23 CL   UNL     1      12.016  13.720  20.013  0.00  0.00    +0.000 Cl
ATOM     24  C   UNL     1      10.298  11.672  20.390  0.00  0.00    +0.000 A 
ATOM     25  C   UNL     1       9.436  10.665  19.945  0.00  0.00    +0.000 A 
ENDBRANCH  18  19
ENDBRANCH  17  18
ENDBRANCH   3  17
TORSDOF 7
ENDMDL
MODEL 3
REMARK VINA RESULT:      -7.3      4.523      6.255
REMARK  Name = 
REMARK  7 active torsions:
REMARK  status: ('A' for Active; 'I' for Inactive)
REMARK    1  A    between atoms: C_2  and  C_3
REMARK    2  A    between atoms: C_3  and  C_4
REMARK    3  A    between atoms: C_4  and  S_5
REMARK    4  A    between atoms: S_5  and  C_8
REMARK    5  A    between atoms: N_15  and  C_16
REMARK    6  A    between atoms: C_16  and  C_17
REMARK    7  A    between atoms: C_17  and  C_18
REMARK                            x       y       z     vdW  Elec       q    Type
REMARK                         _______ _______ _______ _____ _____    ______ ____
ROOT
ATOM      1  O   UNL     1       5.363   5.549  19.812  0.00  0.00    +0.000 OA
ATOM      2  C   UNL     1       5.599   4.466  19.284  0.00  0.00    +0.000 C 
ATOM      3  N   UNL     1       6.709   4.254  18.495  0.00  0.00    +0.000 N 
ATOM      4  H   UNL     1       6.779   3.424  17.928  0.00  0.00    +0.000 HD
ENDROOT
BRANCH   2   5
ATOM      5  C   UNL     1       4.641   3.299  19.417  0.00  0.00    +0.000 C 
BRANCH   5   6
ATOM      6  C   UNL     1       4.100   2.780  18.094  0.00  0.00    +0.000 C 
BRANCH   6   7
ATOM      7  S   UNL     1       2.351   3.052  17.950  0.00  0.00    +0.000 S 
ATOM      8  O   UNL     1       2.027   3.260  16.554  0.00  0.00    +0.000 OA
ATOM      9  O   UNL     1       1.682   2.038  18.735  0.00  0.00    +0.000 OA
BRANCH   7  10
ATOM     10  C   UNL     1       2.110   4.611  18.783  0.00  0.00    +0.000 A 
ATOM     11  C   UNL     1       1.651   4.620  20.104  0.00  0.00    +0.000 A 
ATOM     12  C   UNL     1       1.519   5.837  20.779  0.00  0.00    +0.000 A 
ATOM     13  C   UNL     1       1.851   7.028  20.135  0.00  0.00    +0.000 A 
ATOM     14 CL   UNL     1       1.704   8.522  20.975  0.00  0.00    +0.000 Cl
ATOM     15  C   UNL     1       2.314   7.018  18.818  0.00  0.00    +0.000 A 
ATOM     16  C   UNL     1       2.450   5.805  18.136  0.00  0.00    +0.000 A 
ENDBRANCH   7  10
ENDBRANCH   6   7
ENDBRANCH   5   6
ENDBRANCH   2   5
BRANCH   3  17
ATOM     17  C   UNL     1       7.668   5.320  18.239  0.00  0.00    +0.000 C 
BRANCH  17  18
ATOM     18  C   UNL     1       7.180   6.259  17.132  0.00  0.00    +0.000 C 
BRANCH  18  19
ATOM     19  C   UNL     1       6.676   5.523  15.916  0.00  0.00    +0.000 A 
ATOM     20  C   UNL     1       5.301   5.308  15.742  0.00  0.00    +0.000 A 
ATOM     21  C   UNL     1       4.827   4.619  14.622  0.00  0.00    +0.000 A 
ATOM     22  C   UNL     1       5.725   4.139  13.673  0.00  0.00    +0.000 A 
ATOM     23 CL   UNL     1       5.141   3.287  12.297  0.00  0.00    +0.000 Cl
ATOM     24  C   UNL     1       7.094   4.344  13.833  0.00  0.00    +0.000 A 
ATOM     25  C   UNL     1       7.569   5.033  14.953  0.00  0.00    +0.000 A 
ENDBRANCH  18  19
ENDBRANCH  17  18
ENDBRANCH   3  17
TORSDOF 7
ENDMDL
MODEL 4
REMARK VINA RESULT:      -7.1      5.129      7.052
REMARK  Name = 
REMARK  7 active torsions:
REMARK  status: ('A' for Active; 'I' for Inactive)
REMARK    1  A    between atoms: C_2  and  C_3
REMARK    2  A    between atoms: C_3  and  C_4
REMARK    3  A    between atoms: C_4  and  S_5
REMARK    4  A    between atoms: S_5  and  C_8
REMARK    5  A    between atoms: N_15  and  C_16
REMARK    6  A    between atoms: C_16  and  C_17
REMARK    7  A    between atoms: C_17  and  C_18
REMARK                            x       y       z     vdW  Elec       q    Type
REMARK                         _______ _______ _______ _____ _____    ______ ____
ROOT
ATOM      1  O   UNL     1       1.019   3.668  17.613  0.00  0.00    +0.000 OA
ATOM      2  C   UNL     1       1.480   3.972  18.708  0.00  0.00    +0.000 C 
ATOM      3  N   UNL     1       2.041   5.206  18.958  0.00  0.00    +0.000 N 
ATOM      4  H   UNL     1       2.575   5.361  19.799  0.00  0.00    +0.000 HD
ENDROOT
BRANCH   2   5
ATOM      5  C   UNL     1       1.520   2.976  19.851  0.00  0.00    +0.000 C 
BRANCH   5   6
ATOM      6  C   UNL     1       2.851   2.918  20.583  0.00  0.00    +0.000 C 
BRANCH   6   7
ATOM      7  S   UNL     1       4.115   2.168  19.586  0.00  0.00    +0.000 S 
ATOM      8  O   UNL     1       5.102   1.570  20.461  0.00  0.00    +0.000 OA
ATOM      9  O   UNL     1       3.460   1.398  18.551  0.00  0.00    +0.000 OA
BRANCH   7  10
ATOM     10  C   UNL     1       4.893   3.565  18.795  0.00  0.00    +0.000 A 
ATOM     11  C   UNL     1       4.834   3.686  17.403  0.00  0.00    +0.000 A 
ATOM     12  C   UNL     1       5.390   4.810  16.785  0.00  0.00    +0.000 A 
ATOM     13  C   UNL     1       5.990   5.802  17.559  0.00  0.00    +0.000 A 
ATOM     14 CL   UNL     1       6.658   7.192  16.796  0.00  0.00    +0.000 Cl
ATOM     15  C   UNL     1       6.044   5.683  18.949  0.00  0.00    +0.000 A 
ATOM     16  C   UNL     1       5.489   4.563  19.575  0.00  0.00    +0.000 A 
ENDBRANCH   7  10
ENDBRANCH   6   7
ENDBRANCH   5   6
ENDBRANCH   2   5
BRANCH   3  17
ATOM     17  C   UNL     1       2.120   6.224  17.920  0.00  0.00    +0.000 C 
BRANCH  17  18
ATOM     18  C   UNL     1       2.771   7.508  18.443  0.00  0.00    +0.000 C 
BRANCH  18  19
ATOM     19  C   UNL     1       1.766   8.522  18.930  0.00  0.00    +0.000 A 
ATOM     20  C   UNL     1       1.387   8.547  20.279  0.00  0.00    +0.000 A 
ATOM     21  C   UNL     1       0.450   9.478  20.735  0.00  0.00    +0.000 A 
ATOM     22  C   UNL     1      -0.116  10.386  19.844  0.00  0.00    +0.000 A 
ATOM     23 CL   UNL     1      -1.273  11.528  20.405  0.00  0.00    +0.000 Cl
ATOM     24  C   UNL     1       0.249  10.372  18.500  0.00  0.00    +0.000 A 
ATOM     25  C   UNL     1       1.188   9.441  18.042  0.00  0.00    +0.000 A 
ENDBRANCH  18  19
ENDBRANCH  17  18
ENDBRANCH   3  17
TORSDOF 7
ENDMDL
MODEL 5
REMARK VINA RESULT:      -7.1      1.418      1.771
REMARK  Name = 
REMARK  7 active torsions:
REMARK  status: ('A' for Active; 'I' for Inactive)
REMARK    1  A    between atoms: C_2  and  C_3
REMARK    2  A    between atoms: C_3  and  C_4
REMARK    3  A    between atoms: C_4  and  S_5
REMARK    4  A    between atoms: S_5  and  C_8
REMARK    5  A    between atoms: N_15  and  C_16
REMARK    6  A    between atoms: C_16  and  C_17
REMARK    7  A    between atoms: C_17  and  C_18
REMARK                            x       y       z     vdW  Elec       q    Type
REMARK                         _______ _______ _______ _____ _____    ______ ____
ROOT
ATOM      1  O   UNL     1       7.355   7.887  16.708  0.00  0.00    +0.000 OA
ATOM      2  C   UNL     1       7.610   7.474  17.835  0.00  0.00    +0.000 C 
ATOM      3  N   UNL     1       8.405   8.172  18.718  0.00  0.00    +0.000 N 
ATOM      4  H   UNL     1       8.748   7.728  19.555  0.00  0.00    +0.000 HD
ENDROOT
BRANCH   2   5
ATOM      5  C   UNL     1       7.113   6.122  18.309  0.00  0.00    +0.000 C 
BRANCH   5   6
ATOM      6  C   UNL     1       7.238   5.013  17.278  0.00  0.00    +0.000 C 
BRANCH   6   7
ATOM      7  S   UNL     1       5.722   4.774  16.385  0.00  0.00    +0.000 S 
ATOM      8  O   UNL     1       5.366   6.018  15.734  0.00  0.00    +0.000 OA
ATOM      9  O   UNL     1       5.841   3.540  15.638  0.00  0.00    +0.000 OA
BRANCH   7  10
ATOM     10  C   UNL     1       4.526   4.497  17.679  0.00  0.00    +0.000 A 
ATOM     11  C   UNL     1       3.338   5.235  17.684  0.00  0.00    +0.000 A 
ATOM     12  C   UNL     1       2.372   4.978  18.662  0.00  0.00    +0.000 A 
ATOM     13  C   UNL     1       2.596   3.986  19.616  0.00  0.00    +0.000 A 
ATOM     14 CL   UNL     1       1.398   3.661  20.806  0.00  0.00    +0.000 Cl
ATOM     15  C   UNL     1       3.780   3.246  19.606  0.00  0.00    +0.000 A 
ATOM     16  C   UNL     1       4.751   3.497  18.631  0.00  0.00    +0.000 A 
ENDBRANCH   7  10
ENDBRANCH   6   7
ENDBRANCH   5   6
ENDBRANCH   2   5
BRANCH   3  17
ATOM     17  C   UNL     1       8.995   9.453  18.352  0.00  0.00    +0.000 C 
BRANCH  17  18
ATOM     18  C   UNL     1       9.295  10.305  19.589  0.00  0.00    +0.000 C 
BRANCH  18  19
ATOM     19  C   UNL     1      10.059  11.564  19.265  0.00  0.00    +0.000 A 
ATOM     20  C   UNL     1      10.928  12.126  20.212  0.00  0.00    +0.000 A 
ATOM     21  C   UNL     1      11.632  13.297  19.922  0.00  0.00    +0.000 A 
ATOM     22  C   UNL     1      11.469  13.915  18.685  0.00  0.00    +0.000 A 
ATOM     23 CL   UNL     1      12.333  15.360  18.330  0.00  0.00    +0.000 Cl
ATOM     24  C   UNL     1      10.609  13.370  17.734  0.00  0.00    +0.000 A 
ATOM     25  C   UNL     1       9.903  12.197  18.024  0.00  0.00    +0.000 A 
ENDBRANCH  18  19
ENDBRANCH  17  18
ENDBRANCH   3  17
TORSDOF 7
ENDMDL
MODEL 6
REMARK VINA RESULT:      -7.1      1.900      2.341
REMARK  Name = 
REMARK  7 active torsions:
REMARK  status: ('A' for Active; 'I' for Inactive)
REMARK    1  A    between atoms: C_2  and  C_3
REMARK    2  A    between atoms: C_3  and  C_4
REMARK    3  A    between atoms: C_4  and  S_5
REMARK    4  A    between atoms: S_5  and  C_8
REMARK    5  A    between atoms: N_15  and  C_16
REMARK    6  A    between atoms: C_16  and  C_17
REMARK    7  A    between atoms: C_17  and  C_18
REMARK                            x       y       z     vdW  Elec       q    Type
REMARK                         _______ _______ _______ _____ _____    ______ ____
ROOT
ATOM      1  O   UNL     1       8.522   7.171  18.887  0.00  0.00    +0.000 OA
ATOM      2  C   UNL     1       7.927   7.862  18.066  0.00  0.00    +0.000 C 
ATOM      3  N   UNL     1       8.135   9.220  17.951  0.00  0.00    +0.000 N 
ATOM      4  H   UNL     1       7.505   9.786  17.405  0.00  0.00    +0.000 HD
ENDROOT
BRANCH   2   5
ATOM      5  C   UNL     1       6.867   7.269  17.158  0.00  0.00    +0.000 C 
BRANCH   5   6
ATOM      6  C   UNL     1       6.976   5.765  16.970  0.00  0.00    +0.000 C 
BRANCH   6   7
ATOM      7  S   UNL     1       5.706   5.145  15.895  0.00  0.00    +0.000 S 
ATOM      8  O   UNL     1       5.218   6.236  15.076  0.00  0.00    +0.000 OA
ATOM      9  O   UNL     1       6.191   3.918  15.302  0.00  0.00    +0.000 OA
BRANCH   7  10
ATOM     10  C   UNL     1       4.395   4.708  17.022  0.00  0.00    +0.000 A 
ATOM     11  C   UNL     1       3.584   5.714  17.556  0.00  0.00    +0.000 A 
ATOM     12  C   UNL     1       2.518   5.369  18.392  0.00  0.00    +0.000 A 
ATOM     13  C   UNL     1       2.267   4.028  18.681  0.00  0.00    +0.000 A 
ATOM     14 CL   UNL     1       0.944   3.607  19.696  0.00  0.00    +0.000 Cl
ATOM     15  C   UNL     1       3.074   3.024  18.143  0.00  0.00    +0.000 A 
ATOM     16  C   UNL     1       4.142   3.361  17.305  0.00  0.00    +0.000 A 
ENDBRANCH   7  10
ENDBRANCH   6   7
ENDBRANCH   5   6
ENDBRANCH   2   5
BRANCH   3  17
ATOM     17  C   UNL     1       9.081   9.914  18.813  0.00  0.00    +0.000 C 
BRANCH  17  18
ATOM     18  C   UNL     1       9.725  11.104  18.094  0.00  0.00    +0.000 C 
BRANCH  18  19
ATOM     19  C   UNL     1       8.958  12.389  18.278  0.00  0.00    +0.000 A 
ATOM     20  C   UNL     1       7.948  12.742  17.372  0.00  0.00    +0.000 A 
ATOM     21  C   UNL     1       7.238  13.935  17.531  0.00  0.00    +0.000 A 
ATOM     22  C   UNL     1       7.537  14.783  18.595  0.00  0.00    +0.000 A 
ATOM     23 CL   UNL     1       6.666  16.254  18.787  0.00  0.00    +0.000 Cl
ATOM     24  C   UNL     1       8.539  14.446  19.502  0.00  0.00    +0.000 A 
ATOM     25  C   UNL     1       9.249  13.252  19.344  0.00  0.00    +0.000 A 
ENDBRANCH  18  19
ENDBRANCH  17  18
ENDBRANCH   3  17
TORSDOF 7
ENDMDL
MODEL 7
REMARK VINA RESULT:      -7.0      5.051      6.507
REMARK  Name = 
REMARK  7 active torsions:
REMARK  status: ('A' for Active; 'I' for Inactive)
REMARK    1  A    between atoms: C_2  and  C_3
REMARK    2  A    between atoms: C_3  and  C_4
REMARK    3  A    between atoms: C_4  and  S_5
REMARK    4  A    between atoms: S_5  and  C_8
REMARK    5  A    between atoms: N_15  and  C_16
REMARK    6  A    between atoms: C_16  and  C_17
REMARK    7  A    between atoms: C_17  and  C_18
REMARK                            x       y       z     vdW  Elec       q    Type
REMARK                         _______ _______ _______ _____ _____    ______ ____
ROOT
ATOM      1  O   UNL     1       1.970   6.203  20.534  0.00  0.00    +0.000 OA
ATOM      2  C   UNL     1       1.926   5.629  19.451  0.00  0.00    +0.000 C 
ATOM      3  N   UNL     1       2.312   6.236  18.275  0.00  0.00    +0.000 N 
ATOM      4  H   UNL     1       2.091   5.813  17.388  0.00  0.00    +0.000 HD
ENDROOT
BRANCH   2   5
ATOM      5  C   UNL     1       1.378   4.221  19.327  0.00  0.00    +0.000 C 
BRANCH   5   6
ATOM      6  C   UNL     1       2.393   3.127  19.618  0.00  0.00    +0.000 C 
BRANCH   6   7
ATOM      7  S   UNL     1       3.196   2.568  18.137  0.00  0.00    +0.000 S 
ATOM      8  O   UNL     1       3.834   1.295  18.407  0.00  0.00    +0.000 OA
ATOM      9  O   UNL     1       2.262   2.725  17.043  0.00  0.00    +0.000 OA
BRANCH   7  10
ATOM     10  C   UNL     1       4.496   3.766  17.899  0.00  0.00    +0.000 A 
ATOM     11  C   UNL     1       4.706   4.307  16.626  0.00  0.00    +0.000 A 
ATOM     12  C   UNL     1       5.684   5.291  16.449  0.00  0.00    +0.000 A 
ATOM     13  C   UNL     1       6.434   5.729  17.540  0.00  0.00    +0.000 A 
ATOM     14 CL   UNL     1       7.624   6.952  17.321  0.00  0.00    +0.000 Cl
ATOM     15  C   UNL     1       6.220   5.192  18.810  0.00  0.00    +0.000 A 
ATOM     16  C   UNL     1       5.243   4.209  18.996  0.00  0.00    +0.000 A 
ENDBRANCH   7  10
ENDBRANCH   6   7
ENDBRANCH   5   6
ENDBRANCH   2   5
BRANCH   3  17
ATOM     17  C   UNL     1       2.794   7.611  18.258  0.00  0.00    +0.000 C 
BRANCH  17  18
ATOM     18  C   UNL     1       1.732   8.569  17.709  0.00  0.00    +0.000 C 
BRANCH  18  19
ATOM     19  C   UNL     1       1.448   9.726  18.635  0.00  0.00    +0.000 A 
ATOM     20  C   UNL     1       0.807   9.506  19.862  0.00  0.00    +0.000 A 
ATOM     21  C   UNL     1       0.533  10.573  20.721  0.00  0.00    +0.000 A 
ATOM     22  C   UNL     1       0.895  11.867  20.355  0.00  0.00    +0.000 A 
ATOM     23 CL   UNL     1       0.554  13.181  21.411  0.00  0.00    +0.000 Cl
ATOM     24  C   UNL     1       1.532  12.101  19.139  0.00  0.00    +0.000 A 
ATOM     25  C   UNL     1       1.807  11.033  18.279  0.00  0.00    +0.000 A 
ENDBRANCH  18  19
ENDBRANCH  17  18
ENDBRANCH   3  17
TORSDOF 7
ENDMDL
MODEL 8
REMARK VINA RESULT:      -7.0      1.961      2.923
REMARK  Name = 
REMARK  7 active torsions:
REMARK  status: ('A' for Active; 'I' for Inactive)
REMARK    1  A    between atoms: C_2  and  C_3
REMARK    2  A    between atoms: C_3  and  C_4
REMARK    3  A    between atoms: C_4  and  S_5
REMARK    4  A    between atoms: S_5  and  C_8
REMARK    5  A    between atoms: N_15  and  C_16
REMARK    6  A    between atoms: C_16  and  C_17
REMARK    7  A    between atoms: C_17  and  C_18
REMARK                            x       y       z     vdW  Elec       q    Type
REMARK                         _______ _______ _______ _____ _____    ______ ____
ROOT
ATOM      1  O   UNL     1       7.949  10.457  17.519  0.00  0.00    +0.000 OA
ATOM      2  C   UNL     1       8.169   9.367  18.038  0.00  0.00    +0.000 C 
ATOM      3  N   UNL     1       8.943   9.229  19.170  0.00  0.00    +0.000 N 
ATOM      4  H   UNL     1       9.259   8.317  19.461  0.00  0.00    +0.000 HD
ENDROOT
BRANCH   2   5
ATOM      5  C   UNL     1       7.651   8.082  17.421  0.00  0.00    +0.000 C 
BRANCH   5   6
ATOM      6  C   UNL     1       7.891   6.842  18.267  0.00  0.00    +0.000 C 
BRANCH   6   7
ATOM      7  S   UNL     1       7.447   5.359  17.397  0.00  0.00    +0.000 S 
ATOM      8  O   UNL     1       7.461   5.634  15.975  0.00  0.00    +0.000 OA
ATOM      9  O   UNL     1       8.216   4.271  17.961  0.00  0.00    +0.000 OA
BRANCH   7  10
ATOM     10  C   UNL     1       5.745   5.105  17.866  0.00  0.00    +0.000 A 
ATOM     11  C   UNL     1       4.853   4.556  16.940  0.00  0.00    +0.000 A 
ATOM     12  C   UNL     1       3.533   4.299  17.323  0.00  0.00    +0.000 A 
ATOM     13  C   UNL     1       3.119   4.584  18.624  0.00  0.00    +0.000 A 
ATOM     14 CL   UNL     1       1.500   4.250  19.097  0.00  0.00    +0.000 Cl
ATOM     15  C   UNL     1       4.012   5.127  19.550  0.00  0.00    +0.000 A 
ATOM     16  C   UNL     1       5.334   5.386  19.174  0.00  0.00    +0.000 A 
ENDBRANCH   7  10
ENDBRANCH   6   7
ENDBRANCH   5   6
ENDBRANCH   2   5
BRANCH   3  17
ATOM     17  C   UNL     1       9.550  10.384  19.815  0.00  0.00    +0.000 C 
BRANCH  17  18
ATOM     18  C   UNL     1      10.663  10.987  18.951  0.00  0.00    +0.000 C 
BRANCH  18  19
ATOM     19  C   UNL     1      10.704  12.493  19.011  0.00  0.00    +0.000 A 
ATOM     20  C   UNL     1      10.943  13.144  20.230  0.00  0.00    +0.000 A 
ATOM     21  C   UNL     1      10.974  14.540  20.295  0.00  0.00    +0.000 A 
ATOM     22  C   UNL     1      10.763  15.292  19.142  0.00  0.00    +0.000 A 
ATOM     23 CL   UNL     1      10.797  17.010  19.224  0.00  0.00    +0.000 Cl
ATOM     24  C   UNL     1      10.523  14.659  17.924  0.00  0.00    +0.000 A 
ATOM     25  C   UNL     1      10.492  13.263  17.859  0.00  0.00    +0.000 A 
ENDBRANCH  18  19
ENDBRANCH  17  18
ENDBRANCH   3  17
TORSDOF 7
ENDMDL
MODEL 9
REMARK VINA RESULT:      -6.9      2.833      3.595
REMARK  Name = 
REMARK  7 active torsions:
REMARK  status: ('A' for Active; 'I' for Inactive)
REMARK    1  A    between atoms: C_2  and  C_3
REMARK    2  A    between atoms: C_3  and  C_4
REMARK    3  A    between atoms: C_4  and  S_5
REMARK    4  A    between atoms: S_5  and  C_8
REMARK    5  A    between atoms: N_15  and  C_16
REMARK    6  A    between atoms: C_16  and  C_17
REMARK    7  A    between atoms: C_17  and  C_18
REMARK                            x       y       z     vdW  Elec       q    Type
REMARK                         _______ _______ _______ _____ _____    ______ ____
ROOT
ATOM      1  O   UNL     1       7.560   6.493  16.188  0.00  0.00    +0.000 OA
ATOM      2  C   UNL     1       6.892   6.726  17.191  0.00  0.00    +0.000 C 
ATOM      3  N   UNL     1       7.097   7.841  17.975  0.00  0.00    +0.000 N 
ATOM      4  H   UNL     1       6.667   7.909  18.884  0.00  0.00    +0.000 HD
ENDROOT
BRANCH   2   5
ATOM      5  C   UNL     1       5.828   5.757  17.671  0.00  0.00    +0.000 C 
BRANCH   5   6
ATOM      6  C   UNL     1       4.411   6.140  17.277  0.00  0.00    +0.000 C 
BRANCH   6   7
ATOM      7  S   UNL     1       3.245   5.741  18.556  0.00  0.00    +0.000 S 
ATOM      8  O   UNL     1       2.281   4.799  18.027  0.00  0.00    +0.000 OA
ATOM      9  O   UNL     1       3.994   5.456  19.761  0.00  0.00    +0.000 OA
BRANCH   7  10
ATOM     10  C   UNL     1       2.385   7.281  18.819  0.00  0.00    +0.000 A 
ATOM     11  C   UNL     1       1.923   7.599  20.100  0.00  0.00    +0.000 A 
ATOM     12  C   UNL     1       1.302   8.832  20.322  0.00  0.00    +0.000 A 
ATOM     13  C   UNL     1       1.156   9.735  19.270  0.00  0.00    +0.000 A 
ATOM     14 CL   UNL     1       0.407  11.258  19.551  0.00  0.00    +0.000 Cl
ATOM     15  C   UNL     1       1.622   9.420  17.993  0.00  0.00    +0.000 A 
ATOM     16  C   UNL     1       2.245   8.189  17.763  0.00  0.00    +0.000 A 
ENDBRANCH   7  10
ENDBRANCH   6   7
ENDBRANCH   5   6
ENDBRANCH   2   5
BRANCH   3  17
ATOM     17  C   UNL     1       8.134   8.810  17.651  0.00  0.00    +0.000 C 
BRANCH  17  18
ATOM     18  C   UNL     1       8.934   9.211  18.895  0.00  0.00    +0.000 C 
BRANCH  18  19
ATOM     19  C   UNL     1       9.301  10.673  18.913  0.00  0.00    +0.000 A 
ATOM     20  C   UNL     1       8.841  11.528  17.901  0.00  0.00    +0.000 A 
ATOM     21  C   UNL     1       9.184  12.883  17.906  0.00  0.00    +0.000 A 
ATOM     22  C   UNL     1       9.993  13.388  18.921  0.00  0.00    +0.000 A 
ATOM     23 CL   UNL     1      10.419  15.055  18.924  0.00  0.00    +0.000 Cl
ATOM     24  C   UNL     1      10.459  12.551  19.932  0.00  0.00    +0.000 A 
ATOM     25  C   UNL     1      10.116  11.195  19.928  0.00  0.00    +0.000 A 
ENDBRANCH  18  19
ENDBRANCH  17  18
ENDBRANCH   3  17
TORSDOF 7
ENDMDL
