MODEL 1
REMARK VINA RESULT:      -8.4      0.000      0.000
REMARK  Name = 
REMARK  11 active torsions:
REMARK  status: ('A' for Active; 'I' for Inactive)
REMARK    1  A    between atoms: C_1  and  C_2
REMARK    2  A    between atoms: C_2  and  C_3
REMARK    3  A    between atoms: C_3  and  C_4
REMARK    4  A    between atoms: C_4  and  N_5
REMARK    5  A    between atoms: C_11  and  C_12
REMARK    6  A    between atoms: N_14  and  C_15
REMARK    7  A    between atoms: C_18  and  C_19
REMARK    8  A    between atoms: C_20  and  S_21
REMARK    9  A    between atoms: S_21  and  N_24
REMARK   10  A    between atoms: N_24  and  C_25
REMARK   11  A    between atoms: N_24  and  C_26
REMARK                            x       y       z     vdW  Elec       q    Type
REMARK                         _______ _______ _______ _____ _____    ______ ____
ROOT
ATOM      1  C   UNL     1       1.676   9.201  18.125  0.00  0.00    +0.000 C 
ATOM      2  O   UNL     1       2.492   9.832  17.460  0.00  0.00    +0.000 OA
ATOM      3  N   UNL     1       1.777   7.865  18.496  0.00  0.00    +0.000 N 
ATOM      4  H   UNL     1       0.941   7.407  18.839  0.00  0.00    +0.000 HD
ENDROOT
BRANCH   1  11
ATOM      5  N   UNL     1      -3.845  11.543  18.036  0.00  0.00    +0.000 N 
ATOM      6  C   UNL     1      -3.179  11.955  19.153  0.00  0.00    +0.000 C 
ATOM      7  O   UNL     1      -3.546  12.672  20.066  0.00  0.00    +0.000 OA
ATOM      8  C   UNL     1      -1.855  11.341  19.104  0.00  0.00    +0.000 A 
ATOM      9  C   UNL     1      -0.770  11.497  19.947  0.00  0.00    +0.000 A 
ATOM     10  C   UNL     1       0.395  10.781  19.643  0.00  0.00    +0.000 A 
ATOM     11  C   UNL     1       0.435   9.925  18.519  0.00  0.00    +0.000 A 
ATOM     12  C   UNL     1      -0.687   9.798  17.674  0.00  0.00    +0.000 A 
ATOM     13  C   UNL     1      -1.814  10.526  17.993  0.00  0.00    +0.000 A 
ATOM     14  C   UNL     1      -3.107  10.645  17.310  0.00  0.00    +0.000 C 
ATOM     15  O   UNL     1      -3.409  10.026  16.308  0.00  0.00    +0.000 OA
BRANCH   5  16
ATOM     16  C   UNL     1      -5.211  11.928  17.716  0.00  0.00    +0.000 C 
BRANCH  16  17
ATOM     17  C   UNL     1      -6.265  10.991  18.316  0.00  0.00    +0.000 C 
BRANCH  17  19
ATOM     18  C   UNL     1      -6.995  13.206  19.255  0.00  0.00    +0.000 C 
ATOM     19  C   UNL     1      -7.300  11.718  19.177  0.00  0.00    +0.000 C 
ENDBRANCH  17  19
ENDBRANCH  16  17
ENDBRANCH   5  16
ENDBRANCH   1  11
BRANCH   3  20
ATOM     20  C   UNL     1       2.867   7.021  18.161  0.00  0.00    +0.000 A 
ATOM     21  C   UNL     1       3.894   7.421  17.313  0.00  0.00    +0.000 A 
ATOM     22  C   UNL     1       4.865   6.513  16.886  0.00  0.00    +0.000 A 
ATOM     23  C   UNL     1       4.847   5.171  17.297  0.00  0.00    +0.000 A 
ATOM     24  C   UNL     1       5.853   4.257  16.657  0.00  0.00    +0.000 C 
ATOM     25  C   UNL     1       3.885   4.794  18.251  0.00  0.00    +0.000 A 
ATOM     26  C   UNL     1       2.899   5.722  18.673  0.00  0.00    +0.000 A 
BRANCH  25  27
ATOM     27  S   UNL     1       3.722   3.123  18.895  0.00  0.00    +0.000 S 
ATOM     28  O   UNL     1       3.459   2.262  17.757  0.00  0.00    +0.000 OA
ATOM     29  O   UNL     1       4.832   2.839  19.776  0.00  0.00    +0.000 OA
BRANCH  27  30
ATOM     30  N   UNL     1       2.299   3.180  19.822  0.00  0.00    +0.000 NA
ATOM     31  C   UNL     1       1.078   2.592  19.255  0.00  0.00    +0.000 C 
ATOM     32  C   UNL     1       2.427   2.965  21.272  0.00  0.00    +0.000 C 
ENDBRANCH  27  30
ENDBRANCH  25  27
ENDBRANCH   3  20
TORSDOF 7
ENDMDL
MODEL 2
REMARK VINA RESULT:      -8.3      1.184      1.457
REMARK  Name = 
REMARK  11 active torsions:
REMARK  status: ('A' for Active; 'I' for Inactive)
REMARK    1  A    between atoms: C_1  and  C_2
REMARK    2  A    between atoms: C_2  and  C_3
REMARK    3  A    between atoms: C_3  and  C_4
REMARK    4  A    between atoms: C_4  and  N_5
REMARK    5  A    between atoms: C_11  and  C_12
REMARK    6  A    between atoms: N_14  and  C_15
REMARK    7  A    between atoms: C_18  and  C_19
REMARK    8  A    between atoms: C_20  and  S_21
REMARK    9  A    between atoms: S_21  and  N_24
REMARK   10  A    between atoms: N_24  and  C_25
REMARK   11  A    between atoms: N_24  and  C_26
REMARK                            x       y       z     vdW  Elec       q    Type
REMARK                         _______ _______ _______ _____ _____    ______ ____
ROOT
ATOM      1  C   UNL     1       1.594   9.002  18.555  0.00  0.00    +0.000 C 
ATOM      2  O   UNL     1       1.791   9.342  17.393  0.00  0.00    +0.000 OA
ATOM      3  N   UNL     1       2.137   7.889  19.187  0.00  0.00    +0.000 N 
ATOM      4  H   UNL     1       1.719   7.594  20.061  0.00  0.00    +0.000 HD
ENDROOT
BRANCH   1  11
ATOM      5  N   UNL     1      -3.046  12.496  20.048  0.00  0.00    +0.000 N 
ATOM      6  C   UNL     1      -2.211  12.345  21.116  0.00  0.00    +0.000 C 
ATOM      7  O   UNL     1      -2.295  12.787  22.248  0.00  0.00    +0.000 OA
ATOM      8  C   UNL     1      -1.118  11.482  20.676  0.00  0.00    +0.000 A 
ATOM      9  C   UNL     1       0.027  11.085  21.344  0.00  0.00    +0.000 A 
ATOM     10  C   UNL     1       0.921  10.252  20.658  0.00  0.00    +0.000 A 
ATOM     11  C   UNL     1       0.637   9.831  19.339  0.00  0.00    +0.000 A 
ATOM     12  C   UNL     1      -0.535  10.263  18.684  0.00  0.00    +0.000 A 
ATOM     13  C   UNL     1      -1.388  11.094  19.381  0.00  0.00    +0.000 A 
ATOM     14  C   UNL     1      -2.643  11.739  18.980  0.00  0.00    +0.000 C 
ATOM     15  O   UNL     1      -3.179  11.577  17.900  0.00  0.00    +0.000 OA
BRANCH   5  16
ATOM     16  C   UNL     1      -4.270  13.282  20.079  0.00  0.00    +0.000 C 
BRANCH  16  17
ATOM     17  C   UNL     1      -5.465  12.525  20.669  0.00  0.00    +0.000 C 
BRANCH  17  19
ATOM     18  C   UNL     1      -7.217  10.780  20.216  0.00  0.00    +0.000 C 
ATOM     19  C   UNL     1      -6.354  11.875  19.607  0.00  0.00    +0.000 C 
ENDBRANCH  17  19
ENDBRANCH  16  17
ENDBRANCH   5  16
ENDBRANCH   1  11
BRANCH   3  20
ATOM     20  C   UNL     1       3.024   6.971  18.570  0.00  0.00    +0.000 A 
ATOM     21  C   UNL     1       3.840   7.318  17.498  0.00  0.00    +0.000 A 
ATOM     22  C   UNL     1       4.584   6.350  16.821  0.00  0.00    +0.000 A 
ATOM     23  C   UNL     1       4.543   4.997  17.194  0.00  0.00    +0.000 A 
ATOM     24  C   UNL     1       5.267   4.029  16.303  0.00  0.00    +0.000 C 
ATOM     25  C   UNL     1       3.819   4.663  18.353  0.00  0.00    +0.000 A 
ATOM     26  C   UNL     1       3.061   5.652  19.030  0.00  0.00    +0.000 A 
BRANCH  25  27
ATOM     27  S   UNL     1       3.665   2.985  18.982  0.00  0.00    +0.000 S 
ATOM     28  O   UNL     1       3.276   2.153  17.859  0.00  0.00    +0.000 OA
ATOM     29  O   UNL     1       4.841   2.654  19.755  0.00  0.00    +0.000 OA
BRANCH  27  30
ATOM     30  N   UNL     1       2.333   3.064  20.034  0.00  0.00    +0.000 NA
ATOM     31  C   UNL     1       1.020   2.646  19.523  0.00  0.00    +0.000 C 
ATOM     32  C   UNL     1       2.556   2.686  21.438  0.00  0.00    +0.000 C 
ENDBRANCH  27  30
ENDBRANCH  25  27
ENDBRANCH   3  20
TORSDOF 7
ENDMDL
MODEL 3
REMARK VINA RESULT:      -8.2      3.277      4.380
REMARK  Name = 
REMARK  11 active torsions:
REMARK  status: ('A' for Active; 'I' for Inactive)
REMARK    1  A    between atoms: C_1  and  C_2
REMARK    2  A    between atoms: C_2  and  C_3
REMARK    3  A    between atoms: C_3  and  C_4
REMARK    4  A    between atoms: C_4  and  N_5
REMARK    5  A    between atoms: C_11  and  C_12
REMARK    6  A    between atoms: N_14  and  C_15
REMARK    7  A    between atoms: C_18  and  C_19
REMARK    8  A    between atoms: C_20  and  S_21
REMARK    9  A    between atoms: S_21  and  N_24
REMARK   10  A    between atoms: N_24  and  C_25
REMARK   11  A    between atoms: N_24  and  C_26
REMARK                            x       y       z     vdW  Elec       q    Type
REMARK                         _______ _______ _______ _____ _____    ______ ____
ROOT
ATOM      1  C   UNL     1       1.711   8.440  19.076  0.00  0.00    +0.000 C 
ATOM      2  O   UNL     1       1.706   8.220  17.869  0.00  0.00    +0.000 OA
ATOM      3  N   UNL     1       2.063   7.539  20.074  0.00  0.00    +0.000 N 
ATOM      4  H   UNL     1       1.804   7.766  21.026  0.00  0.00    +0.000 HD
ENDROOT
BRANCH   1  11
ATOM      5  N   UNL     1      -0.786  12.867  22.261  0.00  0.00    +0.000 N 
ATOM      6  C   UNL     1      -0.378  13.336  21.047  0.00  0.00    +0.000 C 
ATOM      7  O   UNL     1      -0.443  14.457  20.576  0.00  0.00    +0.000 OA
ATOM      8  C   UNL     1       0.220  12.207  20.340  0.00  0.00    +0.000 A 
ATOM      9  C   UNL     1       0.713  12.126  19.050  0.00  0.00    +0.000 A 
ATOM     10  C   UNL     1       1.224  10.891  18.628  0.00  0.00    +0.000 A 
ATOM     11  C   UNL     1       1.239   9.785  19.509  0.00  0.00    +0.000 A 
ATOM     12  C   UNL     1       0.719   9.901  20.815  0.00  0.00    +0.000 A 
ATOM     13  C   UNL     1       0.212  11.127  21.195  0.00  0.00    +0.000 A 
ATOM     14  C   UNL     1      -0.427  11.557  22.444  0.00  0.00    +0.000 C 
ATOM     15  O   UNL     1      -0.563  10.846  23.421  0.00  0.00    +0.000 OA
BRANCH   5  16
ATOM     16  C   UNL     1      -1.427  13.689  23.277  0.00  0.00    +0.000 C 
BRANCH  16  17
ATOM     17  C   UNL     1      -2.947  13.793  23.105  0.00  0.00    +0.000 C 
BRANCH  17  19
ATOM     18  C   UNL     1      -4.401  12.474  24.676  0.00  0.00    +0.000 C 
ATOM     19  C   UNL     1      -3.674  12.468  23.339  0.00  0.00    +0.000 C 
ENDBRANCH  17  19
ENDBRANCH  16  17
ENDBRANCH   5  16
ENDBRANCH   1  11
BRANCH   3  20
ATOM     20  C   UNL     1       2.485   6.206  19.835  0.00  0.00    +0.000 A 
ATOM     21  C   UNL     1       1.896   5.108  20.455  0.00  0.00    +0.000 A 
ATOM     22  C   UNL     1       2.438   3.829  20.313  0.00  0.00    +0.000 A 
ATOM     23  C   UNL     1       3.588   3.600  19.540  0.00  0.00    +0.000 A 
ATOM     24  C   UNL     1       4.162   2.213  19.582  0.00  0.00    +0.000 C 
ATOM     25  C   UNL     1       4.112   4.684  18.813  0.00  0.00    +0.000 A 
ATOM     26  C   UNL     1       3.558   5.980  18.970  0.00  0.00    +0.000 A 
BRANCH  25  27
ATOM     27  S   UNL     1       5.571   4.571  17.768  0.00  0.00    +0.000 S 
ATOM     28  O   UNL     1       6.696   4.322  18.650  0.00  0.00    +0.000 OA
ATOM     29  O   UNL     1       5.302   3.674  16.667  0.00  0.00    +0.000 OA
BRANCH  27  30
ATOM     30  N   UNL     1       5.754   6.143  17.151  0.00  0.00    +0.000 NA
ATOM     31  C   UNL     1       7.004   6.860  17.438  0.00  0.00    +0.000 C 
ATOM     32  C   UNL     1       5.233   6.405  15.801  0.00  0.00    +0.000 C 
ENDBRANCH  27  30
ENDBRANCH  25  27
ENDBRANCH   3  20
TORSDOF 7
ENDMDL
MODEL 4
REMARK VINA RESULT:      -8.2      2.400      3.194
REMARK  Name = 
REMARK  11 active torsions:
REMARK  status: ('A' for Active; 'I' for Inactive)
REMARK    1  A    between atoms: C_1  and  C_2
REMARK    2  A    between atoms: C_2  and  C_3
REMARK    3  A    between atoms: C_3  and  C_4
REMARK    4  A    between atoms: C_4  and  N_5
REMARK    5  A    between atoms: C_11  and  C_12
REMARK    6  A    between atoms: N_14  and  C_15
REMARK    7  A    between atoms: C_18  and  C_19
REMARK    8  A    between atoms: C_20  and  S_21
REMARK    9  A    between atoms: S_21  and  N_24
REMARK   10  A    between atoms: N_24  and  C_25
REMARK   11  A    between atoms: N_24  and  C_26
REMARK                            x       y       z     vdW  Elec       q    Type
REMARK                         _______ _______ _______ _____ _____    ______ ____
ROOT
ATOM      1  C   UNL     1       1.830   8.912  18.215  0.00  0.00    +0.000 C 
ATOM      2  O   UNL     1       2.184   9.234  17.085  0.00  0.00    +0.000 OA
ATOM      3  N   UNL     1       2.243   7.783  18.914  0.00  0.00    +0.000 N 
ATOM      4  H   UNL     1       1.706   7.513  19.730  0.00  0.00    +0.000 HD
ENDROOT
BRANCH   1  11
ATOM      5  N   UNL     1      -1.633  11.537  22.349  0.00  0.00    +0.000 N 
ATOM      6  C   UNL     1      -2.000  11.948  21.101  0.00  0.00    +0.000 C 
ATOM      7  O   UNL     1      -2.867  12.730  20.754  0.00  0.00    +0.000 OA
ATOM      8  C   UNL     1      -1.112  11.273  20.158  0.00  0.00    +0.000 A 
ATOM      9  C   UNL     1      -1.112  11.279  18.774  0.00  0.00    +0.000 A 
ATOM     10  C   UNL     1      -0.134  10.517  18.123  0.00  0.00    +0.000 A 
ATOM     11  C   UNL     1       0.819   9.787  18.870  0.00  0.00    +0.000 A 
ATOM     12  C   UNL     1       0.783   9.795  20.280  0.00  0.00    +0.000 A 
ATOM     13  C   UNL     1      -0.200  10.545  20.892  0.00  0.00    +0.000 A 
ATOM     14  C   UNL     1      -0.529  10.727  22.310  0.00  0.00    +0.000 C 
ATOM     15  O   UNL     1       0.107  10.241  23.225  0.00  0.00    +0.000 OA
BRANCH   5  16
ATOM     16  C   UNL     1      -2.271  11.992  23.574  0.00  0.00    +0.000 C 
BRANCH  16  17
ATOM     17  C   UNL     1      -2.456  13.513  23.637  0.00  0.00    +0.000 C 
BRANCH  17  19
ATOM     18  C   UNL     1      -4.700  12.719  24.448  0.00  0.00    +0.000 C 
ATOM     19  C   UNL     1      -3.851  13.933  24.103  0.00  0.00    +0.000 C 
ENDBRANCH  17  19
ENDBRANCH  16  17
ENDBRANCH   5  16
ENDBRANCH   1  11
BRANCH   3  20
ATOM     20  C   UNL     1       3.160   6.823  18.415  0.00  0.00    +0.000 A 
ATOM     21  C   UNL     1       4.094   7.118  17.427  0.00  0.00    +0.000 A 
ATOM     22  C   UNL     1       4.874   6.111  16.855  0.00  0.00    +0.000 A 
ATOM     23  C   UNL     1       4.752   4.771  17.254  0.00  0.00    +0.000 A 
ATOM     24  C   UNL     1       5.534   3.759  16.466  0.00  0.00    +0.000 C 
ATOM     25  C   UNL     1       3.900   4.488  18.337  0.00  0.00    +0.000 A 
ATOM     26  C   UNL     1       3.107   5.517  18.907  0.00  0.00    +0.000 A 
BRANCH  25  27
ATOM     27  S   UNL     1       3.628   2.833  18.986  0.00  0.00    +0.000 S 
ATOM     28  O   UNL     1       3.233   2.005  17.862  0.00  0.00    +0.000 OA
ATOM     29  O   UNL     1       4.755   2.450  19.806  0.00  0.00    +0.000 OA
BRANCH  27  30
ATOM     30  N   UNL     1       2.267   3.005  19.988  0.00  0.00    +0.000 NA
ATOM     31  C   UNL     1       0.967   2.550  19.476  0.00  0.00    +0.000 C 
ATOM     32  C   UNL     1       2.447   2.747  21.424  0.00  0.00    +0.000 C 
ENDBRANCH  27  30
ENDBRANCH  25  27
ENDBRANCH   3  20
TORSDOF 7
ENDMDL
MODEL 5
REMARK VINA RESULT:      -8.2      3.088     10.201
REMARK  Name = 
REMARK  11 active torsions:
REMARK  status: ('A' for Active; 'I' for Inactive)
REMARK    1  A    between atoms: C_1  and  C_2
REMARK    2  A    between atoms: C_2  and  C_3
REMARK    3  A    between atoms: C_3  and  C_4
REMARK    4  A    between atoms: C_4  and  N_5
REMARK    5  A    between atoms: C_11  and  C_12
REMARK    6  A    between atoms: N_14  and  C_15
REMARK    7  A    between atoms: C_18  and  C_19
REMARK    8  A    between atoms: C_20  and  S_21
REMARK    9  A    between atoms: S_21  and  N_24
REMARK   10  A    between atoms: N_24  and  C_25
REMARK   11  A    between atoms: N_24  and  C_26
REMARK                            x       y       z     vdW  Elec       q    Type
REMARK                         _______ _______ _______ _____ _____    ______ ____
ROOT
ATOM      1  C   UNL     1       1.802   8.459  19.164  0.00  0.00    +0.000 C 
ATOM      2  O   UNL     1       1.824   9.474  18.475  0.00  0.00    +0.000 OA
ATOM      3  N   UNL     1       1.199   8.324  20.409  0.00  0.00    +0.000 N 
ATOM      4  H   UNL     1       1.449   7.518  20.969  0.00  0.00    +0.000 HD
ENDROOT
BRANCH   1  11
ATOM      5  N   UNL     1       5.846   5.050  16.335  0.00  0.00    +0.000 N 
ATOM      6  C   UNL     1       4.845   4.270  16.836  0.00  0.00    +0.000 C 
ATOM      7  O   UNL     1       4.693   3.063  16.793  0.00  0.00    +0.000 OA
ATOM      8  C   UNL     1       3.910   5.168  17.510  0.00  0.00    +0.000 A 
ATOM      9  C   UNL     1       2.694   4.899  18.112  0.00  0.00    +0.000 A 
ATOM     10  C   UNL     1       1.998   5.975  18.676  0.00  0.00    +0.000 A 
ATOM     11  C   UNL     1       2.543   7.279  18.635  0.00  0.00    +0.000 A 
ATOM     12  C   UNL     1       3.781   7.520  18.005  0.00  0.00    +0.000 A 
ATOM     13  C   UNL     1       4.436   6.441  17.447  0.00  0.00    +0.000 A 
ATOM     14  C   UNL     1       5.695   6.362  16.699  0.00  0.00    +0.000 C 
ATOM     15  O   UNL     1       6.426   7.311  16.492  0.00  0.00    +0.000 OA
BRANCH   5  16
ATOM     16  C   UNL     1       6.987   4.531  15.597  0.00  0.00    +0.000 C 
BRANCH  16  17
ATOM     17  C   UNL     1       6.870   4.722  14.081  0.00  0.00    +0.000 C 
BRANCH  17  19
ATOM     18  C   UNL     1       6.329   3.354  12.042  0.00  0.00    +0.000 C 
ATOM     19  C   UNL     1       5.863   3.774  13.428  0.00  0.00    +0.000 C 
ENDBRANCH  17  19
ENDBRANCH  16  17
ENDBRANCH   5  16
ENDBRANCH   1  11
BRANCH   3  20
ATOM     20  C   UNL     1       0.498   9.361  21.075  0.00  0.00    +0.000 A 
ATOM     21  C   UNL     1       0.283   9.363  22.450  0.00  0.00    +0.000 A 
ATOM     22  C   UNL     1      -0.540  10.319  23.046  0.00  0.00    +0.000 A 
ATOM     23  C   UNL     1      -1.177  11.315  22.289  0.00  0.00    +0.000 A 
ATOM     24  C   UNL     1      -2.152  12.195  23.017  0.00  0.00    +0.000 C 
ATOM     25  C   UNL     1      -0.863  11.393  20.920  0.00  0.00    +0.000 A 
ATOM     26  C   UNL     1      -0.031  10.413  20.323  0.00  0.00    +0.000 A 
BRANCH  25  27
ATOM     27  S   UNL     1      -1.577  12.608  19.802  0.00  0.00    +0.000 S 
ATOM     28  O   UNL     1      -1.656  13.856  20.539  0.00  0.00    +0.000 OA
ATOM     29  O   UNL     1      -0.883  12.558  18.535  0.00  0.00    +0.000 OA
BRANCH  27  30
ATOM     30  N   UNL     1      -3.168  12.061  19.567  0.00  0.00    +0.000 NA
ATOM     31  C   UNL     1      -4.265  12.848  20.146  0.00  0.00    +0.000 C 
ATOM     32  C   UNL     1      -3.499  11.484  18.255  0.00  0.00    +0.000 C 
ENDBRANCH  27  30
ENDBRANCH  25  27
ENDBRANCH   3  20
TORSDOF 7
ENDMDL
MODEL 6
REMARK VINA RESULT:      -8.1      2.636      3.581
REMARK  Name = 
REMARK  11 active torsions:
REMARK  status: ('A' for Active; 'I' for Inactive)
REMARK    1  A    between atoms: C_1  and  C_2
REMARK    2  A    between atoms: C_2  and  C_3
REMARK    3  A    between atoms: C_3  and  C_4
REMARK    4  A    between atoms: C_4  and  N_5
REMARK    5  A    between atoms: C_11  and  C_12
REMARK    6  A    between atoms: N_14  and  C_15
REMARK    7  A    between atoms: C_18  and  C_19
REMARK    8  A    between atoms: C_20  and  S_21
REMARK    9  A    between atoms: S_21  and  N_24
REMARK   10  A    between atoms: N_24  and  C_25
REMARK   11  A    between atoms: N_24  and  C_26
REMARK                            x       y       z     vdW  Elec       q    Type
REMARK                         _______ _______ _______ _____ _____    ______ ____
ROOT
ATOM      1  C   UNL     1       1.980   8.003  19.326  0.00  0.00    +0.000 C 
ATOM      2  O   UNL     1       2.137   7.232  20.267  0.00  0.00    +0.000 OA
ATOM      3  N   UNL     1       2.589   7.910  18.079  0.00  0.00    +0.000 N 
ATOM      4  H   UNL     1       2.559   8.725  17.479  0.00  0.00    +0.000 HD
ENDROOT
BRANCH   1  11
ATOM      5  N   UNL     1      -1.542  12.048  22.009  0.00  0.00    +0.000 N 
ATOM      6  C   UNL     1      -1.518  12.268  20.663  0.00  0.00    +0.000 C 
ATOM      7  O   UNL     1      -2.069  13.126  19.997  0.00  0.00    +0.000 OA
ATOM      8  C   UNL     1      -0.640  11.253  20.087  0.00  0.00    +0.000 A 
ATOM      9  C   UNL     1      -0.338  10.984  18.764  0.00  0.00    +0.000 A 
ATOM     10  C   UNL     1       0.540   9.924  18.503  0.00  0.00    +0.000 A 
ATOM     11  C   UNL     1       1.098   9.178  19.567  0.00  0.00    +0.000 A 
ATOM     12  C   UNL     1       0.760   9.473  20.903  0.00  0.00    +0.000 A 
ATOM     13  C   UNL     1      -0.117  10.515  21.127  0.00  0.00    +0.000 A 
ATOM     14  C   UNL     1      -0.690  11.038  22.372  0.00  0.00    +0.000 C 
ATOM     15  O   UNL     1      -0.408  10.625  23.480  0.00  0.00    +0.000 OA
BRANCH   5  16
ATOM     16  C   UNL     1      -2.300  12.858  22.951  0.00  0.00    +0.000 C 
BRANCH  16  17
ATOM     17  C   UNL     1      -1.484  14.001  23.565  0.00  0.00    +0.000 C 
BRANCH  17  19
ATOM     18  C   UNL     1      -2.560  15.117  25.545  0.00  0.00    +0.000 C 
ATOM     19  C   UNL     1      -2.346  15.172  24.039  0.00  0.00    +0.000 C 
ENDBRANCH  17  19
ENDBRANCH  16  17
ENDBRANCH   5  16
ENDBRANCH   1  11
BRANCH   3  20
ATOM     20  C   UNL     1       3.493   6.884  17.704  0.00  0.00    +0.000 A 
ATOM     21  C   UNL     1       4.457   7.054  16.715  0.00  0.00    +0.000 A 
ATOM     22  C   UNL     1       5.224   5.976  16.269  0.00  0.00    +0.000 A 
ATOM     23  C   UNL     1       5.059   4.687  16.800  0.00  0.00    +0.000 A 
ATOM     24  C   UNL     1       5.833   3.582  16.139  0.00  0.00    +0.000 C 
ATOM     25  C   UNL     1       4.176   4.537  17.884  0.00  0.00    +0.000 A 
ATOM     26  C   UNL     1       3.397   5.636  18.326  0.00  0.00    +0.000 A 
BRANCH  25  27
ATOM     27  S   UNL     1       3.848   2.963  18.692  0.00  0.00    +0.000 S 
ATOM     28  O   UNL     1       3.530   2.015  17.642  0.00  0.00    +0.000 OA
ATOM     29  O   UNL     1       4.911   2.677  19.629  0.00  0.00    +0.000 OA
BRANCH  27  30
ATOM     30  N   UNL     1       2.419   3.244  19.567  0.00  0.00    +0.000 NA
ATOM     31  C   UNL     1       1.160   2.713  19.027  0.00  0.00    +0.000 C 
ATOM     32  C   UNL     1       2.498   3.169  21.034  0.00  0.00    +0.000 C 
ENDBRANCH  27  30
ENDBRANCH  25  27
ENDBRANCH   3  20
TORSDOF 7
ENDMDL
MODEL 7
REMARK VINA RESULT:      -8.1      2.460      3.064
REMARK  Name = 
REMARK  11 active torsions:
REMARK  status: ('A' for Active; 'I' for Inactive)
REMARK    1  A    between atoms: C_1  and  C_2
REMARK    2  A    between atoms: C_2  and  C_3
REMARK    3  A    between atoms: C_3  and  C_4
REMARK    4  A    between atoms: C_4  and  N_5
REMARK    5  A    between atoms: C_11  and  C_12
REMARK    6  A    between atoms: N_14  and  C_15
REMARK    7  A    between atoms: C_18  and  C_19
REMARK    8  A    between atoms: C_20  and  S_21
REMARK    9  A    between atoms: S_21  and  N_24
REMARK   10  A    between atoms: N_24  and  C_25
REMARK   11  A    between atoms: N_24  and  C_26
REMARK                            x       y       z     vdW  Elec       q    Type
REMARK                         _______ _______ _______ _____ _____    ______ ____
ROOT
ATOM      1  C   UNL     1       1.955   8.037  19.319  0.00  0.00    +0.000 C 
ATOM      2  O   UNL     1       2.147   7.312  20.290  0.00  0.00    +0.000 OA
ATOM      3  N   UNL     1       2.534   7.899  18.063  0.00  0.00    +0.000 N 
ATOM      4  H   UNL     1       2.475   8.685  17.428  0.00  0.00    +0.000 HD
ENDROOT
BRANCH   1  11
ATOM      5  N   UNL     1      -1.619  12.107  21.897  0.00  0.00    +0.000 N 
ATOM      6  C   UNL     1      -1.594  12.294  20.545  0.00  0.00    +0.000 C 
ATOM      7  O   UNL     1      -2.155  13.129  19.858  0.00  0.00    +0.000 OA
ATOM      8  C   UNL     1      -0.704  11.275  19.996  0.00  0.00    +0.000 A 
ATOM      9  C   UNL     1      -0.397  10.977  18.681  0.00  0.00    +0.000 A 
ATOM     10  C   UNL     1       0.493   9.921  18.447  0.00  0.00    +0.000 A 
ATOM     11  C   UNL     1       1.058   9.208  19.530  0.00  0.00    +0.000 A 
ATOM     12  C   UNL     1       0.715   9.533  20.858  0.00  0.00    +0.000 A 
ATOM     13  C   UNL     1      -0.174  10.569  21.055  0.00  0.00    +0.000 A 
ATOM     14  C   UNL     1      -0.756  11.117  22.286  0.00  0.00    +0.000 C 
ATOM     15  O   UNL     1      -0.471  10.734  23.404  0.00  0.00    +0.000 OA
BRANCH   5  16
ATOM     16  C   UNL     1      -2.387  12.932  22.817  0.00  0.00    +0.000 C 
BRANCH  16  17
ATOM     17  C   UNL     1      -3.886  12.610  22.817  0.00  0.00    +0.000 C 
BRANCH  17  19
ATOM     18  C   UNL     1      -5.765  13.974  23.782  0.00  0.00    +0.000 C 
ATOM     19  C   UNL     1      -4.598  13.050  24.098  0.00  0.00    +0.000 C 
ENDBRANCH  17  19
ENDBRANCH  16  17
ENDBRANCH   5  16
ENDBRANCH   1  11
BRANCH   3  20
ATOM     20  C   UNL     1       3.446   6.871  17.712  0.00  0.00    +0.000 A 
ATOM     21  C   UNL     1       4.435   7.040  16.748  0.00  0.00    +0.000 A 
ATOM     22  C   UNL     1       5.212   5.961  16.322  0.00  0.00    +0.000 A 
ATOM     23  C   UNL     1       5.032   4.672  16.848  0.00  0.00    +0.000 A 
ATOM     24  C   UNL     1       5.821   3.566  16.209  0.00  0.00    +0.000 C 
ATOM     25  C   UNL     1       4.121   4.523  17.910  0.00  0.00    +0.000 A 
ATOM     26  C   UNL     1       3.332   5.624  18.331  0.00  0.00    +0.000 A 
BRANCH  25  27
ATOM     27  S   UNL     1       3.771   2.951  18.709  0.00  0.00    +0.000 S 
ATOM     28  O   UNL     1       3.415   2.018  17.657  0.00  0.00    +0.000 OA
ATOM     29  O   UNL     1       4.842   2.632  19.627  0.00  0.00    +0.000 OA
BRANCH  27  30
ATOM     30  N   UNL     1       2.363   3.255  19.610  0.00  0.00    +0.000 NA
ATOM     31  C   UNL     1       1.085   2.746  19.092  0.00  0.00    +0.000 C 
ATOM     32  C   UNL     1       2.466   3.179  21.075  0.00  0.00    +0.000 C 
ENDBRANCH  27  30
ENDBRANCH  25  27
ENDBRANCH   3  20
TORSDOF 7
ENDMDL
MODEL 8
REMARK VINA RESULT:      -8.1      4.172     10.065
REMARK  Name = 
REMARK  11 active torsions:
REMARK  status: ('A' for Active; 'I' for Inactive)
REMARK    1  A    between atoms: C_1  and  C_2
REMARK    2  A    between atoms: C_2  and  C_3
REMARK    3  A    between atoms: C_3  and  C_4
REMARK    4  A    between atoms: C_4  and  N_5
REMARK    5  A    between atoms: C_11  and  C_12
REMARK    6  A    between atoms: N_14  and  C_15
REMARK    7  A    between atoms: C_18  and  C_19
REMARK    8  A    between atoms: C_20  and  S_21
REMARK    9  A    between atoms: S_21  and  N_24
REMARK   10  A    between atoms: N_24  and  C_25
REMARK   11  A    between atoms: N_24  and  C_26
REMARK                            x       y       z     vdW  Elec       q    Type
REMARK                         _______ _______ _______ _____ _____    ______ ____
ROOT
ATOM      1  C   UNL     1       1.763   8.410  19.458  0.00  0.00    +0.000 C 
ATOM      2  O   UNL     1       1.585   9.341  18.679  0.00  0.00    +0.000 OA
ATOM      3  N   UNL     1       1.386   8.376  20.796  0.00  0.00    +0.000 N 
ATOM      4  H   UNL     1       1.792   7.656  21.381  0.00  0.00    +0.000 HD
ENDROOT
BRANCH   1  11
ATOM      5  N   UNL     1       5.263   4.912  16.069  0.00  0.00    +0.000 N 
ATOM      6  C   UNL     1       4.638   4.164  17.024  0.00  0.00    +0.000 C 
ATOM      7  O   UNL     1       4.711   2.972  17.260  0.00  0.00    +0.000 OA
ATOM      8  C   UNL     1       3.816   5.083  17.806  0.00  0.00    +0.000 A 
ATOM      9  C   UNL     1       2.927   4.828  18.834  0.00  0.00    +0.000 A 
ATOM     10  C   UNL     1       2.257   5.921  19.399  0.00  0.00    +0.000 A 
ATOM     11  C   UNL     1       2.505   7.232  18.930  0.00  0.00    +0.000 A 
ATOM     12  C   UNL     1       3.411   7.455  17.873  0.00  0.00    +0.000 A 
ATOM     13  C   UNL     1       4.045   6.357  17.329  0.00  0.00    +0.000 A 
ATOM     14  C   UNL     1       4.992   6.247  16.215  0.00  0.00    +0.000 C 
ATOM     15  O   UNL     1       5.428   7.197  15.593  0.00  0.00    +0.000 OA
BRANCH   5  16
ATOM     16  C   UNL     1       6.187   4.367  15.086  0.00  0.00    +0.000 C 
BRANCH  16  17
ATOM     17  C   UNL     1       5.519   3.427  14.077  0.00  0.00    +0.000 C 
BRANCH  17  19
ATOM     18  C   UNL     1       4.870   3.235  11.655  0.00  0.00    +0.000 C 
ATOM     19  C   UNL     1       5.944   3.691  12.631  0.00  0.00    +0.000 C 
ENDBRANCH  17  19
ENDBRANCH  16  17
ENDBRANCH   5  16
ENDBRANCH   1  11
BRANCH   3  20
ATOM     20  C   UNL     1       0.718   9.432  21.466  0.00  0.00    +0.000 A 
ATOM     21  C   UNL     1      -0.146   9.217  22.536  0.00  0.00    +0.000 A 
ATOM     22  C   UNL     1      -0.901  10.263  23.069  0.00  0.00    +0.000 A 
ATOM     23  C   UNL     1      -0.816  11.567  22.554  0.00  0.00    +0.000 A 
ATOM     24  C   UNL     1      -1.782  12.575  23.109  0.00  0.00    +0.000 C 
ATOM     25  C   UNL     1       0.146  11.813  21.558  0.00  0.00    +0.000 A 
ATOM     26  C   UNL     1       0.903  10.742  21.019  0.00  0.00    +0.000 A 
BRANCH  25  27
ATOM     27  S   UNL     1       0.398  13.421  20.792  0.00  0.00    +0.000 S 
ATOM     28  O   UNL     1      -0.676  13.599  19.833  0.00  0.00    +0.000 OA
ATOM     29  O   UNL     1       0.621  14.411  21.821  0.00  0.00    +0.000 OA
BRANCH  27  30
ATOM     30  N   UNL     1       1.836  13.230  19.907  0.00  0.00    +0.000 NA
ATOM     31  C   UNL     1       1.759  13.281  18.441  0.00  0.00    +0.000 C 
ATOM     32  C   UNL     1       3.051  13.860  20.446  0.00  0.00    +0.000 C 
ENDBRANCH  27  30
ENDBRANCH  25  27
ENDBRANCH   3  20
TORSDOF 7
ENDMDL
MODEL 9
REMARK VINA RESULT:      -8.0      1.965      2.898
REMARK  Name = 
REMARK  11 active torsions:
REMARK  status: ('A' for Active; 'I' for Inactive)
REMARK    1  A    between atoms: C_1  and  C_2
REMARK    2  A    between atoms: C_2  and  C_3
REMARK    3  A    between atoms: C_3  and  C_4
REMARK    4  A    between atoms: C_4  and  N_5
REMARK    5  A    between atoms: C_11  and  C_12
REMARK    6  A    between atoms: N_14  and  C_15
REMARK    7  A    between atoms: C_18  and  C_19
REMARK    8  A    between atoms: C_20  and  S_21
REMARK    9  A    between atoms: S_21  and  N_24
REMARK   10  A    between atoms: N_24  and  C_25
REMARK   11  A    between atoms: N_24  and  C_26
REMARK                            x       y       z     vdW  Elec       q    Type
REMARK                         _______ _______ _______ _____ _____    ______ ____
ROOT
ATOM      1  C   UNL     1       1.781   9.288  18.111  0.00  0.00    +0.000 C 
ATOM      2  O   UNL     1       2.578   9.843  17.362  0.00  0.00    +0.000 OA
ATOM      3  N   UNL     1       1.844   7.968  18.546  0.00  0.00    +0.000 N 
ATOM      4  H   UNL     1       1.013   7.571  18.966  0.00  0.00    +0.000 HD
ENDROOT
BRANCH   1  11
ATOM      5  N   UNL     1      -1.782  12.972  21.227  0.00  0.00    +0.000 N 
ATOM      6  C   UNL     1      -2.485  12.387  20.214  0.00  0.00    +0.000 C 
ATOM      7  O   UNL     1      -3.649  12.522  19.885  0.00  0.00    +0.000 OA
ATOM      8  C   UNL     1      -1.552  11.516  19.504  0.00  0.00    +0.000 A 
ATOM      9  C   UNL     1      -1.773  10.641  18.456  0.00  0.00    +0.000 A 
ATOM     10  C   UNL     1      -0.676   9.913  17.977  0.00  0.00    +0.000 A 
ATOM     11  C   UNL     1       0.606  10.092  18.548  0.00  0.00    +0.000 A 
ATOM     12  C   UNL     1       0.793  10.985  19.622  0.00  0.00    +0.000 A 
ATOM     13  C   UNL     1      -0.309  11.677  20.080  0.00  0.00    +0.000 A 
ATOM     14  C   UNL     1      -0.456  12.630  21.185  0.00  0.00    +0.000 C 
ATOM     15  O   UNL     1       0.464  13.015  21.881  0.00  0.00    +0.000 OA
BRANCH   5  16
ATOM     16  C   UNL     1      -2.353  13.925  22.166  0.00  0.00    +0.000 C 
BRANCH  16  17
ATOM     17  C   UNL     1      -2.434  13.392  23.601  0.00  0.00    +0.000 C 
BRANCH  17  19
ATOM     18  C   UNL     1      -4.890  13.048  23.185  0.00  0.00    +0.000 C 
ATOM     19  C   UNL     1      -3.639  12.480  23.840  0.00  0.00    +0.000 C 
ENDBRANCH  17  19
ENDBRANCH  16  17
ENDBRANCH   5  16
ENDBRANCH   1  11
BRANCH   3  20
ATOM     20  C   UNL     1       2.867   7.055  18.184  0.00  0.00    +0.000 A 
ATOM     21  C   UNL     1       3.877   7.375  17.281  0.00  0.00    +0.000 A 
ATOM     22  C   UNL     1       4.774   6.403  16.835  0.00  0.00    +0.000 A 
ATOM     23  C   UNL     1       4.697   5.074  17.279  0.00  0.00    +0.000 A 
ATOM     24  C   UNL     1       5.619   4.088  16.619  0.00  0.00    +0.000 C 
ATOM     25  C   UNL     1       3.759   4.775  18.284  0.00  0.00    +0.000 A 
ATOM     26  C   UNL     1       2.849   5.768  18.726  0.00  0.00    +0.000 A 
BRANCH  25  27
ATOM     27  S   UNL     1       3.530   3.131  18.976  0.00  0.00    +0.000 S 
ATOM     28  O   UNL     1       3.113   2.273  17.883  0.00  0.00    +0.000 OA
ATOM     29  O   UNL     1       4.686   2.780  19.770  0.00  0.00    +0.000 OA
BRANCH  27  30
ATOM     30  N   UNL     1       2.197   3.307  20.015  0.00  0.00    +0.000 NA
ATOM     31  C   UNL     1       0.883   2.854  19.540  0.00  0.00    +0.000 C 
ATOM     32  C   UNL     1       2.416   3.051  21.447  0.00  0.00    +0.000 C 
ENDBRANCH  27  30
ENDBRANCH  25  27
ENDBRANCH   3  20
TORSDOF 7
ENDMDL
