MODEL 1
REMARK VINA RESULT:      -8.4      0.000      0.000
REMARK  Name = 
REMARK  6 active torsions:
REMARK  status: ('A' for Active; 'I' for Inactive)
REMARK    1  A    between atoms: C_1  and  C_2
REMARK    2  A    between atoms: C_4  and  C_5
REMARK    3  A    between atoms: N_9  and  C_10
REMARK    4  A    between atoms: C_10  and  C_11
REMARK    5  A    between atoms: C_14  and  C_15
REMARK    6  A    between atoms: C_15  and  C_16
REMARK                            x       y       z     vdW  Elec       q    Type
REMARK                         _______ _______ _______ _____ _____    ______ ____
ROOT
ATOM      1  C   UNL     1       5.033   4.229  18.388  0.00  0.00    +0.000 C 
ATOM      2  C   UNL     1       4.075   3.066  18.086  0.00  0.00    +0.000 C 
ATOM      3  C   UNL     1       2.698   3.536  17.624  0.00  0.00    +0.000 C 
ATOM      4  C   UNL     1       2.111   4.564  18.587  0.00  0.00    +0.000 C 
ATOM      5  N   UNL     1       2.985   5.740  18.691  0.00  0.00    +0.000 NA
ATOM      6  C   UNL     1       4.341   5.374  19.156  0.00  0.00    +0.000 C 
ENDROOT
BRANCH   1  10
ATOM      7  C   UNL     1       7.218   4.883  13.775  0.00  0.00    +0.000 C 
ATOM      8  C   UNL     1       6.741   4.907  15.172  0.00  0.00    +0.000 A 
ATOM      9  C   UNL     1       5.737   4.226  15.831  0.00  0.00    +0.000 A 
ATOM     10  C   UNL     1       5.819   4.654  17.178  0.00  0.00    +0.000 A 
ATOM     11  N   UNL     1       6.781   5.574  17.336  0.00  0.00    +0.000 NA
ATOM     12  N   UNL     1       7.321   5.704  16.118  0.00  0.00    +0.000 N 
ATOM     13  H   UNL     1       8.096   6.348  16.004  0.00  0.00    +0.000 HD
ENDBRANCH   1  10
BRANCH   5  14
ATOM     14  C   UNL     1       2.376   6.783  19.561  0.00  0.00    +0.000 C 
BRANCH  14  15
ATOM     15  C   UNL     1       2.120   8.109  18.913  0.00  0.00    +0.000 A 
ATOM     16  N   UNL     1       2.545   8.579  17.758  0.00  0.00    +0.000 NA
ATOM     17  N   UNL     1       1.920   9.797  17.579  0.00  0.00    +0.000 NA
ATOM     18  C   UNL     1       1.154   9.982  18.635  0.00  0.00    +0.000 A 
ATOM     19  O   UNL     1       1.258   8.966  19.550  0.00  0.00    +0.000 OA
BRANCH  18  20
ATOM     20  C   UNL     1       0.254  11.114  18.969  0.00  0.00    +0.000 C 
BRANCH  20  21
ATOM     21  C   UNL     1      -1.157  10.937  18.449  0.00  0.00    +0.000 A 
ATOM     22  C   UNL     1      -2.198  11.755  18.916  0.00  0.00    +0.000 A 
ATOM     23  C   UNL     1      -3.498  11.594  18.431  0.00  0.00    +0.000 A 
ATOM     24  C   UNL     1      -3.773  10.610  17.483  0.00  0.00    +0.000 A 
ATOM     25  C   UNL     1      -2.750   9.787  17.018  0.00  0.00    +0.000 A 
ATOM     26  C   UNL     1      -1.451   9.942  17.503  0.00  0.00    +0.000 A 
ENDBRANCH  20  21
ENDBRANCH  18  20
ENDBRANCH  14  15
ENDBRANCH   5  14
TORSDOF 5
ENDMDL
MODEL 2
REMARK VINA RESULT:      -8.4      2.893      4.178
REMARK  Name = 
REMARK  6 active torsions:
REMARK  status: ('A' for Active; 'I' for Inactive)
REMARK    1  A    between atoms: C_1  and  C_2
REMARK    2  A    between atoms: C_4  and  C_5
REMARK    3  A    between atoms: N_9  and  C_10
REMARK    4  A    between atoms: C_10  and  C_11
REMARK    5  A    between atoms: C_14  and  C_15
REMARK    6  A    between atoms: C_15  and  C_16
REMARK                            x       y       z     vdW  Elec       q    Type
REMARK                         _______ _______ _______ _____ _____    ______ ____
ROOT
ATOM      1  C   UNL     1       5.449   5.960  16.559  0.00  0.00    +0.000 C 
ATOM      2  C   UNL     1       6.533   6.725  17.332  0.00  0.00    +0.000 C 
ATOM      3  C   UNL     1       7.288   5.845  18.324  0.00  0.00    +0.000 C 
ATOM      4  C   UNL     1       6.327   5.083  19.232  0.00  0.00    +0.000 C 
ATOM      5  N   UNL     1       5.435   4.223  18.443  0.00  0.00    +0.000 NA
ATOM      6  C   UNL     1       4.647   5.004  17.466  0.00  0.00    +0.000 C 
ENDROOT
BRANCH   1  10
ATOM      7  C   UNL     1       6.360   3.285  12.258  0.00  0.00    +0.000 C 
ATOM      8  C   UNL     1       6.333   4.173  13.436  0.00  0.00    +0.000 A 
ATOM      9  C   UNL     1       5.366   4.444  14.384  0.00  0.00    +0.000 A 
ATOM     10  C   UNL     1       5.974   5.347  15.289  0.00  0.00    +0.000 A 
ATOM     11  N   UNL     1       7.221   5.652  14.904  0.00  0.00    +0.000 NA
ATOM     12  N   UNL     1       7.413   4.931  13.792  0.00  0.00    +0.000 N 
ATOM     13  H   UNL     1       8.313   4.993  13.332  0.00  0.00    +0.000 HD
ENDBRANCH   1  10
BRANCH   5  14
ATOM     14  C   UNL     1       4.554   3.412  19.327  0.00  0.00    +0.000 C 
BRANCH  14  15
ATOM     15  C   UNL     1       3.244   4.036  19.697  0.00  0.00    +0.000 A 
ATOM     16  N   UNL     1       2.047   3.492  19.790  0.00  0.00    +0.000 NA
ATOM     17  N   UNL     1       1.211   4.472  20.288  0.00  0.00    +0.000 NA
ATOM     18  C   UNL     1       1.957   5.542  20.468  0.00  0.00    +0.000 A 
ATOM     19  O   UNL     1       3.258   5.355  20.077  0.00  0.00    +0.000 OA
BRANCH  18  20
ATOM     20  C   UNL     1       1.586   6.882  20.987  0.00  0.00    +0.000 C 
BRANCH  20  21
ATOM     21  C   UNL     1       1.614   7.967  19.931  0.00  0.00    +0.000 A 
ATOM     22  C   UNL     1       2.303   7.774  18.725  0.00  0.00    +0.000 A 
ATOM     23  C   UNL     1       2.322   8.775  17.751  0.00  0.00    +0.000 A 
ATOM     24  C   UNL     1       1.662   9.982  17.976  0.00  0.00    +0.000 A 
ATOM     25  C   UNL     1       0.980  10.189  19.173  0.00  0.00    +0.000 A 
ATOM     26  C   UNL     1       0.962   9.192  20.150  0.00  0.00    +0.000 A 
ENDBRANCH  20  21
ENDBRANCH  18  20
ENDBRANCH  14  15
ENDBRANCH   5  14
TORSDOF 5
ENDMDL
MODEL 3
REMARK VINA RESULT:      -8.3      0.796      1.310
REMARK  Name = 
REMARK  6 active torsions:
REMARK  status: ('A' for Active; 'I' for Inactive)
REMARK    1  A    between atoms: C_1  and  C_2
REMARK    2  A    between atoms: C_4  and  C_5
REMARK    3  A    between atoms: N_9  and  C_10
REMARK    4  A    between atoms: C_10  and  C_11
REMARK    5  A    between atoms: C_14  and  C_15
REMARK    6  A    between atoms: C_15  and  C_16
REMARK                            x       y       z     vdW  Elec       q    Type
REMARK                         _______ _______ _______ _____ _____    ______ ____
ROOT
ATOM      1  C   UNL     1       4.360   3.904  19.273  0.00  0.00    +0.000 C 
ATOM      2  C   UNL     1       3.268   2.835  19.115  0.00  0.00    +0.000 C 
ATOM      3  C   UNL     1       1.965   3.396  18.553  0.00  0.00    +0.000 C 
ATOM      4  C   UNL     1       1.501   4.617  19.342  0.00  0.00    +0.000 C 
ATOM      5  N   UNL     1       2.514   5.681  19.300  0.00  0.00    +0.000 NA
ATOM      6  C   UNL     1       3.809   5.224  19.849  0.00  0.00    +0.000 C 
ENDROOT
BRANCH   1  10
ATOM      7  C   UNL     1       6.376   4.075  14.540  0.00  0.00    +0.000 C 
ATOM      8  C   UNL     1       6.040   4.113  15.977  0.00  0.00    +0.000 A 
ATOM      9  C   UNL     1       4.854   3.958  16.667  0.00  0.00    +0.000 A 
ATOM     10  C   UNL     1       5.204   4.050  18.036  0.00  0.00    +0.000 A 
ATOM     11  N   UNL     1       6.515   4.290  18.185  0.00  0.00    +0.000 NA
ATOM     12  N   UNL     1       6.993   4.318  16.935  0.00  0.00    +0.000 N 
ATOM     13  H   UNL     1       7.987   4.471  16.807  0.00  0.00    +0.000 HD
ENDBRANCH   1  10
BRANCH   5  14
ATOM     14  C   UNL     1       2.030   6.906  19.994  0.00  0.00    +0.000 C 
BRANCH  14  15
ATOM     15  C   UNL     1       1.931   8.141  19.151  0.00  0.00    +0.000 A 
ATOM     16  N   UNL     1       2.481   8.412  17.985  0.00  0.00    +0.000 NA
ATOM     17  N   UNL     1       1.969   9.631  17.588  0.00  0.00    +0.000 NA
ATOM     18  C   UNL     1       1.140  10.015  18.536  0.00  0.00    +0.000 A 
ATOM     19  O   UNL     1       1.091   9.135  19.587  0.00  0.00    +0.000 OA
BRANCH  18  20
ATOM     20  C   UNL     1       0.309  11.240  18.632  0.00  0.00    +0.000 C 
BRANCH  20  21
ATOM     21  C   UNL     1      -1.150  11.009  18.297  0.00  0.00    +0.000 A 
ATOM     22  C   UNL     1      -1.529   9.971  17.432  0.00  0.00    +0.000 A 
ATOM     23  C   UNL     1      -2.875   9.756  17.130  0.00  0.00    +0.000 A 
ATOM     24  C   UNL     1      -3.855  10.581  17.679  0.00  0.00    +0.000 A 
ATOM     25  C   UNL     1      -3.491  11.620  18.533  0.00  0.00    +0.000 A 
ATOM     26  C   UNL     1      -2.146  11.840  18.835  0.00  0.00    +0.000 A 
ENDBRANCH  20  21
ENDBRANCH  18  20
ENDBRANCH  14  15
ENDBRANCH   5  14
TORSDOF 5
ENDMDL
MODEL 4
REMARK VINA RESULT:      -8.1      2.566      3.850
REMARK  Name = 
REMARK  6 active torsions:
REMARK  status: ('A' for Active; 'I' for Inactive)
REMARK    1  A    between atoms: C_1  and  C_2
REMARK    2  A    between atoms: C_4  and  C_5
REMARK    3  A    between atoms: N_9  and  C_10
REMARK    4  A    between atoms: C_10  and  C_11
REMARK    5  A    between atoms: C_14  and  C_15
REMARK    6  A    between atoms: C_15  and  C_16
REMARK                            x       y       z     vdW  Elec       q    Type
REMARK                         _______ _______ _______ _____ _____    ______ ____
ROOT
ATOM      1  C   UNL     1       5.668   6.021  16.431  0.00  0.00    +0.000 C 
ATOM      2  C   UNL     1       6.849   6.695  17.144  0.00  0.00    +0.000 C 
ATOM      3  C   UNL     1       7.537   5.777  18.151  0.00  0.00    +0.000 C 
ATOM      4  C   UNL     1       6.529   5.155  19.113  0.00  0.00    +0.000 C 
ATOM      5  N   UNL     1       5.528   4.366  18.382  0.00  0.00    +0.000 NA
ATOM      6  C   UNL     1       4.797   5.190  17.395  0.00  0.00    +0.000 C 
ENDROOT
BRANCH   1  10
ATOM      7  C   UNL     1       6.201   3.050  12.262  0.00  0.00    +0.000 C 
ATOM      8  C   UNL     1       6.283   4.010  13.381  0.00  0.00    +0.000 A 
ATOM      9  C   UNL     1       5.389   4.380  14.366  0.00  0.00    +0.000 A 
ATOM     10  C   UNL     1       6.087   5.309  15.174  0.00  0.00    +0.000 A 
ATOM     11  N   UNL     1       7.320   5.534  14.696  0.00  0.00    +0.000 NA
ATOM     12  N   UNL     1       7.412   4.739  13.623  0.00  0.00    +0.000 N 
ATOM     13  H   UNL     1       8.284   4.734  13.106  0.00  0.00    +0.000 HD
ENDBRANCH   1  10
BRANCH   5  14
ATOM     14  C   UNL     1       4.594   3.686  19.321  0.00  0.00    +0.000 C 
BRANCH  14  15
ATOM     15  C   UNL     1       3.300   4.392  19.584  0.00  0.00    +0.000 A 
ATOM     16  N   UNL     1       2.062   3.989  19.379  0.00  0.00    +0.000 NA
ATOM     17  N   UNL     1       1.242   4.965  19.908  0.00  0.00    +0.000 NA
ATOM     18  C   UNL     1       2.036   5.892  20.403  0.00  0.00    +0.000 A 
ATOM     19  O   UNL     1       3.364   5.617  20.199  0.00  0.00    +0.000 OA
BRANCH  18  20
ATOM     20  C   UNL     1       1.698   7.160  21.094  0.00  0.00    +0.000 C 
BRANCH  20  21
ATOM     21  C   UNL     1       1.364   8.295  20.148  0.00  0.00    +0.000 A 
ATOM     22  C   UNL     1       0.415   9.265  20.503  0.00  0.00    +0.000 A 
ATOM     23  C   UNL     1       0.113  10.313  19.631  0.00  0.00    +0.000 A 
ATOM     24  C   UNL     1       0.747  10.397  18.393  0.00  0.00    +0.000 A 
ATOM     25  C   UNL     1       1.685   9.435  18.025  0.00  0.00    +0.000 A 
ATOM     26  C   UNL     1       1.987   8.384  18.893  0.00  0.00    +0.000 A 
ENDBRANCH  20  21
ENDBRANCH  18  20
ENDBRANCH  14  15
ENDBRANCH   5  14
TORSDOF 5
ENDMDL
MODEL 5
REMARK VINA RESULT:      -8.0      4.822      8.259
REMARK  Name = 
REMARK  6 active torsions:
REMARK  status: ('A' for Active; 'I' for Inactive)
REMARK    1  A    between atoms: C_1  and  C_2
REMARK    2  A    between atoms: C_4  and  C_5
REMARK    3  A    between atoms: N_9  and  C_10
REMARK    4  A    between atoms: C_10  and  C_11
REMARK    5  A    between atoms: C_14  and  C_15
REMARK    6  A    between atoms: C_15  and  C_16
REMARK                            x       y       z     vdW  Elec       q    Type
REMARK                         _______ _______ _______ _____ _____    ______ ____
ROOT
ATOM      1  C   UNL     1       2.652   5.876  17.728  0.00  0.00    +0.000 C 
ATOM      2  C   UNL     1       2.377   4.365  17.733  0.00  0.00    +0.000 C 
ATOM      3  C   UNL     1       3.559   3.548  18.246  0.00  0.00    +0.000 C 
ATOM      4  C   UNL     1       4.849   3.922  17.520  0.00  0.00    +0.000 C 
ATOM      5  N   UNL     1       5.159   5.346  17.708  0.00  0.00    +0.000 NA
ATOM      6  C   UNL     1       4.067   6.213  17.215  0.00  0.00    +0.000 C 
ENDROOT
BRANCH   1  10
ATOM      7  C   UNL     1       1.421   9.022  21.611  0.00  0.00    +0.000 C 
ATOM      8  C   UNL     1       1.740   7.923  20.678  0.00  0.00    +0.000 A 
ATOM      9  C   UNL     1       1.944   7.881  19.313  0.00  0.00    +0.000 A 
ATOM     10  C   UNL     1       2.269   6.534  19.025  0.00  0.00    +0.000 A 
ATOM     11  N   UNL     1       2.227   5.779  20.133  0.00  0.00    +0.000 NA
ATOM     12  N   UNL     1       1.911   6.638  21.110  0.00  0.00    +0.000 N 
ATOM     13  H   UNL     1       1.842   6.281  22.056  0.00  0.00    +0.000 HD
ENDBRANCH   1  10
BRANCH   5  14
ATOM     14  C   UNL     1       6.460   5.697  17.076  0.00  0.00    +0.000 C 
BRANCH  14  15
ATOM     15  C   UNL     1       7.246   6.779  17.750  0.00  0.00    +0.000 A 
ATOM     16  N   UNL     1       8.103   6.702  18.748  0.00  0.00    +0.000 NA
ATOM     17  N   UNL     1       8.638   7.966  18.901  0.00  0.00    +0.000 NA
ATOM     18  C   UNL     1       8.073   8.723  17.983  0.00  0.00    +0.000 A 
ATOM     19  O   UNL     1       7.144   8.047  17.235  0.00  0.00    +0.000 OA
BRANCH  18  20
ATOM     20  C   UNL     1       8.276  10.162  17.683  0.00  0.00    +0.000 C 
BRANCH  20  21
ATOM     21  C   UNL     1       9.404  10.791  18.474  0.00  0.00    +0.000 A 
ATOM     22  C   UNL     1      10.564  11.244  17.827  0.00  0.00    +0.000 A 
ATOM     23  C   UNL     1      11.601  11.829  18.558  0.00  0.00    +0.000 A 
ATOM     24  C   UNL     1      11.494  11.959  19.941  0.00  0.00    +0.000 A 
ATOM     25  C   UNL     1      10.351  11.506  20.596  0.00  0.00    +0.000 A 
ATOM     26  C   UNL     1       9.314  10.918  19.869  0.00  0.00    +0.000 A 
ENDBRANCH  20  21
ENDBRANCH  18  20
ENDBRANCH  14  15
ENDBRANCH   5  14
TORSDOF 5
ENDMDL
MODEL 6
REMARK VINA RESULT:      -7.9      5.242      8.016
REMARK  Name = 
REMARK  6 active torsions:
REMARK  status: ('A' for Active; 'I' for Inactive)
REMARK    1  A    between atoms: C_1  and  C_2
REMARK    2  A    between atoms: C_4  and  C_5
REMARK    3  A    between atoms: N_9  and  C_10
REMARK    4  A    between atoms: C_10  and  C_11
REMARK    5  A    between atoms: C_14  and  C_15
REMARK    6  A    between atoms: C_15  and  C_16
REMARK                            x       y       z     vdW  Elec       q    Type
REMARK                         _______ _______ _______ _____ _____    ______ ____
ROOT
ATOM      1  C   UNL     1       4.366   5.473  17.085  0.00  0.00    +0.000 C 
ATOM      2  C   UNL     1       4.774   4.895  15.721  0.00  0.00    +0.000 C 
ATOM      3  C   UNL     1       6.039   4.045  15.791  0.00  0.00    +0.000 C 
ATOM      4  C   UNL     1       7.171   4.793  16.491  0.00  0.00    +0.000 C 
ATOM      5  N   UNL     1       6.788   5.157  17.861  0.00  0.00    +0.000 NA
ATOM      6  C   UNL     1       5.575   6.004  17.882  0.00  0.00    +0.000 C 
ENDROOT
BRANCH   1  10
ATOM      7  C   UNL     1       0.632   2.390  18.828  0.00  0.00    +0.000 C 
ATOM      8  C   UNL     1       1.820   3.227  18.566  0.00  0.00    +0.000 A 
ATOM      9  C   UNL     1       2.283   3.869  17.435  0.00  0.00    +0.000 A 
ATOM     10  C   UNL     1       3.451   4.555  17.847  0.00  0.00    +0.000 A 
ATOM     11  N   UNL     1       3.719   4.318  19.139  0.00  0.00    +0.000 NA
ATOM     12  N   UNL     1       2.723   3.522  19.547  0.00  0.00    +0.000 N 
ATOM     13  H   UNL     1       2.714   3.227  20.517  0.00  0.00    +0.000 HD
ENDBRANCH   1  10
BRANCH   5  14
ATOM     14  C   UNL     1       7.918   5.809  18.576  0.00  0.00    +0.000 C 
BRANCH  14  15
ATOM     15  C   UNL     1       8.112   7.269  18.303  0.00  0.00    +0.000 A 
ATOM     16  N   UNL     1       7.662   8.009  17.310  0.00  0.00    +0.000 NA
ATOM     17  N   UNL     1       8.021   9.310  17.599  0.00  0.00    +0.000 NA
ATOM     18  C   UNL     1       8.661   9.274  18.749  0.00  0.00    +0.000 A 
ATOM     19  O   UNL     1       8.794   8.002  19.243  0.00  0.00    +0.000 OA
BRANCH  18  20
ATOM     20  C   UNL     1       9.262  10.379  19.536  0.00  0.00    +0.000 C 
BRANCH  20  21
ATOM     21  C   UNL     1       9.792  11.511  18.682  0.00  0.00    +0.000 A 
ATOM     22  C   UNL     1       9.058  12.698  18.532  0.00  0.00    +0.000 A 
ATOM     23  C   UNL     1       9.552  13.743  17.748  0.00  0.00    +0.000 A 
ATOM     24  C   UNL     1      10.777  13.610  17.098  0.00  0.00    +0.000 A 
ATOM     25  C   UNL     1      11.512  12.434  17.232  0.00  0.00    +0.000 A 
ATOM     26  C   UNL     1      11.020  11.386  18.012  0.00  0.00    +0.000 A 
ENDBRANCH  20  21
ENDBRANCH  18  20
ENDBRANCH  14  15
ENDBRANCH   5  14
TORSDOF 5
ENDMDL
MODEL 7
REMARK VINA RESULT:      -7.8      2.413      8.430
REMARK  Name = 
REMARK  6 active torsions:
REMARK  status: ('A' for Active; 'I' for Inactive)
REMARK    1  A    between atoms: C_1  and  C_2
REMARK    2  A    between atoms: C_4  and  C_5
REMARK    3  A    between atoms: N_9  and  C_10
REMARK    4  A    between atoms: C_10  and  C_11
REMARK    5  A    between atoms: C_14  and  C_15
REMARK    6  A    between atoms: C_15  and  C_16
REMARK                            x       y       z     vdW  Elec       q    Type
REMARK                         _______ _______ _______ _____ _____    ______ ____
ROOT
ATOM      1  C   UNL     1      -1.813  11.373  19.100  0.00  0.00    +0.000 C 
ATOM      2  C   UNL     1      -1.110  12.736  19.184  0.00  0.00    +0.000 C 
ATOM      3  C   UNL     1       0.348  12.682  18.735  0.00  0.00    +0.000 C 
ATOM      4  C   UNL     1       1.107  11.568  19.452  0.00  0.00    +0.000 C 
ATOM      5  N   UNL     1       0.495  10.261  19.180  0.00  0.00    +0.000 NA
ATOM      6  C   UNL     1      -0.921  10.221  19.608  0.00  0.00    +0.000 C 
ENDROOT
BRANCH   1  10
ATOM      7  C   UNL     1      -3.122  10.055  14.301  0.00  0.00    +0.000 C 
ATOM      8  C   UNL     1      -2.988  10.551  15.684  0.00  0.00    +0.000 A 
ATOM      9  C   UNL     1      -2.052  10.327  16.675  0.00  0.00    +0.000 A 
ATOM     10  C   UNL     1      -2.456  11.140  17.761  0.00  0.00    +0.000 A 
ATOM     11  N   UNL     1      -3.593  11.793  17.479  0.00  0.00    +0.000 NA
ATOM     12  N   UNL     1      -3.888  11.425  16.226  0.00  0.00    +0.000 N 
ATOM     13  H   UNL     1      -4.715  11.821  15.794  0.00  0.00    +0.000 HD
ENDBRANCH   1  10
BRANCH   5  14
ATOM     14  C   UNL     1       1.282   9.163  19.805  0.00  0.00    +0.000 C 
BRANCH  14  15
ATOM     15  C   UNL     1       2.090   8.319  18.866  0.00  0.00    +0.000 A 
ATOM     16  N   UNL     1       2.813   8.674  17.824  0.00  0.00    +0.000 NA
ATOM     17  N   UNL     1       3.451   7.531  17.385  0.00  0.00    +0.000 NA
ATOM     18  C   UNL     1       3.077   6.562  18.193  0.00  0.00    +0.000 A 
ATOM     19  O   UNL     1       2.177   6.977  19.141  0.00  0.00    +0.000 OA
BRANCH  18  20
ATOM     20  C   UNL     1       3.457   5.127  18.195  0.00  0.00    +0.000 C 
BRANCH  20  21
ATOM     21  C   UNL     1       2.647   4.288  19.161  0.00  0.00    +0.000 A 
ATOM     22  C   UNL     1       1.461   3.665  18.745  0.00  0.00    +0.000 A 
ATOM     23  C   UNL     1       0.718   2.887  19.636  0.00  0.00    +0.000 A 
ATOM     24  C   UNL     1       1.148   2.732  20.953  0.00  0.00    +0.000 A 
ATOM     25  C   UNL     1       2.319   3.352  21.381  0.00  0.00    +0.000 A 
ATOM     26  C   UNL     1       3.062   4.133  20.494  0.00  0.00    +0.000 A 
ENDBRANCH  20  21
ENDBRANCH  18  20
ENDBRANCH  14  15
ENDBRANCH   5  14
TORSDOF 5
ENDMDL
MODEL 8
REMARK VINA RESULT:      -7.7      1.353      1.688
REMARK  Name = 
REMARK  6 active torsions:
REMARK  status: ('A' for Active; 'I' for Inactive)
REMARK    1  A    between atoms: C_1  and  C_2
REMARK    2  A    between atoms: C_4  and  C_5
REMARK    3  A    between atoms: N_9  and  C_10
REMARK    4  A    between atoms: C_10  and  C_11
REMARK    5  A    between atoms: C_14  and  C_15
REMARK    6  A    between atoms: C_15  and  C_16
REMARK                            x       y       z     vdW  Elec       q    Type
REMARK                         _______ _______ _______ _____ _____    ______ ____
ROOT
ATOM      1  C   UNL     1       4.368   3.779  17.749  0.00  0.00    +0.000 C 
ATOM      2  C   UNL     1       3.050   3.071  17.402  0.00  0.00    +0.000 C 
ATOM      3  C   UNL     1       1.842   4.001  17.463  0.00  0.00    +0.000 C 
ATOM      4  C   UNL     1       1.789   4.755  18.789  0.00  0.00    +0.000 C 
ATOM      5  N   UNL     1       3.000   5.564  18.978  0.00  0.00    +0.000 NA
ATOM      6  C   UNL     1       4.222   4.731  18.954  0.00  0.00    +0.000 C 
ENDROOT
BRANCH   1  10
ATOM      7  C   UNL     1       7.105   4.869  13.529  0.00  0.00    +0.000 C 
ATOM      8  C   UNL     1       6.230   4.809  14.717  0.00  0.00    +0.000 A 
ATOM      9  C   UNL     1       5.841   3.774  15.544  0.00  0.00    +0.000 A 
ATOM     10  C   UNL     1       5.035   4.375  16.540  0.00  0.00    +0.000 A 
ATOM     11  N   UNL     1       4.896   5.691  16.320  0.00  0.00    +0.000 NA
ATOM     12  N   UNL     1       5.626   5.925  15.224  0.00  0.00    +0.000 N 
ATOM     13  H   UNL     1       5.681   6.877  14.880  0.00  0.00    +0.000 HD
ENDBRANCH   1  10
BRANCH   5  14
ATOM     14  C   UNL     1       2.916   6.368  20.228  0.00  0.00    +0.000 C 
BRANCH  14  15
ATOM     15  C   UNL     1       1.929   7.495  20.216  0.00  0.00    +0.000 A 
ATOM     16  N   UNL     1       1.118   7.916  21.166  0.00  0.00    +0.000 NA
ATOM     17  N   UNL     1       0.515   9.061  20.684  0.00  0.00    +0.000 NA
ATOM     18  C   UNL     1       1.003   9.260  19.477  0.00  0.00    +0.000 A 
ATOM     19  O   UNL     1       1.883   8.281  19.092  0.00  0.00    +0.000 OA
BRANCH  18  20
ATOM     20  C   UNL     1       0.715  10.342  18.503  0.00  0.00    +0.000 C 
BRANCH  20  21
ATOM     21  C   UNL     1      -0.764  10.561  18.263  0.00  0.00    +0.000 A 
ATOM     22  C   UNL     1      -1.460   9.777  17.332  0.00  0.00    +0.000 A 
ATOM     23  C   UNL     1      -2.826   9.978  17.116  0.00  0.00    +0.000 A 
ATOM     24  C   UNL     1      -3.506  10.970  17.820  0.00  0.00    +0.000 A 
ATOM     25  C   UNL     1      -2.824  11.761  18.742  0.00  0.00    +0.000 A 
ATOM     26  C   UNL     1      -1.458  11.565  18.957  0.00  0.00    +0.000 A 
ENDBRANCH  20  21
ENDBRANCH  18  20
ENDBRANCH  14  15
ENDBRANCH   5  14
TORSDOF 5
ENDMDL
MODEL 9
REMARK VINA RESULT:      -7.7      5.151      8.062
REMARK  Name = 
REMARK  6 active torsions:
REMARK  status: ('A' for Active; 'I' for Inactive)
REMARK    1  A    between atoms: C_1  and  C_2
REMARK    2  A    between atoms: C_4  and  C_5
REMARK    3  A    between atoms: N_9  and  C_10
REMARK    4  A    between atoms: C_10  and  C_11
REMARK    5  A    between atoms: C_14  and  C_15
REMARK    6  A    between atoms: C_15  and  C_16
REMARK                            x       y       z     vdW  Elec       q    Type
REMARK                         _______ _______ _______ _____ _____    ______ ____
ROOT
ATOM      1  C   UNL     1       3.460   5.816  17.655  0.00  0.00    +0.000 C 
ATOM      2  C   UNL     1       3.232   4.440  18.299  0.00  0.00    +0.000 C 
ATOM      3  C   UNL     1       4.245   4.122  19.395  0.00  0.00    +0.000 C 
ATOM      4  C   UNL     1       5.676   4.326  18.903  0.00  0.00    +0.000 C 
ATOM      5  N   UNL     1       5.886   5.714  18.472  0.00  0.00    +0.000 NA
ATOM      6  C   UNL     1       4.953   6.099  17.392  0.00  0.00    +0.000 C 
ENDROOT
BRANCH   1  10
ATOM      7  C   UNL     1       1.034  10.093  19.174  0.00  0.00    +0.000 C 
ATOM      8  C   UNL     1       1.674   8.776  18.986  0.00  0.00    +0.000 A 
ATOM      9  C   UNL     1       2.198   8.138  17.880  0.00  0.00    +0.000 A 
ATOM     10  C   UNL     1       2.717   6.913  18.366  0.00  0.00    +0.000 A 
ATOM     11  N   UNL     1       2.490   6.780  19.680  0.00  0.00    +0.000 NA
ATOM     12  N   UNL     1       1.867   7.913  20.028  0.00  0.00    +0.000 N 
ATOM     13  H   UNL     1       1.612   8.039  21.001  0.00  0.00    +0.000 HD
ENDBRANCH   1  10
BRANCH   5  14
ATOM     14  C   UNL     1       7.303   5.940  18.074  0.00  0.00    +0.000 C 
BRANCH  14  15
ATOM     15  C   UNL     1       7.726   7.371  17.943  0.00  0.00    +0.000 A 
ATOM     16  N   UNL     1       7.371   8.278  17.056  0.00  0.00    +0.000 NA
ATOM     17  N   UNL     1       7.950   9.465  17.459  0.00  0.00    +0.000 NA
ATOM     18  C   UNL     1       8.614   9.200  18.565  0.00  0.00    +0.000 A 
ATOM     19  O   UNL     1       8.552   7.876  18.917  0.00  0.00    +0.000 OA
BRANCH  18  20
ATOM     20  C   UNL     1       9.416  10.099  19.430  0.00  0.00    +0.000 C 
BRANCH  20  21
ATOM     21  C   UNL     1       9.809  11.396  18.754  0.00  0.00    +0.000 A 
ATOM     22  C   UNL     1       9.047  12.560  18.941  0.00  0.00    +0.000 A 
ATOM     23  C   UNL     1       9.414  13.756  18.321  0.00  0.00    +0.000 A 
ATOM     24  C   UNL     1      10.540  13.800  17.500  0.00  0.00    +0.000 A 
ATOM     25  C   UNL     1      11.300  12.650  17.299  0.00  0.00    +0.000 A 
ATOM     26  C   UNL     1      10.933  11.452  17.914  0.00  0.00    +0.000 A 
ENDBRANCH  20  21
ENDBRANCH  18  20
ENDBRANCH  14  15
ENDBRANCH   5  14
TORSDOF 5
ENDMDL
