MODEL 1
REMARK VINA RESULT:      -7.4      0.000      0.000
REMARK  Name = 
REMARK  8 active torsions:
REMARK  status: ('A' for Active; 'I' for Inactive)
REMARK    1  A    between atoms: C_1  and  C_2
REMARK    2  A    between atoms: C_6  and  C_7
REMARK    3  A    between atoms: N_8  and  N_9
REMARK    4  A    between atoms: C_10  and  C_12
REMARK    5  A    between atoms: C_14  and  C_15
REMARK    6  A    between atoms: C_15  and  C_16
REMARK    7  A    between atoms: C_15  and  C_17
REMARK    8  A    between atoms: C_15  and  C_18
REMARK                            x       y       z     vdW  Elec       q    Type
REMARK                         _______ _______ _______ _____ _____    ______ ____
ROOT
ATOM      1  N   UNL     1       6.122   5.093  17.772  0.00  0.00    +0.000 N 
ATOM      2  C   UNL     1       7.256   4.575  17.164  0.00  0.00    +0.000 C 
ATOM      3  O   UNL     1       8.248   4.127  17.732  0.00  0.00    +0.000 OA
ATOM      4  H   UNL     1       5.359   5.330  17.138  0.00  0.00    +0.000 HD
ENDROOT
BRANCH   2   5
ATOM      5  C   UNL     1       7.112   4.593  15.689  0.00  0.00    +0.000 A 
ATOM      6  C   UNL     1       6.407   3.685  14.855  0.00  0.00    +0.000 A 
ATOM      7  C   UNL     1       6.602   4.119  13.554  0.00  0.00    +0.000 A 
ATOM      8  N   UNL     1       7.352   5.258  13.681  0.00  0.00    +0.000 N 
ATOM      9  N   UNL     1       7.679   5.568  14.943  0.00  0.00    +0.000 NA
ATOM     10  H   UNL     1       7.686   5.869  12.946  0.00  0.00    +0.000 HD
BRANCH   7  11
ATOM     11  C   UNL     1       6.134   3.593  12.209  0.00  0.00    +0.000 C 
ATOM     12  C   UNL     1       6.799   4.396  11.077  0.00  0.00    +0.000 C 
ATOM     13  C   UNL     1       6.495   2.102  12.032  0.00  0.00    +0.000 C 
ATOM     14  C   UNL     1       4.605   3.720  12.078  0.00  0.00    +0.000 C 
ENDBRANCH   7  11
ENDBRANCH   2   5
BRANCH   1  16
ATOM     15  C   UNL     1       4.721   4.974  19.582  0.00  0.00    +0.000 C 
ATOM     16  N   UNL     1       5.930   5.174  19.121  0.00  0.00    +0.000 NA
BRANCH  15  22
ATOM     17  C   UNL     1       2.454   6.706  18.094  0.00  0.00    +0.000 C 
ATOM     18  C   UNL     1       2.525   5.219  18.254  0.00  0.00    +0.000 A 
ATOM     19  C   UNL     1       1.513   4.350  17.717  0.00  0.00    +0.000 A 
ATOM     20  C   UNL     1       1.736   3.026  17.998  0.00  0.00    +0.000 A 
ATOM     21  S   UNL     1       3.129   2.816  18.939  0.00  0.00    +0.000 S 
ATOM     22  C   UNL     1       3.527   4.489  18.895  0.00  0.00    +0.000 A 
ENDBRANCH  15  22
ENDBRANCH   1  16
TORSDOF 4
ENDMDL
MODEL 2
REMARK VINA RESULT:      -7.2      0.894      1.169
REMARK  Name = 
REMARK  8 active torsions:
REMARK  status: ('A' for Active; 'I' for Inactive)
REMARK    1  A    between atoms: C_1  and  C_2
REMARK    2  A    between atoms: C_6  and  C_7
REMARK    3  A    between atoms: N_8  and  N_9
REMARK    4  A    between atoms: C_10  and  C_12
REMARK    5  A    between atoms: C_14  and  C_15
REMARK    6  A    between atoms: C_15  and  C_16
REMARK    7  A    between atoms: C_15  and  C_17
REMARK    8  A    between atoms: C_15  and  C_18
REMARK                            x       y       z     vdW  Elec       q    Type
REMARK                         _______ _______ _______ _____ _____    ______ ____
ROOT
ATOM      1  N   UNL     1       5.454   5.642  17.684  0.00  0.00    +0.000 N 
ATOM      2  C   UNL     1       6.569   4.885  17.357  0.00  0.00    +0.000 C 
ATOM      3  O   UNL     1       7.336   4.339  18.145  0.00  0.00    +0.000 OA
ATOM      4  H   UNL     1       4.883   5.936  16.891  0.00  0.00    +0.000 HD
ENDROOT
BRANCH   2   5
ATOM      5  C   UNL     1       6.716   4.776  15.887  0.00  0.00    +0.000 A 
ATOM      6  C   UNL     1       5.987   3.958  14.981  0.00  0.00    +0.000 A 
ATOM      7  C   UNL     1       6.521   4.198  13.725  0.00  0.00    +0.000 A 
ATOM      8  N   UNL     1       7.479   5.154  13.936  0.00  0.00    +0.000 N 
ATOM      9  N   UNL     1       7.625   5.519  15.217  0.00  0.00    +0.000 NA
ATOM     10  H   UNL     1       8.079   5.596  13.251  0.00  0.00    +0.000 HD
BRANCH   7  11
ATOM     11  C   UNL     1       6.206   3.646  12.346  0.00  0.00    +0.000 C 
ATOM     12  C   UNL     1       7.001   4.422  11.281  0.00  0.00    +0.000 C 
ATOM     13  C   UNL     1       6.574   2.150  12.243  0.00  0.00    +0.000 C 
ATOM     14  C   UNL     1       4.702   3.777  12.040  0.00  0.00    +0.000 C 
ENDBRANCH   7  11
ENDBRANCH   2   5
BRANCH   1  16
ATOM     15  C   UNL     1       4.142   5.078  19.476  0.00  0.00    +0.000 C 
ATOM     16  N   UNL     1       5.026   5.890  18.955  0.00  0.00    +0.000 NA
BRANCH  15  22
ATOM     17  C   UNL     1       1.566   4.549  17.621  0.00  0.00    +0.000 C 
ATOM     18  C   UNL     1       2.522   3.544  18.184  0.00  0.00    +0.000 A 
ATOM     19  C   UNL     1       2.375   2.135  17.933  0.00  0.00    +0.000 A 
ATOM     20  C   UNL     1       3.326   1.374  18.564  0.00  0.00    +0.000 A 
ATOM     21  S   UNL     1       4.372   2.329  19.493  0.00  0.00    +0.000 S 
ATOM     22  C   UNL     1       3.640   3.799  18.979  0.00  0.00    +0.000 A 
ENDBRANCH  15  22
ENDBRANCH   1  16
TORSDOF 4
ENDMDL
MODEL 3
REMARK VINA RESULT:      -7.0      0.939      1.751
REMARK  Name = 
REMARK  8 active torsions:
REMARK  status: ('A' for Active; 'I' for Inactive)
REMARK    1  A    between atoms: C_1  and  C_2
REMARK    2  A    between atoms: C_6  and  C_7
REMARK    3  A    between atoms: N_8  and  N_9
REMARK    4  A    between atoms: C_10  and  C_12
REMARK    5  A    between atoms: C_14  and  C_15
REMARK    6  A    between atoms: C_15  and  C_16
REMARK    7  A    between atoms: C_15  and  C_17
REMARK    8  A    between atoms: C_15  and  C_18
REMARK                            x       y       z     vdW  Elec       q    Type
REMARK                         _______ _______ _______ _____ _____    ______ ____
ROOT
ATOM      1  N   UNL     1       6.148   5.205  17.766  0.00  0.00    +0.000 N 
ATOM      2  C   UNL     1       7.250   4.611  17.168  0.00  0.00    +0.000 C 
ATOM      3  O   UNL     1       8.212   4.113  17.744  0.00  0.00    +0.000 OA
ATOM      4  H   UNL     1       5.402   5.478  17.126  0.00  0.00    +0.000 HD
ENDROOT
BRANCH   2   5
ATOM      5  C   UNL     1       7.110   4.617  15.693  0.00  0.00    +0.000 A 
ATOM      6  C   UNL     1       6.404   3.702  14.865  0.00  0.00    +0.000 A 
ATOM      7  C   UNL     1       6.604   4.124  13.561  0.00  0.00    +0.000 A 
ATOM      8  N   UNL     1       7.356   5.262  13.679  0.00  0.00    +0.000 N 
ATOM      9  N   UNL     1       7.680   5.583  14.939  0.00  0.00    +0.000 NA
ATOM     10  H   UNL     1       7.693   5.866  12.940  0.00  0.00    +0.000 HD
BRANCH   7  11
ATOM     11  C   UNL     1       6.138   3.587  12.219  0.00  0.00    +0.000 C 
ATOM     12  C   UNL     1       4.613   3.756  12.092  0.00  0.00    +0.000 C 
ATOM     13  C   UNL     1       6.815   4.334  11.049  0.00  0.00    +0.000 C 
ATOM     14  C   UNL     1       6.487   2.094  12.081  0.00  0.00    +0.000 C 
ENDBRANCH   7  11
ENDBRANCH   2   5
BRANCH   1  16
ATOM     15  C   UNL     1       4.758   5.095  19.585  0.00  0.00    +0.000 C 
ATOM     16  N   UNL     1       5.959   5.317  19.113  0.00  0.00    +0.000 NA
BRANCH  15  22
ATOM     17  C   UNL     1       3.974   2.007  19.134  0.00  0.00    +0.000 C 
ATOM     18  C   UNL     1       3.220   3.225  18.700  0.00  0.00    +0.000 A 
ATOM     19  C   UNL     1       1.975   3.130  17.986  0.00  0.00    +0.000 A 
ATOM     20  C   UNL     1       1.457   4.354  17.644  0.00  0.00    +0.000 A 
ATOM     21  S   UNL     1       2.471   5.619  18.134  0.00  0.00    +0.000 S 
ATOM     22  C   UNL     1       3.576   4.556  18.917  0.00  0.00    +0.000 A 
ENDBRANCH  15  22
ENDBRANCH   1  16
TORSDOF 4
ENDMDL
MODEL 4
REMARK VINA RESULT:      -6.9      0.905      1.313
REMARK  Name = 
REMARK  8 active torsions:
REMARK  status: ('A' for Active; 'I' for Inactive)
REMARK    1  A    between atoms: C_1  and  C_2
REMARK    2  A    between atoms: C_6  and  C_7
REMARK    3  A    between atoms: N_8  and  N_9
REMARK    4  A    between atoms: C_10  and  C_12
REMARK    5  A    between atoms: C_14  and  C_15
REMARK    6  A    between atoms: C_15  and  C_16
REMARK    7  A    between atoms: C_15  and  C_17
REMARK    8  A    between atoms: C_15  and  C_18
REMARK                            x       y       z     vdW  Elec       q    Type
REMARK                         _______ _______ _______ _____ _____    ______ ____
ROOT
ATOM      1  N   UNL     1       6.346   4.268  17.708  0.00  0.00    +0.000 N 
ATOM      2  C   UNL     1       6.448   5.419  16.942  0.00  0.00    +0.000 C 
ATOM      3  O   UNL     1       6.420   6.575  17.355  0.00  0.00    +0.000 OA
ATOM      4  H   UNL     1       6.487   3.395  17.200  0.00  0.00    +0.000 HD
ENDROOT
BRANCH   2   5
ATOM      5  C   UNL     1       6.638   5.081  15.512  0.00  0.00    +0.000 A 
ATOM      6  C   UNL     1       5.824   4.270  14.676  0.00  0.00    +0.000 A 
ATOM      7  C   UNL     1       6.445   4.241  13.438  0.00  0.00    +0.000 A 
ATOM      8  N   UNL     1       7.539   5.051  13.584  0.00  0.00    +0.000 N 
ATOM      9  N   UNL     1       7.688   5.567  14.811  0.00  0.00    +0.000 NA
ATOM     10  H   UNL     1       8.235   5.291  12.888  0.00  0.00    +0.000 HD
BRANCH   7  11
ATOM     11  C   UNL     1       6.103   3.556  12.127  0.00  0.00    +0.000 C 
ATOM     12  C   UNL     1       4.588   3.647  11.873  0.00  0.00    +0.000 C 
ATOM     13  C   UNL     1       6.841   4.213  10.940  0.00  0.00    +0.000 C 
ATOM     14  C   UNL     1       6.514   2.073  12.166  0.00  0.00    +0.000 C 
ENDBRANCH   7  11
ENDBRANCH   2   5
BRANCH   1  16
ATOM     15  C   UNL     1       4.996   4.159  19.557  0.00  0.00    +0.000 C 
ATOM     16  N   UNL     1       6.207   4.245  19.065  0.00  0.00    +0.000 NA
BRANCH  15  22
ATOM     17  C   UNL     1       2.998   6.287  18.205  0.00  0.00    +0.000 C 
ATOM     18  C   UNL     1       2.841   4.802  18.298  0.00  0.00    +0.000 A 
ATOM     19  C   UNL     1       1.696   4.125  17.749  0.00  0.00    +0.000 A 
ATOM     20  C   UNL     1       1.717   2.771  17.966  0.00  0.00    +0.000 A 
ATOM     21  S   UNL     1       3.077   2.304  18.861  0.00  0.00    +0.000 S 
ATOM     22  C   UNL     1       3.729   3.897  18.881  0.00  0.00    +0.000 A 
ENDBRANCH  15  22
ENDBRANCH   1  16
TORSDOF 4
ENDMDL
MODEL 5
REMARK VINA RESULT:      -6.9      0.993      1.612
REMARK  Name = 
REMARK  8 active torsions:
REMARK  status: ('A' for Active; 'I' for Inactive)
REMARK    1  A    between atoms: C_1  and  C_2
REMARK    2  A    between atoms: C_6  and  C_7
REMARK    3  A    between atoms: N_8  and  N_9
REMARK    4  A    between atoms: C_10  and  C_12
REMARK    5  A    between atoms: C_14  and  C_15
REMARK    6  A    between atoms: C_15  and  C_16
REMARK    7  A    between atoms: C_15  and  C_17
REMARK    8  A    between atoms: C_15  and  C_18
REMARK                            x       y       z     vdW  Elec       q    Type
REMARK                         _______ _______ _______ _____ _____    ______ ____
ROOT
ATOM      1  N   UNL     1       5.213   5.685  17.534  0.00  0.00    +0.000 N 
ATOM      2  C   UNL     1       6.356   4.953  17.251  0.00  0.00    +0.000 C 
ATOM      3  O   UNL     1       7.120   4.448  18.068  0.00  0.00    +0.000 OA
ATOM      4  H   UNL     1       4.651   5.943  16.722  0.00  0.00    +0.000 HD
ENDROOT
BRANCH   2   5
ATOM      5  C   UNL     1       6.538   4.812  15.786  0.00  0.00    +0.000 A 
ATOM      6  C   UNL     1       5.813   3.996  14.877  0.00  0.00    +0.000 A 
ATOM      7  C   UNL     1       6.385   4.199  13.632  0.00  0.00    +0.000 A 
ATOM      8  N   UNL     1       7.362   5.134  13.850  0.00  0.00    +0.000 N 
ATOM      9  N   UNL     1       7.483   5.519  15.128  0.00  0.00    +0.000 NA
ATOM     10  H   UNL     1       7.991   5.548  13.174  0.00  0.00    +0.000 HD
BRANCH   7  11
ATOM     11  C   UNL     1       6.092   3.629  12.255  0.00  0.00    +0.000 C 
ATOM     12  C   UNL     1       4.576   3.662  11.990  0.00  0.00    +0.000 C 
ATOM     13  C   UNL     1       6.803   4.438  11.149  0.00  0.00    +0.000 C 
ATOM     14  C   UNL     1       6.584   2.173  12.155  0.00  0.00    +0.000 C 
ENDBRANCH   7  11
ENDBRANCH   2   5
BRANCH   1  16
ATOM     15  C   UNL     1       3.920   5.098  19.333  0.00  0.00    +0.000 C 
ATOM     16  N   UNL     1       4.750   5.952  18.789  0.00  0.00    +0.000 NA
BRANCH  15  22
ATOM     17  C   UNL     1       1.444   4.311  17.434  0.00  0.00    +0.000 C 
ATOM     18  C   UNL     1       2.447   3.400  18.071  0.00  0.00    +0.000 A 
ATOM     19  C   UNL     1       2.403   1.974  17.882  0.00  0.00    +0.000 A 
ATOM     20  C   UNL     1       3.383   1.310  18.575  0.00  0.00    +0.000 A 
ATOM     21  S   UNL     1       4.333   2.375  19.487  0.00  0.00    +0.000 S 
ATOM     22  C   UNL     1       3.521   3.767  18.883  0.00  0.00    +0.000 A 
ENDBRANCH  15  22
ENDBRANCH   1  16
TORSDOF 4
ENDMDL
MODEL 6
REMARK VINA RESULT:      -6.8      1.266      1.766
REMARK  Name = 
REMARK  8 active torsions:
REMARK  status: ('A' for Active; 'I' for Inactive)
REMARK    1  A    between atoms: C_1  and  C_2
REMARK    2  A    between atoms: C_6  and  C_7
REMARK    3  A    between atoms: N_8  and  N_9
REMARK    4  A    between atoms: C_10  and  C_12
REMARK    5  A    between atoms: C_14  and  C_15
REMARK    6  A    between atoms: C_15  and  C_16
REMARK    7  A    between atoms: C_15  and  C_17
REMARK    8  A    between atoms: C_15  and  C_18
REMARK                            x       y       z     vdW  Elec       q    Type
REMARK                         _______ _______ _______ _____ _____    ______ ____
ROOT
ATOM      1  N   UNL     1       6.277   4.217  17.745  0.00  0.00    +0.000 N 
ATOM      2  C   UNL     1       6.231   5.365  16.968  0.00  0.00    +0.000 C 
ATOM      3  O   UNL     1       6.033   6.509  17.368  0.00  0.00    +0.000 OA
ATOM      4  H   UNL     1       6.549   3.368  17.249  0.00  0.00    +0.000 HD
ENDROOT
BRANCH   2   5
ATOM      5  C   UNL     1       6.494   5.044  15.545  0.00  0.00    +0.000 A 
ATOM      6  C   UNL     1       5.719   4.253  14.656  0.00  0.00    +0.000 A 
ATOM      7  C   UNL     1       6.404   4.235  13.453  0.00  0.00    +0.000 A 
ATOM      8  N   UNL     1       7.496   5.033  13.667  0.00  0.00    +0.000 N 
ATOM      9  N   UNL     1       7.583   5.530  14.908  0.00  0.00    +0.000 NA
ATOM     10  H   UNL     1       8.230   5.275  13.013  0.00  0.00    +0.000 HD
BRANCH   7  11
ATOM     11  C   UNL     1       6.126   3.572  12.115  0.00  0.00    +0.000 C 
ATOM     12  C   UNL     1       6.911   4.292  11.004  0.00  0.00    +0.000 C 
ATOM     13  C   UNL     1       6.544   2.085  12.128  0.00  0.00    +0.000 C 
ATOM     14  C   UNL     1       4.623   3.630  11.782  0.00  0.00    +0.000 C 
ENDBRANCH   7  11
ENDBRANCH   2   5
BRANCH   1  16
ATOM     15  C   UNL     1       4.896   4.183  19.574  0.00  0.00    +0.000 C 
ATOM     16  N   UNL     1       6.117   4.187  19.100  0.00  0.00    +0.000 NA
BRANCH  15  22
ATOM     17  C   UNL     1       3.589   1.472  18.436  0.00  0.00    +0.000 C 
ATOM     18  C   UNL     1       3.041   2.863  18.365  0.00  0.00    +0.000 A 
ATOM     19  C   UNL     1       1.780   3.150  17.735  0.00  0.00    +0.000 A 
ATOM     20  C   UNL     1       1.468   4.486  17.738  0.00  0.00    +0.000 A 
ATOM     21  S   UNL     1       2.695   5.410  18.453  0.00  0.00    +0.000 S 
ATOM     22  C   UNL     1       3.623   4.024  18.876  0.00  0.00    +0.000 A 
ENDBRANCH  15  22
ENDBRANCH   1  16
TORSDOF 4
ENDMDL
MODEL 7
REMARK VINA RESULT:      -6.8      4.535      7.038
REMARK  Name = 
REMARK  8 active torsions:
REMARK  status: ('A' for Active; 'I' for Inactive)
REMARK    1  A    between atoms: C_1  and  C_2
REMARK    2  A    between atoms: C_6  and  C_7
REMARK    3  A    between atoms: N_8  and  N_9
REMARK    4  A    between atoms: C_10  and  C_12
REMARK    5  A    between atoms: C_14  and  C_15
REMARK    6  A    between atoms: C_15  and  C_16
REMARK    7  A    between atoms: C_15  and  C_17
REMARK    8  A    between atoms: C_15  and  C_18
REMARK                            x       y       z     vdW  Elec       q    Type
REMARK                         _______ _______ _______ _____ _____    ______ ____
ROOT
ATOM      1  N   UNL     1       4.162   5.871  19.177  0.00  0.00    +0.000 N 
ATOM      2  C   UNL     1       3.774   6.503  18.005  0.00  0.00    +0.000 C 
ATOM      3  O   UNL     1       4.118   6.202  16.866  0.00  0.00    +0.000 OA
ATOM      4  H   UNL     1       3.698   6.203  20.023  0.00  0.00    +0.000 HD
ENDROOT
BRANCH   2   5
ATOM      5  C   UNL     1       2.829   7.608  18.295  0.00  0.00    +0.000 A 
ATOM      6  C   UNL     1       2.093   7.857  19.484  0.00  0.00    +0.000 A 
ATOM      7  C   UNL     1       1.335   8.991  19.242  0.00  0.00    +0.000 A 
ATOM      8  N   UNL     1       1.685   9.374  17.974  0.00  0.00    +0.000 N 
ATOM      9  N   UNL     1       2.573   8.568  17.378  0.00  0.00    +0.000 NA
ATOM     10  H   UNL     1       1.350  10.172  17.450  0.00  0.00    +0.000 HD
BRANCH   7  11
ATOM     11  C   UNL     1       0.338   9.767  20.085  0.00  0.00    +0.000 C 
ATOM     12  C   UNL     1      -0.121   8.903  21.273  0.00  0.00    +0.000 C 
ATOM     13  C   UNL     1       0.961  11.069  20.635  0.00  0.00    +0.000 C 
ATOM     14  C   UNL     1      -0.893  10.158  19.247  0.00  0.00    +0.000 C 
ENDBRANCH   7  11
ENDBRANCH   2   5
BRANCH   1  16
ATOM     15  C   UNL     1       4.451   3.608  19.391  0.00  0.00    +0.000 C 
ATOM     16  N   UNL     1       4.992   4.791  19.241  0.00  0.00    +0.000 NA
BRANCH  15  22
ATOM     17  C   UNL     1       2.273   3.625  21.758  0.00  0.00    +0.000 C 
ATOM     18  C   UNL     1       2.089   3.194  20.337  0.00  0.00    +0.000 A 
ATOM     19  C   UNL     1       0.826   2.710  19.849  0.00  0.00    +0.000 A 
ATOM     20  C   UNL     1       0.868   2.330  18.531  0.00  0.00    +0.000 A 
ATOM     21  S   UNL     1       2.422   2.508  17.881  0.00  0.00    +0.000 S 
ATOM     22  C   UNL     1       3.049   3.206  19.323  0.00  0.00    +0.000 A 
ENDBRANCH  15  22
ENDBRANCH   1  16
TORSDOF 4
ENDMDL
MODEL 8
REMARK VINA RESULT:      -6.8      1.037      1.836
REMARK  Name = 
REMARK  8 active torsions:
REMARK  status: ('A' for Active; 'I' for Inactive)
REMARK    1  A    between atoms: C_1  and  C_2
REMARK    2  A    between atoms: C_6  and  C_7
REMARK    3  A    between atoms: N_8  and  N_9
REMARK    4  A    between atoms: C_10  and  C_12
REMARK    5  A    between atoms: C_14  and  C_15
REMARK    6  A    between atoms: C_15  and  C_16
REMARK    7  A    between atoms: C_15  and  C_17
REMARK    8  A    between atoms: C_15  and  C_18
REMARK                            x       y       z     vdW  Elec       q    Type
REMARK                         _______ _______ _______ _____ _____    ______ ____
ROOT
ATOM      1  N   UNL     1       6.121   4.020  17.648  0.00  0.00    +0.000 N 
ATOM      2  C   UNL     1       7.038   4.877  17.058  0.00  0.00    +0.000 C 
ATOM      3  O   UNL     1       7.818   5.625  17.641  0.00  0.00    +0.000 OA
ATOM      4  H   UNL     1       5.624   3.406  17.003  0.00  0.00    +0.000 HD
ENDROOT
BRANCH   2   5
ATOM      5  C   UNL     1       6.990   4.757  15.581  0.00  0.00    +0.000 A 
ATOM      6  C   UNL     1       6.224   3.862  14.788  0.00  0.00    +0.000 A 
ATOM      7  C   UNL     1       6.556   4.128  13.470  0.00  0.00    +0.000 A 
ATOM      8  N   UNL     1       7.442   5.170  13.542  0.00  0.00    +0.000 N 
ATOM      9  N   UNL     1       7.727   5.569  14.789  0.00  0.00    +0.000 NA
ATOM     10  H   UNL     1       7.899   5.653  12.780  0.00  0.00    +0.000 HD
BRANCH   7  11
ATOM     11  C   UNL     1       6.107   3.526  12.150  0.00  0.00    +0.000 C 
ATOM     12  C   UNL     1       6.489   2.036  12.101  0.00  0.00    +0.000 C 
ATOM     13  C   UNL     1       4.578   3.649  11.967  0.00  0.00    +0.000 C 
ATOM     14  C   UNL     1       6.776   4.252  10.968  0.00  0.00    +0.000 C 
ENDBRANCH   7  11
ENDBRANCH   2   5
BRANCH   1  16
ATOM     15  C   UNL     1       4.764   4.098  19.493  0.00  0.00    +0.000 C 
ATOM     16  N   UNL     1       5.952   3.868  18.993  0.00  0.00    +0.000 NA
BRANCH  15  22
ATOM     17  C   UNL     1       2.916   1.952  17.966  0.00  0.00    +0.000 C 
ATOM     18  C   UNL     1       2.680   3.420  18.136  0.00  0.00    +0.000 A 
ATOM     19  C   UNL     1       1.515   4.068  17.594  0.00  0.00    +0.000 A 
ATOM     20  C   UNL     1       1.497   5.421  17.822  0.00  0.00    +0.000 A 
ATOM     21  S   UNL     1       2.887   5.932  18.645  0.00  0.00    +0.000 S 
ATOM     22  C   UNL     1       3.493   4.330  18.813  0.00  0.00    +0.000 A 
ENDBRANCH  15  22
ENDBRANCH   1  16
TORSDOF 4
ENDMDL
MODEL 9
REMARK VINA RESULT:      -6.7      1.180      1.774
REMARK  Name = 
REMARK  8 active torsions:
REMARK  status: ('A' for Active; 'I' for Inactive)
REMARK    1  A    between atoms: C_1  and  C_2
REMARK    2  A    between atoms: C_6  and  C_7
REMARK    3  A    between atoms: N_8  and  N_9
REMARK    4  A    between atoms: C_10  and  C_12
REMARK    5  A    between atoms: C_14  and  C_15
REMARK    6  A    between atoms: C_15  and  C_16
REMARK    7  A    between atoms: C_15  and  C_17
REMARK    8  A    between atoms: C_15  and  C_18
REMARK                            x       y       z     vdW  Elec       q    Type
REMARK                         _______ _______ _______ _____ _____    ______ ____
ROOT
ATOM      1  N   UNL     1       5.397   5.658  17.757  0.00  0.00    +0.000 N 
ATOM      2  C   UNL     1       6.492   4.868  17.440  0.00  0.00    +0.000 C 
ATOM      3  O   UNL     1       7.223   4.282  18.234  0.00  0.00    +0.000 OA
ATOM      4  H   UNL     1       4.854   5.986  16.958  0.00  0.00    +0.000 HD
ENDROOT
BRANCH   2   5
ATOM      5  C   UNL     1       6.667   4.779  15.971  0.00  0.00    +0.000 A 
ATOM      6  C   UNL     1       5.957   3.974  15.041  0.00  0.00    +0.000 A 
ATOM      7  C   UNL     1       6.513   4.232  13.799  0.00  0.00    +0.000 A 
ATOM      8  N   UNL     1       7.467   5.185  14.041  0.00  0.00    +0.000 N 
ATOM      9  N   UNL     1       7.588   5.532  15.329  0.00  0.00    +0.000 NA
ATOM     10  H   UNL     1       8.080   5.637  13.374  0.00  0.00    +0.000 HD
BRANCH   7  11
ATOM     11  C   UNL     1       6.225   3.698  12.406  0.00  0.00    +0.000 C 
ATOM     12  C   UNL     1       7.015   4.510  11.365  0.00  0.00    +0.000 C 
ATOM     13  C   UNL     1       6.626   2.212  12.280  0.00  0.00    +0.000 C 
ATOM     14  C   UNL     1       4.722   3.804  12.086  0.00  0.00    +0.000 C 
ENDBRANCH   7  11
ENDBRANCH   2   5
BRANCH   1  16
ATOM     15  C   UNL     1       4.019   5.117  19.506  0.00  0.00    +0.000 C 
ATOM     16  N   UNL     1       4.951   5.899  19.023  0.00  0.00    +0.000 NA
BRANCH  15  22
ATOM     17  C   UNL     1       4.768   2.103  20.347  0.00  0.00    +0.000 C 
ATOM     18  C   UNL     1       3.789   2.557  19.310  0.00  0.00    +0.000 A 
ATOM     19  C   UNL     1       3.026   1.621  18.527  0.00  0.00    +0.000 A 
ATOM     20  C   UNL     1       2.212   2.229  17.606  0.00  0.00    +0.000 A 
ATOM     21  S   UNL     1       2.383   3.914  17.639  0.00  0.00    +0.000 S 
ATOM     22  C   UNL     1       3.473   3.873  18.970  0.00  0.00    +0.000 A 
ENDBRANCH  15  22
ENDBRANCH   1  16
TORSDOF 4
ENDMDL
