MODEL 1
REMARK VINA RESULT:      -5.6      0.000      0.000
REMARK  Name = 
REMARK  21 active torsions:
REMARK  status: ('A' for Active; 'I' for Inactive)
REMARK    1  A    between atoms: C_1  and  C_2
REMARK    2  A    between atoms: C_2  and  C_3
REMARK    3  A    between atoms: C_3  and  C_4
REMARK    4  A    between atoms: C_4  and  C_5
REMARK    5  A    between atoms: C_5  and  C_6
REMARK    6  A    between atoms: C_6  and  C_7
REMARK    7  A    between atoms: C_7  and  C_8
REMARK    8  A    between atoms: C_8  and  C_9
REMARK    9  A    between atoms: C_9  and  C_10
REMARK   10  A    between atoms: C_10  and  C_11
REMARK   11  A    between atoms: C_11  and  C_12
REMARK   12  A    between atoms: C_12  and  C_13
REMARK   13  A    between atoms: C_13  and  C_14
REMARK   14  A    between atoms: C_14  and  N_15
REMARK   15  A    between atoms: N_15  and  C_16
REMARK   16  A    between atoms: N_15  and  C_17
REMARK   17  A    between atoms: N_15  and  C_18
REMARK   18  A    between atoms: C_18  and  C_19
REMARK   19  A    between atoms: C_19  and  C_20
REMARK   20  A    between atoms: C_20  and  N_21
REMARK   21  A    between atoms: C_22  and  C_23
REMARK                            x       y       z     vdW  Elec       q    Type
REMARK                         _______ _______ _______ _____ _____    ______ ____
ROOT
ATOM      1  C   UNL     1       4.315   5.649  17.408  0.00  0.00    +0.000 C 
ENDROOT
BRANCH   1   2
ATOM      2  C   UNL     1       5.211   6.006  16.216  0.00  0.00    +0.000 C 
BRANCH   2   3
ATOM      3  N   UNL     1       6.703   5.675  16.427  0.00  0.00    +0.000 N 
ATOM      4  C   UNL     1       7.478   6.950  16.757  0.00  0.00    +0.000 C 
ATOM      5  C   UNL     1       6.864   4.661  17.556  0.00  0.00    +0.000 C 
BRANCH   3   6
ATOM      6  C   UNL     1       7.205   5.064  15.082  0.00  0.00    +0.000 C 
BRANCH   6   7
ATOM      7  C   UNL     1       6.359   3.892  14.602  0.00  0.00    +0.000 C 
BRANCH   7   8
ATOM      8  C   UNL     1       6.100   3.953  13.099  0.00  0.00    +0.000 C 
BRANCH   8   9
ATOM      9  N   UNL     1       6.454   2.708  12.441  0.00  0.00    +0.000 N 
ATOM     10  C   UNL     1       5.631   2.136  11.498  0.00  0.00    +0.000 C 
ATOM     11  C   UNL     1       6.156   0.857  10.900  0.00  0.00    +0.000 C 
ATOM     12  O   UNL     1       4.570   2.636  11.141  0.00  0.00    +0.000 OA
ATOM     13  H   UNL     1       7.245   2.175  12.787  0.00  0.00    +0.000 HD
ENDBRANCH   8   9
ENDBRANCH   7   8
ENDBRANCH   6   7
ENDBRANCH   3   6
ENDBRANCH   2   3
ENDBRANCH   1   2
BRANCH   1  14
ATOM     14  C   UNL     1       4.055   6.851  18.314  0.00  0.00    +0.000 C 
BRANCH  14  15
ATOM     15  C   UNL     1       2.565   7.115  18.482  0.00  0.00    +0.000 C 
BRANCH  15  16
ATOM     16  C   UNL     1       2.111   6.853  19.907  0.00  0.00    +0.000 C 
BRANCH  16  17
ATOM     17  C   UNL     1       2.352   5.390  20.250  0.00  0.00    +0.000 C 
BRANCH  17  18
ATOM     18  C   UNL     1       1.038   4.704  20.569  0.00  0.00    +0.000 C 
BRANCH  18  19
ATOM     19  C   UNL     1       1.176   3.197  20.419  0.00  0.00    +0.000 C 
BRANCH  19  20
ATOM     20  C   UNL     1       0.792   2.782  19.007  0.00  0.00    +0.000 C 
BRANCH  20  21
ATOM     21  C   UNL     1       1.777   3.346  17.994  0.00  0.00    +0.000 C 
BRANCH  21  22
ATOM     22  C   UNL     1       2.630   2.229  17.406  0.00  0.00    +0.000 C 
BRANCH  22  23
ATOM     23  C   UNL     1       3.388   1.496  18.506  0.00  0.00    +0.000 C 
BRANCH  23  25
ATOM     24  C   UNL     1       4.485   2.101  20.678  0.00  0.00    +0.000 C 
ATOM     25  C   UNL     1       4.377   2.428  19.200  0.00  0.00    +0.000 C 
ENDBRANCH  23  25
ENDBRANCH  22  23
ENDBRANCH  21  22
ENDBRANCH  20  21
ENDBRANCH  19  20
ENDBRANCH  18  19
ENDBRANCH  17  18
ENDBRANCH  16  17
ENDBRANCH  15  16
ENDBRANCH  14  15
ENDBRANCH   1  14
TORSDOF 17
ENDMDL
MODEL 2
REMARK VINA RESULT:      -5.6      3.042      7.521
REMARK  Name = 
REMARK  21 active torsions:
REMARK  status: ('A' for Active; 'I' for Inactive)
REMARK    1  A    between atoms: C_1  and  C_2
REMARK    2  A    between atoms: C_2  and  C_3
REMARK    3  A    between atoms: C_3  and  C_4
REMARK    4  A    between atoms: C_4  and  C_5
REMARK    5  A    between atoms: C_5  and  C_6
REMARK    6  A    between atoms: C_6  and  C_7
REMARK    7  A    between atoms: C_7  and  C_8
REMARK    8  A    between atoms: C_8  and  C_9
REMARK    9  A    between atoms: C_9  and  C_10
REMARK   10  A    between atoms: C_10  and  C_11
REMARK   11  A    between atoms: C_11  and  C_12
REMARK   12  A    between atoms: C_12  and  C_13
REMARK   13  A    between atoms: C_13  and  C_14
REMARK   14  A    between atoms: C_14  and  N_15
REMARK   15  A    between atoms: N_15  and  C_16
REMARK   16  A    between atoms: N_15  and  C_17
REMARK   17  A    between atoms: N_15  and  C_18
REMARK   18  A    between atoms: C_18  and  C_19
REMARK   19  A    between atoms: C_19  and  C_20
REMARK   20  A    between atoms: C_20  and  N_21
REMARK   21  A    between atoms: C_22  and  C_23
REMARK                            x       y       z     vdW  Elec       q    Type
REMARK                         _______ _______ _______ _____ _____    ______ ____
ROOT
ATOM      1  C   UNL     1       4.070   3.922  18.201  0.00  0.00    +0.000 C 
ENDROOT
BRANCH   1   2
ATOM      2  C   UNL     1       3.632   3.083  19.407  0.00  0.00    +0.000 C 
BRANCH   2   3
ATOM      3  N   UNL     1       2.117   3.135  19.695  0.00  0.00    +0.000 N 
ATOM      4  C   UNL     1       1.390   2.097  18.841  0.00  0.00    +0.000 C 
ATOM      5  C   UNL     1       1.852   2.871  21.174  0.00  0.00    +0.000 C 
BRANCH   3   6
ATOM      6  C   UNL     1       1.653   4.576  19.315  0.00  0.00    +0.000 C 
BRANCH   6   7
ATOM      7  C   UNL     1       1.621   5.528  20.502  0.00  0.00    +0.000 C 
BRANCH   7   8
ATOM      8  C   UNL     1       2.517   6.745  20.282  0.00  0.00    +0.000 C 
BRANCH   8   9
ATOM      9  N   UNL     1       1.783   7.855  19.704  0.00  0.00    +0.000 N 
ATOM     10  C   UNL     1       2.063   8.318  18.438  0.00  0.00    +0.000 C 
ATOM     11  C   UNL     1       1.196   9.463  17.982  0.00  0.00    +0.000 C 
ATOM     12  O   UNL     1       2.924   7.825  17.718  0.00  0.00    +0.000 OA
ATOM     13  H   UNL     1       1.157   8.393  20.293  0.00  0.00    +0.000 HD
ENDBRANCH   8   9
ENDBRANCH   7   8
ENDBRANCH   6   7
ENDBRANCH   3   6
ENDBRANCH   2   3
ENDBRANCH   1   2
BRANCH   1  14
ATOM     14  C   UNL     1       4.901   5.135  18.615  0.00  0.00    +0.000 C 
BRANCH  14  15
ATOM     15  C   UNL     1       6.344   4.752  18.915  0.00  0.00    +0.000 C 
BRANCH  15  16
ATOM     16  C   UNL     1       7.295   5.901  18.632  0.00  0.00    +0.000 C 
BRANCH  16  17
ATOM     17  C   UNL     1       7.049   6.421  17.223  0.00  0.00    +0.000 C 
BRANCH  17  18
ATOM     18  C   UNL     1       7.383   5.350  16.204  0.00  0.00    +0.000 C 
BRANCH  18  19
ATOM     19  C   UNL     1       6.250   5.202  15.199  0.00  0.00    +0.000 C 
BRANCH  19  20
ATOM     20  C   UNL     1       6.556   4.063  14.240  0.00  0.00    +0.000 C 
BRANCH  20  21
ATOM     21  C   UNL     1       5.346   3.748  13.374  0.00  0.00    +0.000 C 
BRANCH  21  22
ATOM     22  C   UNL     1       5.786   3.377  11.964  0.00  0.00    +0.000 C 
BRANCH  22  23
ATOM     23  C   UNL     1       4.670   2.642  11.230  0.00  0.00    +0.000 C 
BRANCH  23  25
ATOM     24  C   UNL     1       3.173   3.889   9.652  0.00  0.00    +0.000 C 
ATOM     25  C   UNL     1       3.430   3.522  11.103  0.00  0.00    +0.000 C 
ENDBRANCH  23  25
ENDBRANCH  22  23
ENDBRANCH  21  22
ENDBRANCH  20  21
ENDBRANCH  19  20
ENDBRANCH  18  19
ENDBRANCH  17  18
ENDBRANCH  16  17
ENDBRANCH  15  16
ENDBRANCH  14  15
ENDBRANCH   1  14
TORSDOF 17
ENDMDL
MODEL 3
REMARK VINA RESULT:      -5.6      3.044      5.836
REMARK  Name = 
REMARK  21 active torsions:
REMARK  status: ('A' for Active; 'I' for Inactive)
REMARK    1  A    between atoms: C_1  and  C_2
REMARK    2  A    between atoms: C_2  and  C_3
REMARK    3  A    between atoms: C_3  and  C_4
REMARK    4  A    between atoms: C_4  and  C_5
REMARK    5  A    between atoms: C_5  and  C_6
REMARK    6  A    between atoms: C_6  and  C_7
REMARK    7  A    between atoms: C_7  and  C_8
REMARK    8  A    between atoms: C_8  and  C_9
REMARK    9  A    between atoms: C_9  and  C_10
REMARK   10  A    between atoms: C_10  and  C_11
REMARK   11  A    between atoms: C_11  and  C_12
REMARK   12  A    between atoms: C_12  and  C_13
REMARK   13  A    between atoms: C_13  and  C_14
REMARK   14  A    between atoms: C_14  and  N_15
REMARK   15  A    between atoms: N_15  and  C_16
REMARK   16  A    between atoms: N_15  and  C_17
REMARK   17  A    between atoms: N_15  and  C_18
REMARK   18  A    between atoms: C_18  and  C_19
REMARK   19  A    between atoms: C_19  and  C_20
REMARK   20  A    between atoms: C_20  and  N_21
REMARK   21  A    between atoms: C_22  and  C_23
REMARK                            x       y       z     vdW  Elec       q    Type
REMARK                         _______ _______ _______ _____ _____    ______ ____
ROOT
ATOM      1  C   UNL     1       1.570   2.882  19.655  0.00  0.00    +0.000 C 
ENDROOT
BRANCH   1   2
ATOM      2  C   UNL     1       2.180   3.428  18.359  0.00  0.00    +0.000 C 
BRANCH   2   3
ATOM      3  N   UNL     1       3.645   3.003  18.123  0.00  0.00    +0.000 N 
ATOM      4  C   UNL     1       4.524   3.511  19.266  0.00  0.00    +0.000 C 
ATOM      5  C   UNL     1       3.743   1.484  18.025  0.00  0.00    +0.000 C 
BRANCH   3   6
ATOM      6  C   UNL     1       4.074   3.657  16.773  0.00  0.00    +0.000 C 
BRANCH   6   7
ATOM      7  C   UNL     1       5.222   4.647  16.923  0.00  0.00    +0.000 C 
BRANCH   7   8
ATOM      8  C   UNL     1       6.489   4.160  16.224  0.00  0.00    +0.000 C 
BRANCH   8   9
ATOM      9  N   UNL     1       6.201   3.614  14.910  0.00  0.00    +0.000 N 
ATOM     10  C   UNL     1       6.631   4.243  13.763  0.00  0.00    +0.000 C 
ATOM     11  C   UNL     1       6.265   3.534  12.484  0.00  0.00    +0.000 C 
ATOM     12  O   UNL     1       7.288   5.277  13.770  0.00  0.00    +0.000 OA
ATOM     13  H   UNL     1       5.550   2.841  14.828  0.00  0.00    +0.000 HD
ENDBRANCH   8   9
ENDBRANCH   7   8
ENDBRANCH   6   7
ENDBRANCH   3   6
ENDBRANCH   2   3
ENDBRANCH   1   2
BRANCH   1  14
ATOM     14  C   UNL     1       0.968   3.989  20.519  0.00  0.00    +0.000 C 
BRANCH  14  15
ATOM     15  C   UNL     1       2.030   4.978  20.984  0.00  0.00    +0.000 C 
BRANCH  15  16
ATOM     16  C   UNL     1       1.738   6.382  20.487  0.00  0.00    +0.000 C 
BRANCH  16  17
ATOM     17  C   UNL     1       2.869   6.838  19.576  0.00  0.00    +0.000 C 
BRANCH  17  18
ATOM     18  C   UNL     1       2.340   7.114  18.182  0.00  0.00    +0.000 C 
BRANCH  18  19
ATOM     19  C   UNL     1       2.189   8.611  17.959  0.00  0.00    +0.000 C 
BRANCH  19  20
ATOM     20  C   UNL     1       0.971   9.125  18.708  0.00  0.00    +0.000 C 
BRANCH  20  21
ATOM     21  C   UNL     1       0.792  10.619  18.486  0.00  0.00    +0.000 C 
BRANCH  21  22
ATOM     22  C   UNL     1      -0.507  11.098  19.121  0.00  0.00    +0.000 C 
BRANCH  22  23
ATOM     23  C   UNL     1      -1.512  11.498  18.048  0.00  0.00    +0.000 C 
BRANCH  23  25
ATOM     24  C   UNL     1      -3.244   9.747  17.577  0.00  0.00    +0.000 C 
ATOM     25  C   UNL     1      -1.888  10.301  17.180  0.00  0.00    +0.000 C 
ENDBRANCH  23  25
ENDBRANCH  22  23
ENDBRANCH  21  22
ENDBRANCH  20  21
ENDBRANCH  19  20
ENDBRANCH  18  19
ENDBRANCH  17  18
ENDBRANCH  16  17
ENDBRANCH  15  16
ENDBRANCH  14  15
ENDBRANCH   1  14
TORSDOF 17
ENDMDL
MODEL 4
REMARK VINA RESULT:      -5.6      4.941      9.363
REMARK  Name = 
REMARK  21 active torsions:
REMARK  status: ('A' for Active; 'I' for Inactive)
REMARK    1  A    between atoms: C_1  and  C_2
REMARK    2  A    between atoms: C_2  and  C_3
REMARK    3  A    between atoms: C_3  and  C_4
REMARK    4  A    between atoms: C_4  and  C_5
REMARK    5  A    between atoms: C_5  and  C_6
REMARK    6  A    between atoms: C_6  and  C_7
REMARK    7  A    between atoms: C_7  and  C_8
REMARK    8  A    between atoms: C_8  and  C_9
REMARK    9  A    between atoms: C_9  and  C_10
REMARK   10  A    between atoms: C_10  and  C_11
REMARK   11  A    between atoms: C_11  and  C_12
REMARK   12  A    between atoms: C_12  and  C_13
REMARK   13  A    between atoms: C_13  and  C_14
REMARK   14  A    between atoms: C_14  and  N_15
REMARK   15  A    between atoms: N_15  and  C_16
REMARK   16  A    between atoms: N_15  and  C_17
REMARK   17  A    between atoms: N_15  and  C_18
REMARK   18  A    between atoms: C_18  and  C_19
REMARK   19  A    between atoms: C_19  and  C_20
REMARK   20  A    between atoms: C_20  and  N_21
REMARK   21  A    between atoms: C_22  and  C_23
REMARK                            x       y       z     vdW  Elec       q    Type
REMARK                         _______ _______ _______ _____ _____    ______ ____
ROOT
ATOM      1  C   UNL     1       6.600   4.365  16.832  0.00  0.00    +0.000 C 
ENDROOT
BRANCH   1   2
ATOM      2  C   UNL     1       5.152   4.085  16.411  0.00  0.00    +0.000 C 
BRANCH   2   3
ATOM      3  N   UNL     1       4.139   4.121  17.575  0.00  0.00    +0.000 N 
ATOM      4  C   UNL     1       4.805   3.630  18.859  0.00  0.00    +0.000 C 
ATOM      5  C   UNL     1       3.611   5.539  17.770  0.00  0.00    +0.000 C 
BRANCH   3   6
ATOM      6  C   UNL     1       2.975   3.166  17.164  0.00  0.00    +0.000 C 
BRANCH   6   7
ATOM      7  C   UNL     1       2.630   2.143  18.238  0.00  0.00    +0.000 C 
BRANCH   7   8
ATOM      8  C   UNL     1       1.276   2.428  18.884  0.00  0.00    +0.000 C 
BRANCH   8   9
ATOM      9  N   UNL     1       1.160   3.815  19.297  0.00  0.00    +0.000 N 
ATOM     10  C   UNL     1       1.564   4.226  20.547  0.00  0.00    +0.000 C 
ATOM     11  C   UNL     1       1.393   5.700  20.809  0.00  0.00    +0.000 C 
ATOM     12  O   UNL     1       2.056   3.470  21.376  0.00  0.00    +0.000 OA
ATOM     13  H   UNL     1       0.639   4.462  18.716  0.00  0.00    +0.000 HD
ENDBRANCH   8   9
ENDBRANCH   7   8
ENDBRANCH   6   7
ENDBRANCH   3   6
ENDBRANCH   2   3
ENDBRANCH   1   2
BRANCH   1  14
ATOM     14  C   UNL     1       7.111   5.696  16.285  0.00  0.00    +0.000 C 
BRANCH  14  15
ATOM     15  C   UNL     1       6.706   6.862  17.176  0.00  0.00    +0.000 C 
BRANCH  15  16
ATOM     16  C   UNL     1       7.888   7.400  17.962  0.00  0.00    +0.000 C 
BRANCH  16  17
ATOM     17  C   UNL     1       8.022   8.895  17.709  0.00  0.00    +0.000 C 
BRANCH  17  18
ATOM     18  C   UNL     1       8.897   9.529  18.772  0.00  0.00    +0.000 C 
BRANCH  18  19
ATOM     19  C   UNL     1       9.124  11.001  18.464  0.00  0.00    +0.000 C 
BRANCH  19  20
ATOM     20  C   UNL     1      10.591  11.243  18.146  0.00  0.00    +0.000 C 
BRANCH  20  21
ATOM     21  C   UNL     1      11.346  11.683  19.391  0.00  0.00    +0.000 C 
BRANCH  21  22
ATOM     22  C   UNL     1      12.184  12.920  19.093  0.00  0.00    +0.000 C 
BRANCH  22  23
ATOM     23  C   UNL     1      11.600  14.143  19.789  0.00  0.00    +0.000 C 
BRANCH  23  25
ATOM     24  C   UNL     1       9.406  14.805  18.772  0.00  0.00    +0.000 C 
ATOM     25  C   UNL     1      10.903  15.059  18.788  0.00  0.00    +0.000 C 
ENDBRANCH  23  25
ENDBRANCH  22  23
ENDBRANCH  21  22
ENDBRANCH  20  21
ENDBRANCH  19  20
ENDBRANCH  18  19
ENDBRANCH  17  18
ENDBRANCH  16  17
ENDBRANCH  15  16
ENDBRANCH  14  15
ENDBRANCH   1  14
TORSDOF 17
ENDMDL
MODEL 5
REMARK VINA RESULT:      -5.5      4.332      8.632
REMARK  Name = 
REMARK  21 active torsions:
REMARK  status: ('A' for Active; 'I' for Inactive)
REMARK    1  A    between atoms: C_1  and  C_2
REMARK    2  A    between atoms: C_2  and  C_3
REMARK    3  A    between atoms: C_3  and  C_4
REMARK    4  A    between atoms: C_4  and  C_5
REMARK    5  A    between atoms: C_5  and  C_6
REMARK    6  A    between atoms: C_6  and  C_7
REMARK    7  A    between atoms: C_7  and  C_8
REMARK    8  A    between atoms: C_8  and  C_9
REMARK    9  A    between atoms: C_9  and  C_10
REMARK   10  A    between atoms: C_10  and  C_11
REMARK   11  A    between atoms: C_11  and  C_12
REMARK   12  A    between atoms: C_12  and  C_13
REMARK   13  A    between atoms: C_13  and  C_14
REMARK   14  A    between atoms: C_14  and  N_15
REMARK   15  A    between atoms: N_15  and  C_16
REMARK   16  A    between atoms: N_15  and  C_17
REMARK   17  A    between atoms: N_15  and  C_18
REMARK   18  A    between atoms: C_18  and  C_19
REMARK   19  A    between atoms: C_19  and  C_20
REMARK   20  A    between atoms: C_20  and  N_21
REMARK   21  A    between atoms: C_22  and  C_23
REMARK                            x       y       z     vdW  Elec       q    Type
REMARK                         _______ _______ _______ _____ _____    ______ ____
ROOT
ATOM      1  C   UNL     1       5.121   3.901  16.780  0.00  0.00    +0.000 C 
ENDROOT
BRANCH   1   2
ATOM      2  C   UNL     1       3.636   3.577  16.982  0.00  0.00    +0.000 C 
BRANCH   2   3
ATOM      3  N   UNL     1       3.263   3.215  18.435  0.00  0.00    +0.000 N 
ATOM      4  C   UNL     1       2.834   1.751  18.513  0.00  0.00    +0.000 C 
ATOM      5  C   UNL     1       4.450   3.461  19.362  0.00  0.00    +0.000 C 
BRANCH   3   6
ATOM      6  C   UNL     1       2.076   4.152  18.823  0.00  0.00    +0.000 C 
BRANCH   6   7
ATOM      7  C   UNL     1       2.053   4.510  20.304  0.00  0.00    +0.000 C 
BRANCH   7   8
ATOM      8  C   UNL     1       1.986   6.019  20.525  0.00  0.00    +0.000 C 
BRANCH   8   9
ATOM      9  N   UNL     1       2.334   6.754  19.322  0.00  0.00    +0.000 N 
ATOM     10  C   UNL     1       1.965   8.069  19.153  0.00  0.00    +0.000 C 
ATOM     11  C   UNL     1       2.422   8.688  17.858  0.00  0.00    +0.000 C 
ATOM     12  O   UNL     1       1.343   8.705  19.997  0.00  0.00    +0.000 OA
ATOM     13  H   UNL     1       2.725   6.252  18.533  0.00  0.00    +0.000 HD
ENDBRANCH   8   9
ENDBRANCH   7   8
ENDBRANCH   6   7
ENDBRANCH   3   6
ENDBRANCH   2   3
ENDBRANCH   1   2
BRANCH   1  14
ATOM     14  C   UNL     1       5.328   5.082  15.833  0.00  0.00    +0.000 C 
BRANCH  14  15
ATOM     15  C   UNL     1       5.007   6.408  16.510  0.00  0.00    +0.000 C 
BRANCH  15  16
ATOM     16  C   UNL     1       5.789   6.576  17.800  0.00  0.00    +0.000 C 
BRANCH  16  17
ATOM     17  C   UNL     1       7.276   6.436  17.509  0.00  0.00    +0.000 C 
BRANCH  17  18
ATOM     18  C   UNL     1       7.875   7.789  17.179  0.00  0.00    +0.000 C 
BRANCH  18  19
ATOM     19  C   UNL     1       8.335   8.489  18.449  0.00  0.00    +0.000 C 
BRANCH  19  20
ATOM     20  C   UNL     1       8.431   9.987  18.206  0.00  0.00    +0.000 C 
BRANCH  20  21
ATOM     21  C   UNL     1       9.673  10.562  18.871  0.00  0.00    +0.000 C 
BRANCH  21  22
ATOM     22  C   UNL     1       9.328  11.115  20.248  0.00  0.00    +0.000 C 
BRANCH  22  23
ATOM     23  C   UNL     1      10.490  11.930  20.805  0.00  0.00    +0.000 C 
BRANCH  23  25
ATOM     24  C   UNL     1      11.803  13.794  19.763  0.00  0.00    +0.000 C 
ATOM     25  C   UNL     1      11.464  12.316  19.696  0.00  0.00    +0.000 C 
ENDBRANCH  23  25
ENDBRANCH  22  23
ENDBRANCH  21  22
ENDBRANCH  20  21
ENDBRANCH  19  20
ENDBRANCH  18  19
ENDBRANCH  17  18
ENDBRANCH  16  17
ENDBRANCH  15  16
ENDBRANCH  14  15
ENDBRANCH   1  14
TORSDOF 17
ENDMDL
MODEL 6
REMARK VINA RESULT:      -5.5      5.452      8.979
REMARK  Name = 
REMARK  21 active torsions:
REMARK  status: ('A' for Active; 'I' for Inactive)
REMARK    1  A    between atoms: C_1  and  C_2
REMARK    2  A    between atoms: C_2  and  C_3
REMARK    3  A    between atoms: C_3  and  C_4
REMARK    4  A    between atoms: C_4  and  C_5
REMARK    5  A    between atoms: C_5  and  C_6
REMARK    6  A    between atoms: C_6  and  C_7
REMARK    7  A    between atoms: C_7  and  C_8
REMARK    8  A    between atoms: C_8  and  C_9
REMARK    9  A    between atoms: C_9  and  C_10
REMARK   10  A    between atoms: C_10  and  C_11
REMARK   11  A    between atoms: C_11  and  C_12
REMARK   12  A    between atoms: C_12  and  C_13
REMARK   13  A    between atoms: C_13  and  C_14
REMARK   14  A    between atoms: C_14  and  N_15
REMARK   15  A    between atoms: N_15  and  C_16
REMARK   16  A    between atoms: N_15  and  C_17
REMARK   17  A    between atoms: N_15  and  C_18
REMARK   18  A    between atoms: C_18  and  C_19
REMARK   19  A    between atoms: C_19  and  C_20
REMARK   20  A    between atoms: C_20  and  N_21
REMARK   21  A    between atoms: C_22  and  C_23
REMARK                            x       y       z     vdW  Elec       q    Type
REMARK                         _______ _______ _______ _____ _____    ______ ____
ROOT
ATOM      1  C   UNL     1       2.374   9.093  18.009  0.00  0.00    +0.000 C 
ENDROOT
BRANCH   1   2
ATOM      2  C   UNL     1       0.902   9.519  17.972  0.00  0.00    +0.000 C 
BRANCH   2   3
ATOM      3  N   UNL     1       0.400  10.170  19.278  0.00  0.00    +0.000 N 
ATOM      4  C   UNL     1      -1.085  10.506  19.155  0.00  0.00    +0.000 C 
ATOM      5  C   UNL     1       0.626   9.228  20.457  0.00  0.00    +0.000 C 
BRANCH   3   6
ATOM      6  C   UNL     1       1.241  11.472  19.463  0.00  0.00    +0.000 C 
BRANCH   6   7
ATOM      7  C   UNL     1       0.391  12.694  19.783  0.00  0.00    +0.000 C 
BRANCH   7   8
ATOM      8  C   UNL     1       0.404  13.023  21.274  0.00  0.00    +0.000 C 
BRANCH   8   9
ATOM      9  N   UNL     1      -0.920  12.913  21.860  0.00  0.00    +0.000 N 
ATOM     10  C   UNL     1      -1.224  11.919  22.762  0.00  0.00    +0.000 C 
ATOM     11  C   UNL     1      -2.636  11.959  23.288  0.00  0.00    +0.000 C 
ATOM     12  O   UNL     1      -0.411  11.084  23.141  0.00  0.00    +0.000 OA
ATOM     13  H   UNL     1      -1.673  13.482  21.489  0.00  0.00    +0.000 HD
ENDBRANCH   8   9
ENDBRANCH   7   8
ENDBRANCH   6   7
ENDBRANCH   3   6
ENDBRANCH   2   3
ENDBRANCH   1   2
BRANCH   1  14
ATOM     14  C   UNL     1       2.534   7.596  18.265  0.00  0.00    +0.000 C 
BRANCH  14  15
ATOM     15  C   UNL     1       3.796   7.046  17.613  0.00  0.00    +0.000 C 
BRANCH  15  16
ATOM     16  C   UNL     1       4.293   5.801  18.324  0.00  0.00    +0.000 C 
BRANCH  16  17
ATOM     17  C   UNL     1       5.175   5.000  17.377  0.00  0.00    +0.000 C 
BRANCH  17  18
ATOM     18  C   UNL     1       4.344   3.982  16.622  0.00  0.00    +0.000 C 
BRANCH  18  19
ATOM     19  C   UNL     1       3.026   3.734  17.341  0.00  0.00    +0.000 C 
BRANCH  19  20
ATOM     20  C   UNL     1       2.887   2.256  17.668  0.00  0.00    +0.000 C 
BRANCH  20  21
ATOM     21  C   UNL     1       3.657   1.909  18.933  0.00  0.00    +0.000 C 
BRANCH  21  22
ATOM     22  C   UNL     1       3.115   2.701  20.116  0.00  0.00    +0.000 C 
BRANCH  22  23
ATOM     23  C   UNL     1       1.622   2.449  20.292  0.00  0.00    +0.000 C 
BRANCH  23  25
ATOM     24  C   UNL     1       1.773   4.916  20.715  0.00  0.00    +0.000 C 
ATOM     25  C   UNL     1       0.852   3.764  20.357  0.00  0.00    +0.000 C 
ENDBRANCH  23  25
ENDBRANCH  22  23
ENDBRANCH  21  22
ENDBRANCH  20  21
ENDBRANCH  19  20
ENDBRANCH  18  19
ENDBRANCH  17  18
ENDBRANCH  16  17
ENDBRANCH  15  16
ENDBRANCH  14  15
ENDBRANCH   1  14
TORSDOF 17
ENDMDL
MODEL 7
REMARK VINA RESULT:      -5.5      4.257      7.185
REMARK  Name = 
REMARK  21 active torsions:
REMARK  status: ('A' for Active; 'I' for Inactive)
REMARK    1  A    between atoms: C_1  and  C_2
REMARK    2  A    between atoms: C_2  and  C_3
REMARK    3  A    between atoms: C_3  and  C_4
REMARK    4  A    between atoms: C_4  and  C_5
REMARK    5  A    between atoms: C_5  and  C_6
REMARK    6  A    between atoms: C_6  and  C_7
REMARK    7  A    between atoms: C_7  and  C_8
REMARK    8  A    between atoms: C_8  and  C_9
REMARK    9  A    between atoms: C_9  and  C_10
REMARK   10  A    between atoms: C_10  and  C_11
REMARK   11  A    between atoms: C_11  and  C_12
REMARK   12  A    between atoms: C_12  and  C_13
REMARK   13  A    between atoms: C_13  and  C_14
REMARK   14  A    between atoms: C_14  and  N_15
REMARK   15  A    between atoms: N_15  and  C_16
REMARK   16  A    between atoms: N_15  and  C_17
REMARK   17  A    between atoms: N_15  and  C_18
REMARK   18  A    between atoms: C_18  and  C_19
REMARK   19  A    between atoms: C_19  and  C_20
REMARK   20  A    between atoms: C_20  and  N_21
REMARK   21  A    between atoms: C_22  and  C_23
REMARK                            x       y       z     vdW  Elec       q    Type
REMARK                         _______ _______ _______ _____ _____    ______ ____
ROOT
ATOM      1  C   UNL     1       1.961   6.397  20.533  0.00  0.00    +0.000 C 
ENDROOT
BRANCH   1   2
ATOM      2  C   UNL     1       2.442   5.643  19.288  0.00  0.00    +0.000 C 
BRANCH   2   3
ATOM      3  N   UNL     1       2.204   4.119  19.342  0.00  0.00    +0.000 N 
ATOM      4  C   UNL     1       1.029   3.809  20.269  0.00  0.00    +0.000 C 
ATOM      5  C   UNL     1       1.921   3.580  17.943  0.00  0.00    +0.000 C 
BRANCH   3   6
ATOM      6  C   UNL     1       3.520   3.495  19.902  0.00  0.00    +0.000 C 
BRANCH   6   7
ATOM      7  C   UNL     1       4.486   3.051  18.811  0.00  0.00    +0.000 C 
BRANCH   7   8
ATOM      8  C   UNL     1       5.552   4.107  18.529  0.00  0.00    +0.000 C 
BRANCH   8   9
ATOM      9  N   UNL     1       5.714   4.340  17.106  0.00  0.00    +0.000 N 
ATOM     10  C   UNL     1       6.962   4.456  16.536  0.00  0.00    +0.000 C 
ATOM     11  C   UNL     1       6.954   4.676  15.045  0.00  0.00    +0.000 C 
ATOM     12  O   UNL     1       8.004   4.357  17.174  0.00  0.00    +0.000 OA
ATOM     13  H   UNL     1       4.900   4.567  16.546  0.00  0.00    +0.000 HD
ENDBRANCH   8   9
ENDBRANCH   7   8
ENDBRANCH   6   7
ENDBRANCH   3   6
ENDBRANCH   2   3
ENDBRANCH   1   2
BRANCH   1  14
ATOM     14  C   UNL     1       1.635   7.858  20.230  0.00  0.00    +0.000 C 
BRANCH  14  15
ATOM     15  C   UNL     1       1.122   8.586  21.466  0.00  0.00    +0.000 C 
BRANCH  15  16
ATOM     16  C   UNL     1      -0.111   9.414  21.152  0.00  0.00    +0.000 C 
BRANCH  16  17
ATOM     17  C   UNL     1       0.152  10.867  21.522  0.00  0.00    +0.000 C 
BRANCH  17  18
ATOM     18  C   UNL     1       0.899  11.566  20.403  0.00  0.00    +0.000 C 
BRANCH  18  19
ATOM     19  C   UNL     1       0.321  11.173  19.052  0.00  0.00    +0.000 C 
BRANCH  19  20
ATOM     20  C   UNL     1      -0.480  12.330  18.478  0.00  0.00    +0.000 C 
BRANCH  20  21
ATOM     21  C   UNL     1      -1.901  11.894  18.156  0.00  0.00    +0.000 C 
BRANCH  21  22
ATOM     22  C   UNL     1      -2.009  10.375  18.187  0.00  0.00    +0.000 C 
BRANCH  22  23
ATOM     23  C   UNL     1      -2.131   9.817  16.773  0.00  0.00    +0.000 C 
BRANCH  23  25
ATOM     24  C   UNL     1      -3.226  10.183  14.548  0.00  0.00    +0.000 C 
ATOM     25  C   UNL     1      -2.769  10.840  15.838  0.00  0.00    +0.000 C 
ENDBRANCH  23  25
ENDBRANCH  22  23
ENDBRANCH  21  22
ENDBRANCH  20  21
ENDBRANCH  19  20
ENDBRANCH  18  19
ENDBRANCH  17  18
ENDBRANCH  16  17
ENDBRANCH  15  16
ENDBRANCH  14  15
ENDBRANCH   1  14
TORSDOF 17
ENDMDL
MODEL 8
REMARK VINA RESULT:      -5.5      5.007      7.759
REMARK  Name = 
REMARK  21 active torsions:
REMARK  status: ('A' for Active; 'I' for Inactive)
REMARK    1  A    between atoms: C_1  and  C_2
REMARK    2  A    between atoms: C_2  and  C_3
REMARK    3  A    between atoms: C_3  and  C_4
REMARK    4  A    between atoms: C_4  and  C_5
REMARK    5  A    between atoms: C_5  and  C_6
REMARK    6  A    between atoms: C_6  and  C_7
REMARK    7  A    between atoms: C_7  and  C_8
REMARK    8  A    between atoms: C_8  and  C_9
REMARK    9  A    between atoms: C_9  and  C_10
REMARK   10  A    between atoms: C_10  and  C_11
REMARK   11  A    between atoms: C_11  and  C_12
REMARK   12  A    between atoms: C_12  and  C_13
REMARK   13  A    between atoms: C_13  and  C_14
REMARK   14  A    between atoms: C_14  and  N_15
REMARK   15  A    between atoms: N_15  and  C_16
REMARK   16  A    between atoms: N_15  and  C_17
REMARK   17  A    between atoms: N_15  and  C_18
REMARK   18  A    between atoms: C_18  and  C_19
REMARK   19  A    between atoms: C_19  and  C_20
REMARK   20  A    between atoms: C_20  and  N_21
REMARK   21  A    between atoms: C_22  and  C_23
REMARK                            x       y       z     vdW  Elec       q    Type
REMARK                         _______ _______ _______ _____ _____    ______ ____
ROOT
ATOM      1  C   UNL     1       1.975   8.160  17.970  0.00  0.00    +0.000 C 
ENDROOT
BRANCH   1   2
ATOM      2  C   UNL     1       1.564   8.839  19.282  0.00  0.00    +0.000 C 
BRANCH   2   3
ATOM      3  N   UNL     1       1.034  10.278  19.108  0.00  0.00    +0.000 N 
ATOM      4  C   UNL     1       0.779  10.908  20.477  0.00  0.00    +0.000 C 
ATOM      5  C   UNL     1       2.039  11.119  18.326  0.00  0.00    +0.000 C 
BRANCH   3   6
ATOM      6  C   UNL     1      -0.300  10.155  18.307  0.00  0.00    +0.000 C 
BRANCH   6   7
ATOM      7  C   UNL     1      -1.441  10.961  18.914  0.00  0.00    +0.000 C 
BRANCH   7   8
ATOM      8  C   UNL     1      -2.267  11.672  17.845  0.00  0.00    +0.000 C 
BRANCH   8   9
ATOM      9  N   UNL     1      -2.152  11.018  16.554  0.00  0.00    +0.000 N 
ATOM     10  C   UNL     1      -3.259  10.769  15.775  0.00  0.00    +0.000 C 
ATOM     11  C   UNL     1      -2.962  10.102  14.457  0.00  0.00    +0.000 C 
ATOM     12  O   UNL     1      -4.396  11.090  16.102  0.00  0.00    +0.000 OA
ATOM     13  H   UNL     1      -1.264  10.607  16.286  0.00  0.00    +0.000 HD
ENDBRANCH   8   9
ENDBRANCH   7   8
ENDBRANCH   6   7
ENDBRANCH   3   6
ENDBRANCH   2   3
ENDBRANCH   1   2
BRANCH   1  14
ATOM     14  C   UNL     1       3.459   7.801  17.949  0.00  0.00    +0.000 C 
BRANCH  14  15
ATOM     15  C   UNL     1       3.732   6.592  17.063  0.00  0.00    +0.000 C 
BRANCH  15  16
ATOM     16  C   UNL     1       5.215   6.425  16.791  0.00  0.00    +0.000 C 
BRANCH  16  17
ATOM     17  C   UNL     1       5.908   5.949  18.059  0.00  0.00    +0.000 C 
BRANCH  17  18
ATOM     18  C   UNL     1       5.805   4.441  18.179  0.00  0.00    +0.000 C 
BRANCH  18  19
ATOM     19  C   UNL     1       4.507   4.051  18.869  0.00  0.00    +0.000 C 
BRANCH  19  20
ATOM     20  C   UNL     1       3.879   2.865  18.156  0.00  0.00    +0.000 C 
BRANCH  20  21
ATOM     21  C   UNL     1       2.772   3.324  17.218  0.00  0.00    +0.000 C 
BRANCH  21  22
ATOM     22  C   UNL     1       1.595   3.869  18.016  0.00  0.00    +0.000 C 
BRANCH  22  23
ATOM     23  C   UNL     1       1.074   2.818  18.989  0.00  0.00    +0.000 C 
BRANCH  23  25
ATOM     24  C   UNL     1       1.454   4.815  20.457  0.00  0.00    +0.000 C 
ATOM     25  C   UNL     1       1.119   3.334  20.424  0.00  0.00    +0.000 C 
ENDBRANCH  23  25
ENDBRANCH  22  23
ENDBRANCH  21  22
ENDBRANCH  20  21
ENDBRANCH  19  20
ENDBRANCH  18  19
ENDBRANCH  17  18
ENDBRANCH  16  17
ENDBRANCH  15  16
ENDBRANCH  14  15
ENDBRANCH   1  14
TORSDOF 17
ENDMDL
MODEL 9
REMARK VINA RESULT:      -5.4      5.050      7.682
REMARK  Name = 
REMARK  21 active torsions:
REMARK  status: ('A' for Active; 'I' for Inactive)
REMARK    1  A    between atoms: C_1  and  C_2
REMARK    2  A    between atoms: C_2  and  C_3
REMARK    3  A    between atoms: C_3  and  C_4
REMARK    4  A    between atoms: C_4  and  C_5
REMARK    5  A    between atoms: C_5  and  C_6
REMARK    6  A    between atoms: C_6  and  C_7
REMARK    7  A    between atoms: C_7  and  C_8
REMARK    8  A    between atoms: C_8  and  C_9
REMARK    9  A    between atoms: C_9  and  C_10
REMARK   10  A    between atoms: C_10  and  C_11
REMARK   11  A    between atoms: C_11  and  C_12
REMARK   12  A    between atoms: C_12  and  C_13
REMARK   13  A    between atoms: C_13  and  C_14
REMARK   14  A    between atoms: C_14  and  N_15
REMARK   15  A    between atoms: N_15  and  C_16
REMARK   16  A    between atoms: N_15  and  C_17
REMARK   17  A    between atoms: N_15  and  C_18
REMARK   18  A    between atoms: C_18  and  C_19
REMARK   19  A    between atoms: C_19  and  C_20
REMARK   20  A    between atoms: C_20  and  N_21
REMARK   21  A    between atoms: C_22  and  C_23
REMARK                            x       y       z     vdW  Elec       q    Type
REMARK                         _______ _______ _______ _____ _____    ______ ____
ROOT
ATOM      1  C   UNL     1       1.753   7.997  18.114  0.00  0.00    +0.000 C 
ENDROOT
BRANCH   1   2
ATOM      2  C   UNL     1       1.719   9.529  18.126  0.00  0.00    +0.000 C 
BRANCH   2   3
ATOM      3  N   UNL     1       0.867  10.133  19.262  0.00  0.00    +0.000 N 
ATOM      4  C   UNL     1       0.851   9.184  20.460  0.00  0.00    +0.000 C 
ATOM      5  C   UNL     1       1.428  11.489  19.678  0.00  0.00    +0.000 C 
BRANCH   3   6
ATOM      6  C   UNL     1      -0.572  10.302  18.681  0.00  0.00    +0.000 C 
BRANCH   6   7
ATOM      7  C   UNL     1      -1.009  11.757  18.576  0.00  0.00    +0.000 C 
BRANCH   7   8
ATOM      8  C   UNL     1      -2.288  11.910  17.755  0.00  0.00    +0.000 C 
BRANCH   8   9
ATOM      9  N   UNL     1      -2.179  11.254  16.465  0.00  0.00    +0.000 N 
ATOM     10  C   UNL     1      -3.287  10.754  15.820  0.00  0.00    +0.000 C 
ATOM     11  C   UNL     1      -3.002  10.122  14.482  0.00  0.00    +0.000 C 
ATOM     12  O   UNL     1      -4.423  10.840  16.272  0.00  0.00    +0.000 OA
ATOM     13  H   UNL     1      -1.259  11.029  16.101  0.00  0.00    +0.000 HD
ENDBRANCH   8   9
ENDBRANCH   7   8
ENDBRANCH   6   7
ENDBRANCH   3   6
ENDBRANCH   2   3
ENDBRANCH   1   2
BRANCH   1  14
ATOM     14  C   UNL     1       3.160   7.450  18.348  0.00  0.00    +0.000 C 
BRANCH  14  15
ATOM     15  C   UNL     1       3.160   6.325  19.375  0.00  0.00    +0.000 C 
BRANCH  15  16
ATOM     16  C   UNL     1       1.807   5.643  19.454  0.00  0.00    +0.000 C 
BRANCH  16  17
ATOM     17  C   UNL     1       1.689   4.912  20.783  0.00  0.00    +0.000 C 
BRANCH  17  18
ATOM     18  C   UNL     1       1.300   3.464  20.553  0.00  0.00    +0.000 C 
BRANCH  18  19
ATOM     19  C   UNL     1       2.532   2.625  20.254  0.00  0.00    +0.000 C 
BRANCH  19  20
ATOM     20  C   UNL     1       2.441   2.058  18.846  0.00  0.00    +0.000 C 
BRANCH  20  21
ATOM     21  C   UNL     1       3.672   2.432  18.035  0.00  0.00    +0.000 C 
BRANCH  21  22
ATOM     22  C   UNL     1       3.309   3.444  16.956  0.00  0.00    +0.000 C 
BRANCH  22  23
ATOM     23  C   UNL     1       4.447   4.436  16.746  0.00  0.00    +0.000 C 
BRANCH  23  25
ATOM     24  C   UNL     1       6.211   4.817  15.005  0.00  0.00    +0.000 C 
ATOM     25  C   UNL     1       5.579   3.804  15.943  0.00  0.00    +0.000 C 
ENDBRANCH  23  25
ENDBRANCH  22  23
ENDBRANCH  21  22
ENDBRANCH  20  21
ENDBRANCH  19  20
ENDBRANCH  18  19
ENDBRANCH  17  18
ENDBRANCH  16  17
ENDBRANCH  15  16
ENDBRANCH  14  15
ENDBRANCH   1  14
TORSDOF 17
ENDMDL
