MODEL 1
REMARK VINA RESULT:      -8.0      0.000      0.000
REMARK  Name = 
REMARK  6 active torsions:
REMARK  status: ('A' for Active; 'I' for Inactive)
REMARK    1  A    between atoms: C_1  and  C_2
REMARK    2  A    between atoms: C_7  and  C_8
REMARK    3  A    between atoms: C_7  and  C_9
REMARK    4  A    between atoms: C_10  and  N_11
REMARK    5  A    between atoms: N_11  and  S_12
REMARK    6  A    between atoms: S_12  and  C_15
REMARK                            x       y       z     vdW  Elec       q    Type
REMARK                         _______ _______ _______ _____ _____    ______ ____
ROOT
ATOM      1  N   UNL     1       3.527   4.979  18.289  0.00  0.00    +0.000 NA
ATOM      2  H   UNL     1       2.723   5.431  17.856  0.00  0.00    +0.000 HD
ENDROOT
BRANCH   1  12
ATOM      3  C   UNL     1       1.823   6.036  20.620  0.00  0.00    +0.000 C 
ATOM      4  C   UNL     1       2.099   4.570  20.378  0.00  0.00    +0.000 C 
ATOM      5  C   UNL     1       2.249   3.812  21.724  0.00  0.00    +0.000 C 
ATOM      6  C   UNL     1       1.766   2.401  21.387  0.00  0.00    +0.000 C 
ATOM      7  C   UNL     1       1.520   2.471  19.872  0.00  0.00    +0.000 C 
ATOM      8  C   UNL     1       0.894   3.858  19.754  0.00  0.00    +0.000 C 
ATOM      9  C   UNL     1       2.845   2.648  19.055  0.00  0.00    +0.000 C 
ATOM     10  C   UNL     1       3.899   1.590  19.422  0.00  0.00    +0.000 C 
ATOM     11  C   UNL     1       2.512   2.425  17.559  0.00  0.00    +0.000 C 
ATOM     12  C   UNL     1       3.300   4.125  19.469  0.00  0.00    +0.000 C 
ENDBRANCH   1  12
BRANCH   1  13
ATOM     13  S   UNL     1       4.943   5.803  17.936  0.00  0.00    +0.000 S 
ATOM     14  O   UNL     1       4.512   7.135  17.567  0.00  0.00    +0.000 OA
ATOM     15  O   UNL     1       5.916   5.629  18.993  0.00  0.00    +0.000 OA
BRANCH  13  16
ATOM     16  C   UNL     1       5.645   5.071  16.482  0.00  0.00    +0.000 A 
ATOM     17  C   UNL     1       4.821   4.343  15.615  0.00  0.00    +0.000 A 
ATOM     18  C   UNL     1       5.302   3.988  14.355  0.00  0.00    +0.000 A 
ATOM     19  C   UNL     1       6.583   4.377  13.966  0.00  0.00    +0.000 A 
ATOM     20  F   UNL     1       7.018   4.074  12.735  0.00  0.00    +0.000 F 
ATOM     21  C   UNL     1       7.406   5.100  14.822  0.00  0.00    +0.000 A 
ATOM     22  C   UNL     1       6.938   5.450  16.087  0.00  0.00    +0.000 A 
ENDBRANCH  13  16
ENDBRANCH   1  13
TORSDOF 3
ENDMDL
MODEL 2
REMARK VINA RESULT:      -7.9      1.254      1.408
REMARK  Name = 
REMARK  6 active torsions:
REMARK  status: ('A' for Active; 'I' for Inactive)
REMARK    1  A    between atoms: C_1  and  C_2
REMARK    2  A    between atoms: C_7  and  C_8
REMARK    3  A    between atoms: C_7  and  C_9
REMARK    4  A    between atoms: C_10  and  N_11
REMARK    5  A    between atoms: N_11  and  S_12
REMARK    6  A    between atoms: S_12  and  C_15
REMARK                            x       y       z     vdW  Elec       q    Type
REMARK                         _______ _______ _______ _____ _____    ______ ____
ROOT
ATOM      1  N   UNL     1       4.539   4.221  17.631  0.00  0.00    +0.000 NA
ATOM      2  H   UNL     1       3.991   4.145  16.776  0.00  0.00    +0.000 HD
ENDROOT
BRANCH   1  12
ATOM      3  C   UNL     1       2.345   6.309  18.161  0.00  0.00    +0.000 C 
ATOM      4  C   UNL     1       2.476   5.013  18.928  0.00  0.00    +0.000 C 
ATOM      5  C   UNL     1       2.080   5.215  20.415  0.00  0.00    +0.000 C 
ATOM      6  C   UNL     1       1.537   3.844  20.822  0.00  0.00    +0.000 C 
ATOM      7  C   UNL     1       1.802   2.983  19.577  0.00  0.00    +0.000 C 
ATOM      8  C   UNL     1       1.447   3.973  18.471  0.00  0.00    +0.000 C 
ATOM      9  C   UNL     1       3.329   2.751  19.321  0.00  0.00    +0.000 C 
ATOM     10  C   UNL     1       4.051   2.207  20.565  0.00  0.00    +0.000 C 
ATOM     11  C   UNL     1       3.465   1.658  18.231  0.00  0.00    +0.000 C 
ATOM     12  C   UNL     1       3.830   4.217  18.923  0.00  0.00    +0.000 C 
ENDBRANCH   1  12
BRANCH   1  13
ATOM     13  S   UNL     1       6.023   4.944  17.332  0.00  0.00    +0.000 S 
ATOM     14  O   UNL     1       5.755   6.366  17.372  0.00  0.00    +0.000 OA
ATOM     15  O   UNL     1       7.049   4.381  18.183  0.00  0.00    +0.000 OA
BRANCH  13  16
ATOM     16  C   UNL     1       6.484   4.557  15.665  0.00  0.00    +0.000 A 
ATOM     17  C   UNL     1       5.642   3.753  14.889  0.00  0.00    +0.000 A 
ATOM     18  C   UNL     1       5.864   3.658  13.515  0.00  0.00    +0.000 A 
ATOM     19  C   UNL     1       6.905   4.377  12.928  0.00  0.00    +0.000 A 
ATOM     20  F   UNL     1       7.080   4.318  11.601  0.00  0.00    +0.000 F 
ATOM     21  C   UNL     1       7.745   5.177  13.694  0.00  0.00    +0.000 A 
ATOM     22  C   UNL     1       7.537   5.270  15.068  0.00  0.00    +0.000 A 
ENDBRANCH  13  16
ENDBRANCH   1  13
TORSDOF 3
ENDMDL
MODEL 3
REMARK VINA RESULT:      -7.9      2.708      3.354
REMARK  Name = 
REMARK  6 active torsions:
REMARK  status: ('A' for Active; 'I' for Inactive)
REMARK    1  A    between atoms: C_1  and  C_2
REMARK    2  A    between atoms: C_7  and  C_8
REMARK    3  A    between atoms: C_7  and  C_9
REMARK    4  A    between atoms: C_10  and  N_11
REMARK    5  A    between atoms: N_11  and  S_12
REMARK    6  A    between atoms: S_12  and  C_15
REMARK                            x       y       z     vdW  Elec       q    Type
REMARK                         _______ _______ _______ _____ _____    ______ ____
ROOT
ATOM      1  N   UNL     1       4.142   4.194  16.869  0.00  0.00    +0.000 NA
ATOM      2  H   UNL     1       3.350   4.143  16.231  0.00  0.00    +0.000 HD
ENDROOT
BRANCH   1  12
ATOM      3  C   UNL     1       2.520   6.602  17.883  0.00  0.00    +0.000 C 
ATOM      4  C   UNL     1       2.708   5.324  18.667  0.00  0.00    +0.000 C 
ATOM      5  C   UNL     1       2.823   5.625  20.186  0.00  0.00    +0.000 C 
ATOM      6  C   UNL     1       2.255   4.364  20.837  0.00  0.00    +0.000 C 
ATOM      7  C   UNL     1       2.003   3.438  19.638  0.00  0.00    +0.000 C 
ATOM      8  C   UNL     1       1.459   4.437  18.621  0.00  0.00    +0.000 C 
ATOM      9  C   UNL     1       3.330   2.971  18.949  0.00  0.00    +0.000 C 
ATOM     10  C   UNL     1       4.323   2.361  19.953  0.00  0.00    +0.000 C 
ATOM     11  C   UNL     1       2.973   1.839  17.953  0.00  0.00    +0.000 C 
ATOM     12  C   UNL     1       3.874   4.333  18.311  0.00  0.00    +0.000 C 
ENDBRANCH   1  12
BRANCH   1  13
ATOM     13  S   UNL     1       5.521   4.723  16.074  0.00  0.00    +0.000 S 
ATOM     14  O   UNL     1       6.338   3.537  15.925  0.00  0.00    +0.000 OA
ATOM     15  O   UNL     1       5.173   5.508  14.909  0.00  0.00    +0.000 OA
BRANCH  13  16
ATOM     16  C   UNL     1       6.391   5.810  17.171  0.00  0.00    +0.000 A 
ATOM     17  C   UNL     1       7.197   5.267  18.178  0.00  0.00    +0.000 A 
ATOM     18  C   UNL     1       8.077   6.099  18.871  0.00  0.00    +0.000 A 
ATOM     19  C   UNL     1       8.159   7.451  18.541  0.00  0.00    +0.000 A 
ATOM     20  F   UNL     1       9.042   8.232  19.179  0.00  0.00    +0.000 F 
ATOM     21  C   UNL     1       7.360   7.996  17.542  0.00  0.00    +0.000 A 
ATOM     22  C   UNL     1       6.471   7.175  16.852  0.00  0.00    +0.000 A 
ENDBRANCH  13  16
ENDBRANCH   1  13
TORSDOF 3
ENDMDL
MODEL 4
REMARK VINA RESULT:      -7.8      1.227      1.749
REMARK  Name = 
REMARK  6 active torsions:
REMARK  status: ('A' for Active; 'I' for Inactive)
REMARK    1  A    between atoms: C_1  and  C_2
REMARK    2  A    between atoms: C_7  and  C_8
REMARK    3  A    between atoms: C_7  and  C_9
REMARK    4  A    between atoms: C_10  and  N_11
REMARK    5  A    between atoms: N_11  and  S_12
REMARK    6  A    between atoms: S_12  and  C_15
REMARK                            x       y       z     vdW  Elec       q    Type
REMARK                         _______ _______ _______ _____ _____    ______ ____
ROOT
ATOM      1  N   UNL     1       4.542   3.977  17.845  0.00  0.00    +0.000 NA
ATOM      2  H   UNL     1       4.104   3.647  16.986  0.00  0.00    +0.000 HD
ENDROOT
BRANCH   1  12
ATOM      3  C   UNL     1       2.316   6.094  17.978  0.00  0.00    +0.000 C 
ATOM      4  C   UNL     1       2.369   4.872  18.866  0.00  0.00    +0.000 C 
ATOM      5  C   UNL     1       1.835   5.204  20.285  0.00  0.00    +0.000 C 
ATOM      6  C   UNL     1       1.251   3.873  20.760  0.00  0.00    +0.000 C 
ATOM      7  C   UNL     1       1.628   2.905  19.627  0.00  0.00    +0.000 C 
ATOM      8  C   UNL     1       1.384   3.791  18.409  0.00  0.00    +0.000 C 
ATOM      9  C   UNL     1       3.172   2.658  19.538  0.00  0.00    +0.000 C 
ATOM     10  C   UNL     1       3.772   2.230  20.888  0.00  0.00    +0.000 C 
ATOM     11  C   UNL     1       3.405   1.472  18.568  0.00  0.00    +0.000 C 
ATOM     12  C   UNL     1       3.714   4.084  19.059  0.00  0.00    +0.000 C 
ENDBRANCH   1  12
BRANCH   1  13
ATOM     13  S   UNL     1       5.911   4.886  17.510  0.00  0.00    +0.000 S 
ATOM     14  O   UNL     1       5.546   6.243  17.857  0.00  0.00    +0.000 OA
ATOM     15  O   UNL     1       7.085   4.283  18.103  0.00  0.00    +0.000 OA
BRANCH  13  16
ATOM     16  C   UNL     1       6.162   4.856  15.756  0.00  0.00    +0.000 A 
ATOM     17  C   UNL     1       7.386   5.285  15.230  0.00  0.00    +0.000 A 
ATOM     18  C   UNL     1       7.682   5.025  13.892  0.00  0.00    +0.000 A 
ATOM     19  C   UNL     1       6.770   4.326  13.101  0.00  0.00    +0.000 A 
ATOM     20  F   UNL     1       7.085   4.039  11.831  0.00  0.00    +0.000 F 
ATOM     21  C   UNL     1       5.552   3.899  13.617  0.00  0.00    +0.000 A 
ATOM     22  C   UNL     1       5.243   4.163  14.950  0.00  0.00    +0.000 A 
ENDBRANCH  13  16
ENDBRANCH   1  13
TORSDOF 3
ENDMDL
MODEL 5
REMARK VINA RESULT:      -7.8      2.688      3.901
REMARK  Name = 
REMARK  6 active torsions:
REMARK  status: ('A' for Active; 'I' for Inactive)
REMARK    1  A    between atoms: C_1  and  C_2
REMARK    2  A    between atoms: C_7  and  C_8
REMARK    3  A    between atoms: C_7  and  C_9
REMARK    4  A    between atoms: C_10  and  N_11
REMARK    5  A    between atoms: N_11  and  S_12
REMARK    6  A    between atoms: S_12  and  C_15
REMARK                            x       y       z     vdW  Elec       q    Type
REMARK                         _______ _______ _______ _____ _____    ______ ____
ROOT
ATOM      1  N   UNL     1       4.881   3.657  17.673  0.00  0.00    +0.000 NA
ATOM      2  H   UNL     1       5.473   2.886  17.976  0.00  0.00    +0.000 HD
ENDROOT
BRANCH   1  12
ATOM      3  C   UNL     1       3.656   1.015  18.658  0.00  0.00    +0.000 C 
ATOM      4  C   UNL     1       3.002   2.365  18.842  0.00  0.00    +0.000 C 
ATOM      5  C   UNL     1       1.459   2.248  18.718  0.00  0.00    +0.000 C 
ATOM      6  C   UNL     1       0.948   3.371  19.621  0.00  0.00    +0.000 C 
ATOM      7  C   UNL     1       2.240   4.083  20.052  0.00  0.00    +0.000 C 
ATOM      8  C   UNL     1       3.159   2.884  20.274  0.00  0.00    +0.000 C 
ATOM      9  C   UNL     1       2.950   4.814  18.863  0.00  0.00    +0.000 C 
ATOM     10  C   UNL     1       1.996   5.754  18.107  0.00  0.00    +0.000 C 
ATOM     11  C   UNL     1       4.062   5.714  19.458  0.00  0.00    +0.000 C 
ATOM     12  C   UNL     1       3.437   3.588  17.958  0.00  0.00    +0.000 C 
ENDBRANCH   1  12
BRANCH   1  13
ATOM     13  S   UNL     1       5.590   4.497  16.406  0.00  0.00    +0.000 S 
ATOM     14  O   UNL     1       6.339   3.496  15.675  0.00  0.00    +0.000 OA
ATOM     15  O   UNL     1       4.610   5.308  15.716  0.00  0.00    +0.000 OA
BRANCH  13  16
ATOM     16  C   UNL     1       6.774   5.619  17.098  0.00  0.00    +0.000 A 
ATOM     17  C   UNL     1       6.818   6.940  16.638  0.00  0.00    +0.000 A 
ATOM     18  C   UNL     1       7.559   7.885  17.348  0.00  0.00    +0.000 A 
ATOM     19  C   UNL     1       8.228   7.511  18.513  0.00  0.00    +0.000 A 
ATOM     20  F   UNL     1       8.897   8.436  19.214  0.00  0.00    +0.000 F 
ATOM     21  C   UNL     1       8.189   6.200  18.974  0.00  0.00    +0.000 A 
ATOM     22  C   UNL     1       7.460   5.247  18.266  0.00  0.00    +0.000 A 
ENDBRANCH  13  16
ENDBRANCH   1  13
TORSDOF 3
ENDMDL
MODEL 6
REMARK VINA RESULT:      -7.7      0.633      1.230
REMARK  Name = 
REMARK  6 active torsions:
REMARK  status: ('A' for Active; 'I' for Inactive)
REMARK    1  A    between atoms: C_1  and  C_2
REMARK    2  A    between atoms: C_7  and  C_8
REMARK    3  A    between atoms: C_7  and  C_9
REMARK    4  A    between atoms: C_10  and  N_11
REMARK    5  A    between atoms: N_11  and  S_12
REMARK    6  A    between atoms: S_12  and  C_15
REMARK                            x       y       z     vdW  Elec       q    Type
REMARK                         _______ _______ _______ _____ _____    ______ ____
ROOT
ATOM      1  N   UNL     1       4.064   4.787  18.373  0.00  0.00    +0.000 NA
ATOM      2  H   UNL     1       3.357   5.313  17.863  0.00  0.00    +0.000 HD
ENDROOT
BRANCH   1  12
ATOM      3  C   UNL     1       1.904   6.048  20.162  0.00  0.00    +0.000 C 
ATOM      4  C   UNL     1       2.301   4.591  20.223  0.00  0.00    +0.000 C 
ATOM      5  C   UNL     1       2.243   4.068  21.683  0.00  0.00    +0.000 C 
ATOM      6  C   UNL     1       1.908   2.586  21.511  0.00  0.00    +0.000 C 
ATOM      7  C   UNL     1       1.942   2.398  19.987  0.00  0.00    +0.000 C 
ATOM      8  C   UNL     1       1.273   3.691  19.529  0.00  0.00    +0.000 C 
ATOM      9  C   UNL     1       3.383   2.556  19.393  0.00  0.00    +0.000 C 
ATOM     10  C   UNL     1       4.409   1.661  20.110  0.00  0.00    +0.000 C 
ATOM     11  C   UNL     1       3.344   2.074  17.922  0.00  0.00    +0.000 C 
ATOM     12  C   UNL     1       3.672   4.113  19.623  0.00  0.00    +0.000 C 
ENDBRANCH   1  12
BRANCH   1  13
ATOM     13  S   UNL     1       5.605   5.331  17.996  0.00  0.00    +0.000 S 
ATOM     14  O   UNL     1       5.547   6.765  18.186  0.00  0.00    +0.000 OA
ATOM     15  O   UNL     1       6.608   4.553  18.692  0.00  0.00    +0.000 OA
BRANCH  13  16
ATOM     16  C   UNL     1       5.866   5.053  16.266  0.00  0.00    +0.000 A 
ATOM     17  C   UNL     1       7.126   5.310  15.711  0.00  0.00    +0.000 A 
ATOM     18  C   UNL     1       7.410   4.856  14.424  0.00  0.00    +0.000 A 
ATOM     19  C   UNL     1       6.450   4.137  13.713  0.00  0.00    +0.000 A 
ATOM     20  F   UNL     1       6.750   3.663  12.496  0.00  0.00    +0.000 F 
ATOM     21  C   UNL     1       5.197   3.880  14.257  0.00  0.00    +0.000 A 
ATOM     22  C   UNL     1       4.900   4.338  15.539  0.00  0.00    +0.000 A 
ENDBRANCH  13  16
ENDBRANCH   1  13
TORSDOF 3
ENDMDL
MODEL 7
REMARK VINA RESULT:      -7.6      1.697      2.035
REMARK  Name = 
REMARK  6 active torsions:
REMARK  status: ('A' for Active; 'I' for Inactive)
REMARK    1  A    between atoms: C_1  and  C_2
REMARK    2  A    between atoms: C_7  and  C_8
REMARK    3  A    between atoms: C_7  and  C_9
REMARK    4  A    between atoms: C_10  and  N_11
REMARK    5  A    between atoms: N_11  and  S_12
REMARK    6  A    between atoms: S_12  and  C_15
REMARK                            x       y       z     vdW  Elec       q    Type
REMARK                         _______ _______ _______ _____ _____    ______ ____
ROOT
ATOM      1  N   UNL     1       4.822   5.341  17.002  0.00  0.00    +0.000 NA
ATOM      2  H   UNL     1       4.309   5.797  16.250  0.00  0.00    +0.000 HD
ENDROOT
BRANCH   1  12
ATOM      3  C   UNL     1       2.702   7.389  17.878  0.00  0.00    +0.000 C 
ATOM      4  C   UNL     1       2.830   6.004  18.471  0.00  0.00    +0.000 C 
ATOM      5  C   UNL     1       2.495   6.025  19.987  0.00  0.00    +0.000 C 
ATOM      6  C   UNL     1       1.934   4.625  20.241  0.00  0.00    +0.000 C 
ATOM      7  C   UNL     1       2.130   3.923  18.888  0.00  0.00    +0.000 C 
ATOM      8  C   UNL     1       1.759   5.051  17.930  0.00  0.00    +0.000 C 
ATOM      9  C   UNL     1       3.640   3.694  18.543  0.00  0.00    +0.000 C 
ATOM     10  C   UNL     1       4.395   2.983  19.679  0.00  0.00    +0.000 C 
ATOM     11  C   UNL     1       3.707   2.744  17.321  0.00  0.00    +0.000 C 
ATOM     12  C   UNL     1       4.162   5.188  18.311  0.00  0.00    +0.000 C 
ENDBRANCH   1  12
BRANCH   1  13
ATOM     13  S   UNL     1       6.477   5.439  16.746  0.00  0.00    +0.000 S 
ATOM     14  O   UNL     1       6.761   6.858  16.717  0.00  0.00    +0.000 OA
ATOM     15  O   UNL     1       7.190   4.581  17.667  0.00  0.00    +0.000 OA
BRANCH  13  16
ATOM     16  C   UNL     1       6.808   4.817  15.120  0.00  0.00    +0.000 A 
ATOM     17  C   UNL     1       5.932   3.885  14.550  0.00  0.00    +0.000 A 
ATOM     18  C   UNL     1       6.040   3.590  13.191  0.00  0.00    +0.000 A 
ATOM     19  C   UNL     1       7.000   4.237  12.414  0.00  0.00    +0.000 A 
ATOM     20  F   UNL     1       7.063   3.983  11.100  0.00  0.00    +0.000 F 
ATOM     21  C   UNL     1       7.873   5.163  12.974  0.00  0.00    +0.000 A 
ATOM     22  C   UNL     1       7.780   5.456  14.333  0.00  0.00    +0.000 A 
ENDBRANCH  13  16
ENDBRANCH   1  13
TORSDOF 3
ENDMDL
MODEL 8
REMARK VINA RESULT:      -7.5      2.780      4.005
REMARK  Name = 
REMARK  6 active torsions:
REMARK  status: ('A' for Active; 'I' for Inactive)
REMARK    1  A    between atoms: C_1  and  C_2
REMARK    2  A    between atoms: C_7  and  C_8
REMARK    3  A    between atoms: C_7  and  C_9
REMARK    4  A    between atoms: C_10  and  N_11
REMARK    5  A    between atoms: N_11  and  S_12
REMARK    6  A    between atoms: S_12  and  C_15
REMARK                            x       y       z     vdW  Elec       q    Type
REMARK                         _______ _______ _______ _____ _____    ______ ____
ROOT
ATOM      1  N   UNL     1       4.998   3.711  17.768  0.00  0.00    +0.000 NA
ATOM      2  H   UNL     1       5.586   2.926  18.043  0.00  0.00    +0.000 HD
ENDROOT
BRANCH   1  12
ATOM      3  C   UNL     1       3.786   0.995  18.548  0.00  0.00    +0.000 C 
ATOM      4  C   UNL     1       3.078   2.317  18.737  0.00  0.00    +0.000 C 
ATOM      5  C   UNL     1       1.553   2.161  18.492  0.00  0.00    +0.000 C 
ATOM      6  C   UNL     1       0.942   3.230  19.398  0.00  0.00    +0.000 C 
ATOM      7  C   UNL     1       2.175   3.958  19.955  0.00  0.00    +0.000 C 
ATOM      8  C   UNL     1       3.112   2.779  20.197  0.00  0.00    +0.000 C 
ATOM      9  C   UNL     1       2.948   4.760  18.854  0.00  0.00    +0.000 C 
ATOM     10  C   UNL     1       2.024   5.704  18.066  0.00  0.00    +0.000 C 
ATOM     11  C   UNL     1       3.983   5.665  19.567  0.00  0.00    +0.000 C 
ATOM     12  C   UNL     1       3.539   3.589  17.939  0.00  0.00    +0.000 C 
ENDBRANCH   1  12
BRANCH   1  13
ATOM     13  S   UNL     1       5.773   4.675  16.635  0.00  0.00    +0.000 S 
ATOM     14  O   UNL     1       6.799   3.825  16.069  0.00  0.00    +0.000 OA
ATOM     15  O   UNL     1       4.812   5.318  15.766  0.00  0.00    +0.000 OA
BRANCH  13  16
ATOM     16  C   UNL     1       6.606   5.971  17.511  0.00  0.00    +0.000 A 
ATOM     17  C   UNL     1       7.473   5.643  18.560  0.00  0.00    +0.000 A 
ATOM     18  C   UNL     1       8.320   6.624  19.076  0.00  0.00    +0.000 A 
ATOM     19  C   UNL     1       8.308   7.908  18.533  0.00  0.00    +0.000 A 
ATOM     20  F   UNL     1       9.160   8.830  19.004  0.00  0.00    +0.000 F 
ATOM     21  C   UNL     1       7.449   8.240  17.492  0.00  0.00    +0.000 A 
ATOM     22  C   UNL     1       6.592   7.270  16.976  0.00  0.00    +0.000 A 
ENDBRANCH  13  16
ENDBRANCH   1  13
TORSDOF 3
ENDMDL
MODEL 9
REMARK VINA RESULT:      -7.5      2.662      3.279
REMARK  Name = 
REMARK  6 active torsions:
REMARK  status: ('A' for Active; 'I' for Inactive)
REMARK    1  A    between atoms: C_1  and  C_2
REMARK    2  A    between atoms: C_7  and  C_8
REMARK    3  A    between atoms: C_7  and  C_9
REMARK    4  A    between atoms: C_10  and  N_11
REMARK    5  A    between atoms: N_11  and  S_12
REMARK    6  A    between atoms: S_12  and  C_15
REMARK                            x       y       z     vdW  Elec       q    Type
REMARK                         _______ _______ _______ _____ _____    ______ ____
ROOT
ATOM      1  N   UNL     1       3.943   4.299  16.713  0.00  0.00    +0.000 NA
ATOM      2  H   UNL     1       3.172   4.628  16.133  0.00  0.00    +0.000 HD
ENDROOT
BRANCH   1  12
ATOM      3  C   UNL     1       2.499   6.732  17.917  0.00  0.00    +0.000 C 
ATOM      4  C   UNL     1       2.726   5.436  18.661  0.00  0.00    +0.000 C 
ATOM      5  C   UNL     1       3.000   5.708  20.164  0.00  0.00    +0.000 C 
ATOM      6  C   UNL     1       2.463   4.452  20.851  0.00  0.00    +0.000 C 
ATOM      7  C   UNL     1       2.067   3.553  19.669  0.00  0.00    +0.000 C 
ATOM      8  C   UNL     1       1.454   4.585  18.726  0.00  0.00    +0.000 C 
ATOM      9  C   UNL     1       3.306   3.063  18.845  0.00  0.00    +0.000 C 
ATOM     10  C   UNL     1       4.375   2.409  19.737  0.00  0.00    +0.000 C 
ATOM     11  C   UNL     1       2.820   1.959  17.874  0.00  0.00    +0.000 C 
ATOM     12  C   UNL     1       3.823   4.421  18.176  0.00  0.00    +0.000 C 
ENDBRANCH   1  12
BRANCH   1  13
ATOM     13  S   UNL     1       5.379   4.280  15.847  0.00  0.00    +0.000 S 
ATOM     14  O   UNL     1       5.849   2.914  15.944  0.00  0.00    +0.000 OA
ATOM     15  O   UNL     1       5.203   4.889  14.547  0.00  0.00    +0.000 OA
BRANCH  13  16
ATOM     16  C   UNL     1       6.548   5.286  16.720  0.00  0.00    +0.000 A 
ATOM     17  C   UNL     1       6.556   6.669  16.507  0.00  0.00    +0.000 A 
ATOM     18  C   UNL     1       7.286   7.487  17.369  0.00  0.00    +0.000 A 
ATOM     19  C   UNL     1       7.980   6.925  18.440  0.00  0.00    +0.000 A 
ATOM     20  F   UNL     1       8.638   7.724  19.291  0.00  0.00    +0.000 F 
ATOM     21  C   UNL     1       7.976   5.551  18.656  0.00  0.00    +0.000 A 
ATOM     22  C   UNL     1       7.259   4.725  17.794  0.00  0.00    +0.000 A 
ENDBRANCH  13  16
ENDBRANCH   1  13
TORSDOF 3
ENDMDL
