MODEL 1
REMARK VINA RESULT:      -8.0      0.000      0.000
REMARK  Name = 
REMARK  6 active torsions:
REMARK  status: ('A' for Active; 'I' for Inactive)
REMARK    1  A    between atoms: C_1  and  C_2
REMARK    2  A    between atoms: C_5  and  C_6
REMARK    3  A    between atoms: N_7  and  C_8
REMARK    4  A    between atoms: C_11  and  C_12
REMARK    5  A    between atoms: N_14  and  C_15
REMARK    6  A    between atoms: C_15  and  C_16
REMARK                            x       y       z     vdW  Elec       q    Type
REMARK                         _______ _______ _______ _____ _____    ______ ____
ROOT
ATOM      1  C   UNL     1       3.836   5.030  18.732  0.00  0.00    +0.000 A 
ATOM      2  C   UNL     1       3.708   5.984  17.715  0.00  0.00    +0.000 A 
ATOM      3  C   UNL     1       4.831   6.647  17.211  0.00  0.00    +0.000 A 
ATOM      4  C   UNL     1       6.093   6.416  17.755  0.00  0.00    +0.000 A 
ATOM      5  C   UNL     1       6.227   5.498  18.804  0.00  0.00    +0.000 A 
ATOM      6  C   UNL     1       5.106   4.801  19.271  0.00  0.00    +0.000 A 
ENDROOT
BRANCH   1  13
ATOM      7  C   UNL     1       1.671   6.061  20.779  0.00  0.00    +0.000 C 
ATOM      8  C   UNL     1       1.753   4.707  20.156  0.00  0.00    +0.000 A 
ATOM      9  C   UNL     1       0.849   3.680  20.354  0.00  0.00    +0.000 A 
ATOM     10  C   UNL     1       1.197   2.625  19.502  0.00  0.00    +0.000 A 
ATOM     11  C   UNL     1       2.328   2.997  18.803  0.00  0.00    +0.000 A 
ATOM     12  C   UNL     1       3.104   2.116  17.879  0.00  0.00    +0.000 C 
ATOM     13  N   UNL     1       2.692   4.292  19.197  0.00  0.00    +0.000 N 
ENDBRANCH   1  13
BRANCH   4  14
ATOM     14  C   UNL     1       7.248   7.192  17.220  0.00  0.00    +0.000 C 
ATOM     15  O   UNL     1       7.909   6.729  16.303  0.00  0.00    +0.000 OA
ATOM     16  N   UNL     1       7.514   8.398  17.823  0.00  0.00    +0.000 N 
ATOM     17  H   UNL     1       7.015   8.678  18.653  0.00  0.00    +0.000 HD
BRANCH  16  18
ATOM     18  C   UNL     1       8.618   9.221  17.392  0.00  0.00    +0.000 C 
BRANCH  18  19
ATOM     19  C   UNL     1       8.873  10.334  18.368  0.00  0.00    +0.000 A 
ATOM     20  C   UNL     1       9.176  10.073  19.707  0.00  0.00    +0.000 A 
ATOM     21  C   UNL     1       9.422  11.144  20.553  0.00  0.00    +0.000 A 
ATOM     22  N   UNL     1       9.371  12.435  20.164  0.00  0.00    +0.000 NA
ATOM     23  C   UNL     1       9.056  12.668  18.872  0.00  0.00    +0.000 A 
ATOM     24  C   UNL     1       8.797  11.666  17.952  0.00  0.00    +0.000 A 
ENDBRANCH  18  19
ENDBRANCH  16  18
ENDBRANCH   4  14
TORSDOF 4
ENDMDL
MODEL 2
REMARK VINA RESULT:      -7.9      0.057      1.959
REMARK  Name = 
REMARK  6 active torsions:
REMARK  status: ('A' for Active; 'I' for Inactive)
REMARK    1  A    between atoms: C_1  and  C_2
REMARK    2  A    between atoms: C_5  and  C_6
REMARK    3  A    between atoms: N_7  and  C_8
REMARK    4  A    between atoms: C_11  and  C_12
REMARK    5  A    between atoms: N_14  and  C_15
REMARK    6  A    between atoms: C_15  and  C_16
REMARK                            x       y       z     vdW  Elec       q    Type
REMARK                         _______ _______ _______ _____ _____    ______ ____
ROOT
ATOM      1  C   UNL     1       3.879   5.016  18.753  0.00  0.00    +0.000 A 
ATOM      2  C   UNL     1       3.743   5.962  17.730  0.00  0.00    +0.000 A 
ATOM      3  C   UNL     1       4.860   6.632  17.222  0.00  0.00    +0.000 A 
ATOM      4  C   UNL     1       6.124   6.415  17.768  0.00  0.00    +0.000 A 
ATOM      5  C   UNL     1       6.265   5.505  18.823  0.00  0.00    +0.000 A 
ATOM      6  C   UNL     1       5.150   4.801  19.294  0.00  0.00    +0.000 A 
ENDROOT
BRANCH   1  13
ATOM      7  C   UNL     1       3.151   2.049  17.970  0.00  0.00    +0.000 C 
ATOM      8  C   UNL     1       2.363   2.974  18.837  0.00  0.00    +0.000 A 
ATOM      9  C   UNL     1       1.181   2.655  19.479  0.00  0.00    +0.000 A 
ATOM     10  C   UNL     1       0.824   3.737  20.293  0.00  0.00    +0.000 A 
ATOM     11  C   UNL     1       1.772   4.726  20.128  0.00  0.00    +0.000 A 
ATOM     12  C   UNL     1       1.706   6.097  20.717  0.00  0.00    +0.000 C 
ATOM     13  N   UNL     1       2.741   4.271  19.222  0.00  0.00    +0.000 N 
ENDBRANCH   1  13
BRANCH   4  14
ATOM     14  C   UNL     1       7.272   7.198  17.228  0.00  0.00    +0.000 C 
ATOM     15  O   UNL     1       7.928   6.741  16.304  0.00  0.00    +0.000 OA
ATOM     16  N   UNL     1       7.537   8.403  17.835  0.00  0.00    +0.000 N 
ATOM     17  H   UNL     1       7.043   8.677  18.669  0.00  0.00    +0.000 HD
BRANCH  16  18
ATOM     18  C   UNL     1       8.636   9.232  17.399  0.00  0.00    +0.000 C 
BRANCH  18  19
ATOM     19  C   UNL     1       8.892  10.343  18.378  0.00  0.00    +0.000 A 
ATOM     20  C   UNL     1       8.856  11.683  17.983  0.00  0.00    +0.000 A 
ATOM     21  C   UNL     1       9.080  12.661  18.939  0.00  0.00    +0.000 A 
ATOM     22  N   UNL     1       9.351  12.399  20.235  0.00  0.00    +0.000 NA
ATOM     23  C   UNL     1       9.402  11.098  20.593  0.00  0.00    +0.000 A 
ATOM     24  C   UNL     1       9.189  10.050  19.712  0.00  0.00    +0.000 A 
ENDBRANCH  18  19
ENDBRANCH  16  18
ENDBRANCH   4  14
TORSDOF 4
ENDMDL
MODEL 3
REMARK VINA RESULT:      -7.9      0.204      2.202
REMARK  Name = 
REMARK  6 active torsions:
REMARK  status: ('A' for Active; 'I' for Inactive)
REMARK    1  A    between atoms: C_1  and  C_2
REMARK    2  A    between atoms: C_5  and  C_6
REMARK    3  A    between atoms: N_7  and  C_8
REMARK    4  A    between atoms: C_11  and  C_12
REMARK    5  A    between atoms: N_14  and  C_15
REMARK    6  A    between atoms: C_15  and  C_16
REMARK                            x       y       z     vdW  Elec       q    Type
REMARK                         _______ _______ _______ _____ _____    ______ ____
ROOT
ATOM      1  C   UNL     1       3.930   4.873  18.766  0.00  0.00    +0.000 A 
ATOM      2  C   UNL     1       5.202   4.817  19.350  0.00  0.00    +0.000 A 
ATOM      3  C   UNL     1       6.252   5.595  18.852  0.00  0.00    +0.000 A 
ATOM      4  C   UNL     1       6.069   6.394  17.726  0.00  0.00    +0.000 A 
ATOM      5  C   UNL     1       4.814   6.422  17.106  0.00  0.00    +0.000 A 
ATOM      6  C   UNL     1       3.753   5.679  17.638  0.00  0.00    +0.000 A 
ENDROOT
BRANCH   1  13
ATOM      7  C   UNL     1       3.322   1.816  18.291  0.00  0.00    +0.000 C 
ATOM      8  C   UNL     1       2.505   2.789  19.075  0.00  0.00    +0.000 A 
ATOM      9  C   UNL     1       1.345   2.485  19.764  0.00  0.00    +0.000 A 
ATOM     10  C   UNL     1       0.951   3.627  20.473  0.00  0.00    +0.000 A 
ATOM     11  C   UNL     1       1.855   4.634  20.196  0.00  0.00    +0.000 A 
ATOM     12  C   UNL     1       1.736   6.052  20.649  0.00  0.00    +0.000 C 
ATOM     13  N   UNL     1       2.831   4.131  19.325  0.00  0.00    +0.000 N 
ENDBRANCH   1  13
BRANCH   4  14
ATOM     14  C   UNL     1       7.236   7.158  17.203  0.00  0.00    +0.000 C 
ATOM     15  O   UNL     1       7.890   6.697  16.280  0.00  0.00    +0.000 OA
ATOM     16  N   UNL     1       7.521   8.352  17.822  0.00  0.00    +0.000 N 
ATOM     17  H   UNL     1       7.025   8.630  18.655  0.00  0.00    +0.000 HD
BRANCH  16  18
ATOM     18  C   UNL     1       8.639   9.163  17.402  0.00  0.00    +0.000 C 
BRANCH  18  19
ATOM     19  C   UNL     1       8.875  10.293  18.364  0.00  0.00    +0.000 A 
ATOM     20  C   UNL     1       8.826  11.626  17.946  0.00  0.00    +0.000 A 
ATOM     21  C   UNL     1       9.032  12.623  18.887  0.00  0.00    +0.000 A 
ATOM     22  N   UNL     1       9.295  12.386  20.189  0.00  0.00    +0.000 NA
ATOM     23  C   UNL     1       9.359  11.092  20.569  0.00  0.00    +0.000 A 
ATOM     24  C   UNL     1       9.165  10.027  19.705  0.00  0.00    +0.000 A 
ENDBRANCH  18  19
ENDBRANCH  16  18
ENDBRANCH   4  14
TORSDOF 4
ENDMDL
MODEL 4
REMARK VINA RESULT:      -7.9      0.218      1.413
REMARK  Name = 
REMARK  6 active torsions:
REMARK  status: ('A' for Active; 'I' for Inactive)
REMARK    1  A    between atoms: C_1  and  C_2
REMARK    2  A    between atoms: C_5  and  C_6
REMARK    3  A    between atoms: N_7  and  C_8
REMARK    4  A    between atoms: C_11  and  C_12
REMARK    5  A    between atoms: N_14  and  C_15
REMARK    6  A    between atoms: C_15  and  C_16
REMARK                            x       y       z     vdW  Elec       q    Type
REMARK                         _______ _______ _______ _____ _____    ______ ____
ROOT
ATOM      1  C   UNL     1       3.944   4.878  18.746  0.00  0.00    +0.000 A 
ATOM      2  C   UNL     1       5.203   4.854  19.358  0.00  0.00    +0.000 A 
ATOM      3  C   UNL     1       6.254   5.633  18.862  0.00  0.00    +0.000 A 
ATOM      4  C   UNL     1       6.084   6.400  17.712  0.00  0.00    +0.000 A 
ATOM      5  C   UNL     1       4.843   6.395  17.064  0.00  0.00    +0.000 A 
ATOM      6  C   UNL     1       3.781   5.652  17.593  0.00  0.00    +0.000 A 
ENDROOT
BRANCH   1  13
ATOM      7  C   UNL     1       1.745   6.008  20.703  0.00  0.00    +0.000 C 
ATOM      8  C   UNL     1       1.891   4.602  20.223  0.00  0.00    +0.000 A 
ATOM      9  C   UNL     1       1.042   3.558  20.539  0.00  0.00    +0.000 A 
ATOM     10  C   UNL     1       1.438   2.438  19.797  0.00  0.00    +0.000 A 
ATOM     11  C   UNL     1       2.543   2.791  19.049  0.00  0.00    +0.000 A 
ATOM     12  C   UNL     1       3.355   1.858  18.211  0.00  0.00    +0.000 C 
ATOM     13  N   UNL     1       2.843   4.137  19.301  0.00  0.00    +0.000 N 
ENDBRANCH   1  13
BRANCH   4  14
ATOM     14  C   UNL     1       7.253   7.166  17.193  0.00  0.00    +0.000 C 
ATOM     15  O   UNL     1       7.910   6.707  16.271  0.00  0.00    +0.000 OA
ATOM     16  N   UNL     1       7.535   8.359  17.816  0.00  0.00    +0.000 N 
ATOM     17  H   UNL     1       7.038   8.634  18.648  0.00  0.00    +0.000 HD
BRANCH  16  18
ATOM     18  C   UNL     1       8.654   9.171  17.401  0.00  0.00    +0.000 C 
BRANCH  18  19
ATOM     19  C   UNL     1       8.893  10.294  18.370  0.00  0.00    +0.000 A 
ATOM     20  C   UNL     1       8.827  11.630  17.967  0.00  0.00    +0.000 A 
ATOM     21  C   UNL     1       9.036  12.620  18.915  0.00  0.00    +0.000 A 
ATOM     22  N   UNL     1       9.318  12.372  20.211  0.00  0.00    +0.000 NA
ATOM     23  C   UNL     1       9.398  11.075  20.577  0.00  0.00    +0.000 A 
ATOM     24  C   UNL     1       9.202  10.017  19.705  0.00  0.00    +0.000 A 
ENDBRANCH  18  19
ENDBRANCH  16  18
ENDBRANCH   4  14
TORSDOF 4
ENDMDL
MODEL 5
REMARK VINA RESULT:      -7.9      0.248      1.011
REMARK  Name = 
REMARK  6 active torsions:
REMARK  status: ('A' for Active; 'I' for Inactive)
REMARK    1  A    between atoms: C_1  and  C_2
REMARK    2  A    between atoms: C_5  and  C_6
REMARK    3  A    between atoms: N_7  and  C_8
REMARK    4  A    between atoms: C_11  and  C_12
REMARK    5  A    between atoms: N_14  and  C_15
REMARK    6  A    between atoms: C_15  and  C_16
REMARK                            x       y       z     vdW  Elec       q    Type
REMARK                         _______ _______ _______ _____ _____    ______ ____
ROOT
ATOM      1  C   UNL     1       3.952   4.838  18.810  0.00  0.00    +0.000 A 
ATOM      2  C   UNL     1       3.811   5.647  17.676  0.00  0.00    +0.000 A 
ATOM      3  C   UNL     1       4.906   6.342  17.153  0.00  0.00    +0.000 A 
ATOM      4  C   UNL     1       6.145   6.291  17.788  0.00  0.00    +0.000 A 
ATOM      5  C   UNL     1       6.286   5.523  18.949  0.00  0.00    +0.000 A 
ATOM      6  C   UNL     1       5.198   4.790  19.441  0.00  0.00    +0.000 A 
ENDROOT
BRANCH   1  13
ATOM      7  C   UNL     1       1.655   5.879  20.703  0.00  0.00    +0.000 C 
ATOM      8  C   UNL     1       1.848   4.488  20.197  0.00  0.00    +0.000 A 
ATOM      9  C   UNL     1       1.008   3.420  20.455  0.00  0.00    +0.000 A 
ATOM     10  C   UNL     1       1.455   2.326  19.704  0.00  0.00    +0.000 A 
ATOM     11  C   UNL     1       2.582   2.718  19.008  0.00  0.00    +0.000 A 
ATOM     12  C   UNL     1       3.445   1.821  18.182  0.00  0.00    +0.000 C 
ATOM     13  N   UNL     1       2.844   4.063  19.303  0.00  0.00    +0.000 N 
ENDBRANCH   1  13
BRANCH   4  14
ATOM     14  C   UNL     1       7.264   7.097  17.221  0.00  0.00    +0.000 C 
ATOM     15  O   UNL     1       7.884   6.670  16.260  0.00  0.00    +0.000 OA
ATOM     16  N   UNL     1       7.546   8.288  17.848  0.00  0.00    +0.000 N 
ATOM     17  H   UNL     1       7.085   8.537  18.709  0.00  0.00    +0.000 HD
BRANCH  16  18
ATOM     18  C   UNL     1       8.620   9.137  17.389  0.00  0.00    +0.000 C 
BRANCH  18  19
ATOM     19  C   UNL     1       8.860  10.267  18.349  0.00  0.00    +0.000 A 
ATOM     20  C   UNL     1       8.789  11.600  17.936  0.00  0.00    +0.000 A 
ATOM     21  C   UNL     1       8.999  12.598  18.875  0.00  0.00    +0.000 A 
ATOM     22  N   UNL     1       9.287  12.360  20.172  0.00  0.00    +0.000 NA
ATOM     23  C   UNL     1       9.372  11.066  20.548  0.00  0.00    +0.000 A 
ATOM     24  C   UNL     1       9.175  10.001  19.684  0.00  0.00    +0.000 A 
ENDBRANCH  18  19
ENDBRANCH  16  18
ENDBRANCH   4  14
TORSDOF 4
ENDMDL
MODEL 6
REMARK VINA RESULT:      -7.9      4.552      7.249
REMARK  Name = 
REMARK  6 active torsions:
REMARK  status: ('A' for Active; 'I' for Inactive)
REMARK    1  A    between atoms: C_1  and  C_2
REMARK    2  A    between atoms: C_5  and  C_6
REMARK    3  A    between atoms: N_7  and  C_8
REMARK    4  A    between atoms: C_11  and  C_12
REMARK    5  A    between atoms: N_14  and  C_15
REMARK    6  A    between atoms: C_15  and  C_16
REMARK                            x       y       z     vdW  Elec       q    Type
REMARK                         _______ _______ _______ _____ _____    ______ ____
ROOT
ATOM      1  C   UNL     1       0.987   9.832  18.958  0.00  0.00    +0.000 A 
ATOM      2  C   UNL     1       1.647   9.337  17.827  0.00  0.00    +0.000 A 
ATOM      3  C   UNL     1       2.282   8.091  17.858  0.00  0.00    +0.000 A 
ATOM      4  C   UNL     1       2.324   7.347  19.034  0.00  0.00    +0.000 A 
ATOM      5  C   UNL     1       1.707   7.854  20.185  0.00  0.00    +0.000 A 
ATOM      6  C   UNL     1       1.031   9.079  20.135  0.00  0.00    +0.000 A 
ENDROOT
BRANCH   1  13
ATOM      7  C   UNL     1      -1.986  10.217  17.980  0.00  0.00    +0.000 C 
ATOM      8  C   UNL     1      -1.031  11.281  18.412  0.00  0.00    +0.000 A 
ATOM      9  C   UNL     1      -1.321  12.631  18.489  0.00  0.00    +0.000 A 
ATOM     10  C   UNL     1      -0.216  13.279  19.055  0.00  0.00    +0.000 A 
ATOM     11  C   UNL     1       0.756  12.330  19.300  0.00  0.00    +0.000 A 
ATOM     12  C   UNL     1       2.140  12.614  19.784  0.00  0.00    +0.000 C 
ATOM     13  N   UNL     1       0.268  11.077  18.904  0.00  0.00    +0.000 N 
ENDBRANCH   1  13
BRANCH   4  14
ATOM     14  C   UNL     1       3.064   6.053  19.028  0.00  0.00    +0.000 C 
ATOM     15  O   UNL     1       3.640   5.687  20.041  0.00  0.00    +0.000 OA
ATOM     16  N   UNL     1       3.067   5.349  17.847  0.00  0.00    +0.000 N 
ATOM     17  H   UNL     1       2.679   5.752  17.009  0.00  0.00    +0.000 HD
BRANCH  16  18
ATOM     18  C   UNL     1       3.766   4.092  17.729  0.00  0.00    +0.000 C 
BRANCH  18  19
ATOM     19  C   UNL     1       5.151   4.295  17.184  0.00  0.00    +0.000 A 
ATOM     20  C   UNL     1       6.247   4.479  18.031  0.00  0.00    +0.000 A 
ATOM     21  C   UNL     1       7.503   4.640  17.466  0.00  0.00    +0.000 A 
ATOM     22  N   UNL     1       7.733   4.647  16.136  0.00  0.00    +0.000 NA
ATOM     23  C   UNL     1       6.659   4.489  15.333  0.00  0.00    +0.000 A 
ATOM     24  C   UNL     1       5.367   4.318  15.803  0.00  0.00    +0.000 A 
ENDBRANCH  18  19
ENDBRANCH  16  18
ENDBRANCH   4  14
TORSDOF 4
ENDMDL
MODEL 7
REMARK VINA RESULT:      -7.8      4.554      7.229
REMARK  Name = 
REMARK  6 active torsions:
REMARK  status: ('A' for Active; 'I' for Inactive)
REMARK    1  A    between atoms: C_1  and  C_2
REMARK    2  A    between atoms: C_5  and  C_6
REMARK    3  A    between atoms: N_7  and  C_8
REMARK    4  A    between atoms: C_11  and  C_12
REMARK    5  A    between atoms: N_14  and  C_15
REMARK    6  A    between atoms: C_15  and  C_16
REMARK                            x       y       z     vdW  Elec       q    Type
REMARK                         _______ _______ _______ _____ _____    ______ ____
ROOT
ATOM      1  C   UNL     1       1.047   9.872  18.989  0.00  0.00    +0.000 A 
ATOM      2  C   UNL     1       1.737   9.407  17.863  0.00  0.00    +0.000 A 
ATOM      3  C   UNL     1       2.359   8.155  17.872  0.00  0.00    +0.000 A 
ATOM      4  C   UNL     1       2.357   7.372  19.024  0.00  0.00    +0.000 A 
ATOM      5  C   UNL     1       1.711   7.847  20.172  0.00  0.00    +0.000 A 
ATOM      6  C   UNL     1       1.047   9.080  20.141  0.00  0.00    +0.000 A 
ENDROOT
BRANCH   1  13
ATOM      7  C   UNL     1       2.129  12.639  20.046  0.00  0.00    +0.000 C 
ATOM      8  C   UNL     1       0.778  12.354  19.477  0.00  0.00    +0.000 A 
ATOM      9  C   UNL     1      -0.222  13.290  19.285  0.00  0.00    +0.000 A 
ATOM     10  C   UNL     1      -1.280  12.662  18.617  0.00  0.00    +0.000 A 
ATOM     11  C   UNL     1      -0.938  11.339  18.424  0.00  0.00    +0.000 A 
ATOM     12  C   UNL     1      -1.834  10.286  17.859  0.00  0.00    +0.000 C 
ATOM     13  N   UNL     1       0.342  11.125  18.955  0.00  0.00    +0.000 N 
ENDBRANCH   1  13
BRANCH   4  14
ATOM     14  C   UNL     1       3.085   6.071  18.998  0.00  0.00    +0.000 C 
ATOM     15  O   UNL     1       3.666   5.688  20.002  0.00  0.00    +0.000 OA
ATOM     16  N   UNL     1       3.074   5.381  17.809  0.00  0.00    +0.000 N 
ATOM     17  H   UNL     1       2.683   5.797  16.978  0.00  0.00    +0.000 HD
BRANCH  16  18
ATOM     18  C   UNL     1       3.760   4.119  17.672  0.00  0.00    +0.000 C 
BRANCH  18  19
ATOM     19  C   UNL     1       5.129   4.312  17.085  0.00  0.00    +0.000 A 
ATOM     20  C   UNL     1       5.327   4.369  15.703  0.00  0.00    +0.000 A 
ATOM     21  C   UNL     1       6.613   4.570  15.225  0.00  0.00    +0.000 A 
ATOM     22  N   UNL     1       7.698   4.699  16.018  0.00  0.00    +0.000 NA
ATOM     23  C   UNL     1       7.490   4.620  17.349  0.00  0.00    +0.000 A 
ATOM     24  C   UNL     1       6.243   4.424  17.922  0.00  0.00    +0.000 A 
ENDBRANCH  18  19
ENDBRANCH  16  18
ENDBRANCH   4  14
TORSDOF 4
ENDMDL
MODEL 8
REMARK VINA RESULT:      -7.7      4.506      7.200
REMARK  Name = 
REMARK  6 active torsions:
REMARK  status: ('A' for Active; 'I' for Inactive)
REMARK    1  A    between atoms: C_1  and  C_2
REMARK    2  A    between atoms: C_5  and  C_6
REMARK    3  A    between atoms: N_7  and  C_8
REMARK    4  A    between atoms: C_11  and  C_12
REMARK    5  A    between atoms: N_14  and  C_15
REMARK    6  A    between atoms: C_15  and  C_16
REMARK                            x       y       z     vdW  Elec       q    Type
REMARK                         _______ _______ _______ _____ _____    ______ ____
ROOT
ATOM      1  C   UNL     1       0.837   9.767  19.106  0.00  0.00    +0.000 A 
ATOM      2  C   UNL     1       1.003   8.984  20.255  0.00  0.00    +0.000 A 
ATOM      3  C   UNL     1       1.762   7.810  20.217  0.00  0.00    +0.000 A 
ATOM      4  C   UNL     1       2.318   7.365  19.020  0.00  0.00    +0.000 A 
ATOM      5  C   UNL     1       2.120   8.116  17.854  0.00  0.00    +0.000 A 
ATOM      6  C   UNL     1       1.399   9.316  17.908  0.00  0.00    +0.000 A 
ENDROOT
BRANCH   1  13
ATOM      7  C   UNL     1       1.928  12.484  20.278  0.00  0.00    +0.000 C 
ATOM      8  C   UNL     1       0.562  12.216  19.737  0.00  0.00    +0.000 A 
ATOM      9  C   UNL     1      -0.451  13.150  19.628  0.00  0.00    +0.000 A 
ATOM     10  C   UNL     1      -1.525  12.549  18.959  0.00  0.00    +0.000 A 
ATOM     11  C   UNL     1      -1.178  11.241  18.684  0.00  0.00    +0.000 A 
ATOM     12  C   UNL     1      -2.082  10.212  18.091  0.00  0.00    +0.000 C 
ATOM     13  N   UNL     1       0.120  11.013  19.162  0.00  0.00    +0.000 N 
ENDBRANCH   1  13
BRANCH   4  14
ATOM     14  C   UNL     1       3.070   6.078  19.023  0.00  0.00    +0.000 C 
ATOM     15  O   UNL     1       3.654   5.727  20.037  0.00  0.00    +0.000 OA
ATOM     16  N   UNL     1       3.075   5.363  17.849  0.00  0.00    +0.000 N 
ATOM     17  H   UNL     1       2.680   5.754  17.008  0.00  0.00    +0.000 HD
BRANCH  16  18
ATOM     18  C   UNL     1       3.785   4.111  17.741  0.00  0.00    +0.000 C 
BRANCH  18  19
ATOM     19  C   UNL     1       5.156   4.318  17.161  0.00  0.00    +0.000 A 
ATOM     20  C   UNL     1       6.268   4.530  17.980  0.00  0.00    +0.000 A 
ATOM     21  C   UNL     1       7.509   4.693  17.384  0.00  0.00    +0.000 A 
ATOM     22  N   UNL     1       7.710   4.677  16.050  0.00  0.00    +0.000 NA
ATOM     23  C   UNL     1       6.621   4.492  15.274  0.00  0.00    +0.000 A 
ATOM     24  C   UNL     1       5.341   4.317  15.776  0.00  0.00    +0.000 A 
ENDBRANCH  18  19
ENDBRANCH  16  18
ENDBRANCH   4  14
TORSDOF 4
ENDMDL
MODEL 9
REMARK VINA RESULT:      -7.7      4.561      7.343
REMARK  Name = 
REMARK  6 active torsions:
REMARK  status: ('A' for Active; 'I' for Inactive)
REMARK    1  A    between atoms: C_1  and  C_2
REMARK    2  A    between atoms: C_5  and  C_6
REMARK    3  A    between atoms: N_7  and  C_8
REMARK    4  A    between atoms: C_11  and  C_12
REMARK    5  A    between atoms: N_14  and  C_15
REMARK    6  A    between atoms: C_15  and  C_16
REMARK                            x       y       z     vdW  Elec       q    Type
REMARK                         _______ _______ _______ _____ _____    ______ ____
ROOT
ATOM      1  C   UNL     1       0.897   9.832  18.974  0.00  0.00    +0.000 A 
ATOM      2  C   UNL     1       0.997   9.040  20.124  0.00  0.00    +0.000 A 
ATOM      3  C   UNL     1       1.741   7.856  20.115  0.00  0.00    +0.000 A 
ATOM      4  C   UNL     1       2.347   7.410  18.942  0.00  0.00    +0.000 A 
ATOM      5  C   UNL     1       2.215   8.170  17.774  0.00  0.00    +0.000 A 
ATOM      6  C   UNL     1       1.509   9.379  17.801  0.00  0.00    +0.000 A 
ENDROOT
BRANCH   1  13
ATOM      7  C   UNL     1      -2.099  10.305  18.114  0.00  0.00    +0.000 C 
ATOM      8  C   UNL     1      -1.116  11.333  18.565  0.00  0.00    +0.000 A 
ATOM      9  C   UNL     1      -1.382  12.681  18.716  0.00  0.00    +0.000 A 
ATOM     10  C   UNL     1      -0.250  13.286  19.276  0.00  0.00    +0.000 A 
ATOM     11  C   UNL     1       0.715  12.314  19.442  0.00  0.00    +0.000 A 
ATOM     12  C   UNL     1       2.118  12.555  19.894  0.00  0.00    +0.000 C 
ATOM     13  N   UNL     1       0.196  11.088  19.003  0.00  0.00    +0.000 N 
ENDBRANCH   1  13
BRANCH   4  14
ATOM     14  C   UNL     1       3.080   6.113  18.973  0.00  0.00    +0.000 C 
ATOM     15  O   UNL     1       3.654   5.772  19.997  0.00  0.00    +0.000 OA
ATOM     16  N   UNL     1       3.081   5.376  17.813  0.00  0.00    +0.000 N 
ATOM     17  H   UNL     1       2.697   5.757  16.963  0.00  0.00    +0.000 HD
BRANCH  16  18
ATOM     18  C   UNL     1       3.774   4.112  17.731  0.00  0.00    +0.000 C 
BRANCH  18  19
ATOM     19  C   UNL     1       5.151   4.289  17.156  0.00  0.00    +0.000 A 
ATOM     20  C   UNL     1       5.370   4.276  15.777  0.00  0.00    +0.000 A 
ATOM     21  C   UNL     1       6.662   4.466  15.309  0.00  0.00    +0.000 A 
ATOM     22  N   UNL     1       7.732   4.648  16.111  0.00  0.00    +0.000 NA
ATOM     23  C   UNL     1       7.503   4.636  17.441  0.00  0.00    +0.000 A 
ATOM     24  C   UNL     1       6.250   4.457  18.003  0.00  0.00    +0.000 A 
ENDBRANCH  18  19
ENDBRANCH  16  18
ENDBRANCH   4  14
TORSDOF 4
ENDMDL
