MODEL 1
REMARK VINA RESULT:      -7.7      0.000      0.000
REMARK  Name = 
REMARK  10 active torsions:
REMARK  status: ('A' for Active; 'I' for Inactive)
REMARK    1  A    between atoms: C_1  and  C_2
REMARK    2  A    between atoms: C_2  and  C_3
REMARK    3  A    between atoms: C_3  and  C_4
REMARK    4  A    between atoms: C_4  and  C_5
REMARK    5  A    between atoms: C_5  and  C_6
REMARK    6  A    between atoms: C_6  and  N_7
REMARK    7  A    between atoms: N_7  and  C_8
REMARK    8  A    between atoms: C_13  and  C_14
REMARK    9  A    between atoms: N_16  and  C_17
REMARK   10  A    between atoms: C_17  and  C_18
REMARK                            x       y       z     vdW  Elec       q    Type
REMARK                         _______ _______ _______ _____ _____    ______ ____
ROOT
ATOM      1  C   UNL     1       6.556   6.112  16.437  0.00  0.00    +0.000 A 
ATOM      2  N   UNL     1       7.311   5.806  15.352  0.00  0.00    +0.000 NA
ATOM      3  C   UNL     1       7.155   4.574  14.825  0.00  0.00    +0.000 A 
ATOM      4  C   UNL     1       6.242   3.659  15.327  0.00  0.00    +0.000 A 
ATOM      5  N   UNL     1       5.446   3.927  16.383  0.00  0.00    +0.000 NA
ATOM      6  C   UNL     1       5.641   5.164  16.947  0.00  0.00    +0.000 A 
ENDROOT
BRANCH   6   7
ATOM      7  C   UNL     1       4.775   5.479  18.134  0.00  0.00    +0.000 C 
ATOM      8  O   UNL     1       5.229   5.528  19.274  0.00  0.00    +0.000 OA
ATOM      9  N   UNL     1       3.436   5.680  17.848  0.00  0.00    +0.000 N 
ATOM     10  H   UNL     1       3.141   5.571  16.885  0.00  0.00    +0.000 HD
BRANCH   9  11
ATOM     11  C   UNL     1       2.462   6.014  18.862  0.00  0.00    +0.000 C 
BRANCH  11  12
ATOM     12  C   UNL     1       2.037   4.800  19.654  0.00  0.00    +0.000 A 
ATOM     13  C   UNL     1       1.271   3.787  19.063  0.00  0.00    +0.000 A 
ATOM     14  C   UNL     1       0.867   2.678  19.807  0.00  0.00    +0.000 A 
ATOM     15  C   UNL     1       1.229   2.564  21.152  0.00  0.00    +0.000 A 
ATOM     16  C   UNL     1       1.991   3.564  21.745  0.00  0.00    +0.000 A 
ATOM     17  C   UNL     1       2.394   4.676  21.007  0.00  0.00    +0.000 A 
ENDBRANCH  11  12
ENDBRANCH   9  11
ENDBRANCH   6   7
BRANCH   1  18
ATOM     18  N   UNL     1       6.694   7.372  17.000  0.00  0.00    +0.000 N 
ATOM     19  H   UNL     1       5.795   7.717  17.340  0.00  0.00    +0.000 HD
BRANCH  18  20
ATOM     20  C   UNL     1       7.828   7.651  17.854  0.00  0.00    +0.000 C 
BRANCH  20  21
ATOM     21  C   UNL     1       7.996   9.171  17.891  0.00  0.00    +0.000 C 
BRANCH  21  22
ATOM     22  C   UNL     1       9.080   9.608  18.869  0.00  0.00    +0.000 C 
BRANCH  22  23
ATOM     23  C   UNL     1       9.639  10.978  18.482  0.00  0.00    +0.000 C 
BRANCH  23  25
ATOM     24  C   UNL     1      10.226  11.836  20.777  0.00  0.00    +0.000 C 
ATOM     25  C   UNL     1      10.767  11.399  19.425  0.00  0.00    +0.000 C 
ENDBRANCH  23  25
ENDBRANCH  22  23
ENDBRANCH  21  22
ENDBRANCH  20  21
ENDBRANCH  18  20
ENDBRANCH   1  18
TORSDOF 9
ENDMDL
MODEL 2
REMARK VINA RESULT:      -7.6      0.354      1.188
REMARK  Name = 
REMARK  10 active torsions:
REMARK  status: ('A' for Active; 'I' for Inactive)
REMARK    1  A    between atoms: C_1  and  C_2
REMARK    2  A    between atoms: C_2  and  C_3
REMARK    3  A    between atoms: C_3  and  C_4
REMARK    4  A    between atoms: C_4  and  C_5
REMARK    5  A    between atoms: C_5  and  C_6
REMARK    6  A    between atoms: C_6  and  N_7
REMARK    7  A    between atoms: N_7  and  C_8
REMARK    8  A    between atoms: C_13  and  C_14
REMARK    9  A    between atoms: N_16  and  C_17
REMARK   10  A    between atoms: C_17  and  C_18
REMARK                            x       y       z     vdW  Elec       q    Type
REMARK                         _______ _______ _______ _____ _____    ______ ____
ROOT
ATOM      1  C   UNL     1       6.547   6.107  16.539  0.00  0.00    +0.000 A 
ATOM      2  N   UNL     1       7.319   5.813  15.464  0.00  0.00    +0.000 NA
ATOM      3  C   UNL     1       7.120   4.615  14.876  0.00  0.00    +0.000 A 
ATOM      4  C   UNL     1       6.150   3.724  15.310  0.00  0.00    +0.000 A 
ATOM      5  N   UNL     1       5.336   3.983  16.354  0.00  0.00    +0.000 NA
ATOM      6  C   UNL     1       5.573   5.183  16.980  0.00  0.00    +0.000 A 
ENDROOT
BRANCH   6   7
ATOM      7  C   UNL     1       4.687   5.487  18.156  0.00  0.00    +0.000 C 
ATOM      8  O   UNL     1       5.128   5.553  19.300  0.00  0.00    +0.000 OA
ATOM      9  N   UNL     1       3.347   5.655  17.854  0.00  0.00    +0.000 N 
ATOM     10  H   UNL     1       3.065   5.533  16.888  0.00  0.00    +0.000 HD
BRANCH   9  11
ATOM     11  C   UNL     1       2.355   5.974  18.855  0.00  0.00    +0.000 C 
BRANCH  11  12
ATOM     12  C   UNL     1       1.977   4.765  19.676  0.00  0.00    +0.000 A 
ATOM     13  C   UNL     1       2.388   4.642  21.010  0.00  0.00    +0.000 A 
ATOM     14  C   UNL     1       2.049   3.513  21.756  0.00  0.00    +0.000 A 
ATOM     15  C   UNL     1       1.289   2.491  21.179  0.00  0.00    +0.000 A 
ATOM     16  C   UNL     1       0.875   2.606  19.857  0.00  0.00    +0.000 A 
ATOM     17  C   UNL     1       1.214   3.731  19.106  0.00  0.00    +0.000 A 
ENDBRANCH  11  12
ENDBRANCH   9  11
ENDBRANCH   6   7
BRANCH   1  18
ATOM     18  N   UNL     1       6.728   7.332  17.164  0.00  0.00    +0.000 N 
ATOM     19  H   UNL     1       5.931   7.553  17.764  0.00  0.00    +0.000 HD
BRANCH  18  20
ATOM     20  C   UNL     1       8.025   7.673  17.704  0.00  0.00    +0.000 C 
BRANCH  20  21
ATOM     21  C   UNL     1       8.082   9.198  17.803  0.00  0.00    +0.000 C 
BRANCH  21  22
ATOM     22  C   UNL     1       8.991   9.670  18.931  0.00  0.00    +0.000 C 
BRANCH  22  23
ATOM     23  C   UNL     1       9.260  11.171  18.819  0.00  0.00    +0.000 C 
BRANCH  23  25
ATOM     24  C   UNL     1      11.681  11.559  18.242  0.00  0.00    +0.000 C 
ATOM     25  C   UNL     1      10.647  11.525  19.356  0.00  0.00    +0.000 C 
ENDBRANCH  23  25
ENDBRANCH  22  23
ENDBRANCH  21  22
ENDBRANCH  20  21
ENDBRANCH  18  20
ENDBRANCH   1  18
TORSDOF 9
ENDMDL
MODEL 3
REMARK VINA RESULT:      -7.5      1.824      3.089
REMARK  Name = 
REMARK  10 active torsions:
REMARK  status: ('A' for Active; 'I' for Inactive)
REMARK    1  A    between atoms: C_1  and  C_2
REMARK    2  A    between atoms: C_2  and  C_3
REMARK    3  A    between atoms: C_3  and  C_4
REMARK    4  A    between atoms: C_4  and  C_5
REMARK    5  A    between atoms: C_5  and  C_6
REMARK    6  A    between atoms: C_6  and  N_7
REMARK    7  A    between atoms: N_7  and  C_8
REMARK    8  A    between atoms: C_13  and  C_14
REMARK    9  A    between atoms: N_16  and  C_17
REMARK   10  A    between atoms: C_17  and  C_18
REMARK                            x       y       z     vdW  Elec       q    Type
REMARK                         _______ _______ _______ _____ _____    ______ ____
ROOT
ATOM      1  C   UNL     1       6.880   5.650  16.743  0.00  0.00    +0.000 A 
ATOM      2  N   UNL     1       7.534   5.538  15.560  0.00  0.00    +0.000 NA
ATOM      3  C   UNL     1       6.956   4.771  14.612  0.00  0.00    +0.000 A 
ATOM      4  C   UNL     1       5.731   4.149  14.801  0.00  0.00    +0.000 A 
ATOM      5  N   UNL     1       5.028   4.256  15.947  0.00  0.00    +0.000 NA
ATOM      6  C   UNL     1       5.641   4.998  16.927  0.00  0.00    +0.000 A 
ENDROOT
BRANCH   6   7
ATOM      7  C   UNL     1       4.882   5.118  18.219  0.00  0.00    +0.000 C 
ATOM      8  O   UNL     1       5.247   4.546  19.242  0.00  0.00    +0.000 OA
ATOM      9  N   UNL     1       3.737   5.893  18.157  0.00  0.00    +0.000 N 
ATOM     10  H   UNL     1       3.485   6.286  17.258  0.00  0.00    +0.000 HD
BRANCH   9  11
ATOM     11  C   UNL     1       2.896   6.138  19.306  0.00  0.00    +0.000 C 
BRANCH  11  12
ATOM     12  C   UNL     1       2.225   7.488  19.235  0.00  0.00    +0.000 A 
ATOM     13  C   UNL     1       1.580   8.032  20.354  0.00  0.00    +0.000 A 
ATOM     14  C   UNL     1       0.947   9.273  20.274  0.00  0.00    +0.000 A 
ATOM     15  C   UNL     1       0.954   9.990  19.074  0.00  0.00    +0.000 A 
ATOM     16  C   UNL     1       1.593   9.459  17.960  0.00  0.00    +0.000 A 
ATOM     17  C   UNL     1       2.224   8.217  18.034  0.00  0.00    +0.000 A 
ENDBRANCH  11  12
ENDBRANCH   9  11
ENDBRANCH   6   7
BRANCH   1  18
ATOM     18  N   UNL     1       7.450   6.433  17.737  0.00  0.00    +0.000 N 
ATOM     19  H   UNL     1       8.309   6.004  18.087  0.00  0.00    +0.000 HD
BRANCH  18  20
ATOM     20  C   UNL     1       7.494   7.869  17.577  0.00  0.00    +0.000 C 
BRANCH  20  21
ATOM     21  C   UNL     1       8.546   8.396  18.554  0.00  0.00    +0.000 C 
BRANCH  21  22
ATOM     22  C   UNL     1       8.857   9.871  18.329  0.00  0.00    +0.000 C 
BRANCH  22  23
ATOM     23  C   UNL     1       9.371  10.520  19.614  0.00  0.00    +0.000 C 
BRANCH  23  25
ATOM     24  C   UNL     1      10.762  11.632  17.833  0.00  0.00    +0.000 C 
ATOM     25  C   UNL     1      10.540  11.461  19.327  0.00  0.00    +0.000 C 
ENDBRANCH  23  25
ENDBRANCH  22  23
ENDBRANCH  21  22
ENDBRANCH  20  21
ENDBRANCH  18  20
ENDBRANCH   1  18
TORSDOF 9
ENDMDL
MODEL 4
REMARK VINA RESULT:      -7.4      2.636      6.084
REMARK  Name = 
REMARK  10 active torsions:
REMARK  status: ('A' for Active; 'I' for Inactive)
REMARK    1  A    between atoms: C_1  and  C_2
REMARK    2  A    between atoms: C_2  and  C_3
REMARK    3  A    between atoms: C_3  and  C_4
REMARK    4  A    between atoms: C_4  and  C_5
REMARK    5  A    between atoms: C_5  and  C_6
REMARK    6  A    between atoms: C_6  and  N_7
REMARK    7  A    between atoms: N_7  and  C_8
REMARK    8  A    between atoms: C_13  and  C_14
REMARK    9  A    between atoms: N_16  and  C_17
REMARK   10  A    between atoms: C_17  and  C_18
REMARK                            x       y       z     vdW  Elec       q    Type
REMARK                         _______ _______ _______ _____ _____    ______ ____
ROOT
ATOM      1  C   UNL     1       6.880   5.207  16.402  0.00  0.00    +0.000 A 
ATOM      2  N   UNL     1       7.685   6.284  16.220  0.00  0.00    +0.000 NA
ATOM      3  C   UNL     1       7.729   7.191  17.219  0.00  0.00    +0.000 A 
ATOM      4  C   UNL     1       7.024   7.031  18.402  0.00  0.00    +0.000 A 
ATOM      5  N   UNL     1       6.236   5.962  18.643  0.00  0.00    +0.000 NA
ATOM      6  C   UNL     1       6.156   5.065  17.606  0.00  0.00    +0.000 A 
ENDROOT
BRANCH   6   7
ATOM      7  C   UNL     1       5.272   3.873  17.847  0.00  0.00    +0.000 C 
ATOM      8  O   UNL     1       4.586   3.383  16.955  0.00  0.00    +0.000 OA
ATOM      9  N   UNL     1       5.272   3.396  19.146  0.00  0.00    +0.000 N 
ATOM     10  H   UNL     1       5.830   3.894  19.829  0.00  0.00    +0.000 HD
BRANCH   9  11
ATOM     11  C   UNL     1       4.499   2.245  19.555  0.00  0.00    +0.000 C 
BRANCH  11  12
ATOM     12  C   UNL     1       3.033   2.575  19.699  0.00  0.00    +0.000 A 
ATOM     13  C   UNL     1       2.082   2.023  18.831  0.00  0.00    +0.000 A 
ATOM     14  C   UNL     1       0.730   2.347  18.960  0.00  0.00    +0.000 A 
ATOM     15  C   UNL     1       0.311   3.225  19.963  0.00  0.00    +0.000 A 
ATOM     16  C   UNL     1       1.248   3.775  20.831  0.00  0.00    +0.000 A 
ATOM     17  C   UNL     1       2.600   3.457  20.703  0.00  0.00    +0.000 A 
ENDBRANCH  11  12
ENDBRANCH   9  11
ENDBRANCH   6   7
BRANCH   1  18
ATOM     18  N   UNL     1       6.816   4.257  15.393  0.00  0.00    +0.000 N 
ATOM     19  H   UNL     1       6.256   3.455  15.688  0.00  0.00    +0.000 HD
BRANCH  18  20
ATOM     20  C   UNL     1       6.618   4.683  14.025  0.00  0.00    +0.000 C 
BRANCH  20  21
ATOM     21  C   UNL     1       5.594   3.731  13.404  0.00  0.00    +0.000 C 
BRANCH  21  22
ATOM     22  C   UNL     1       6.096   3.108  12.108  0.00  0.00    +0.000 C 
BRANCH  22  23
ATOM     23  C   UNL     1       4.934   2.542  11.292  0.00  0.00    +0.000 C 
BRANCH  23  25
ATOM     24  C   UNL     1       3.220   3.740   9.888  0.00  0.00    +0.000 C 
ATOM     25  C   UNL     1       3.741   3.498  11.295  0.00  0.00    +0.000 C 
ENDBRANCH  23  25
ENDBRANCH  22  23
ENDBRANCH  21  22
ENDBRANCH  20  21
ENDBRANCH  18  20
ENDBRANCH   1  18
TORSDOF 9
ENDMDL
MODEL 5
REMARK VINA RESULT:      -7.3      1.670      2.859
REMARK  Name = 
REMARK  10 active torsions:
REMARK  status: ('A' for Active; 'I' for Inactive)
REMARK    1  A    between atoms: C_1  and  C_2
REMARK    2  A    between atoms: C_2  and  C_3
REMARK    3  A    between atoms: C_3  and  C_4
REMARK    4  A    between atoms: C_4  and  C_5
REMARK    5  A    between atoms: C_5  and  C_6
REMARK    6  A    between atoms: C_6  and  N_7
REMARK    7  A    between atoms: N_7  and  C_8
REMARK    8  A    between atoms: C_13  and  C_14
REMARK    9  A    between atoms: N_16  and  C_17
REMARK   10  A    between atoms: C_17  and  C_18
REMARK                            x       y       z     vdW  Elec       q    Type
REMARK                         _______ _______ _______ _____ _____    ______ ____
ROOT
ATOM      1  C   UNL     1       6.570   6.143  16.630  0.00  0.00    +0.000 A 
ATOM      2  N   UNL     1       7.190   5.831  15.464  0.00  0.00    +0.000 NA
ATOM      3  C   UNL     1       6.996   4.585  14.983  0.00  0.00    +0.000 A 
ATOM      4  C   UNL     1       6.174   3.663  15.612  0.00  0.00    +0.000 A 
ATOM      5  N   UNL     1       5.512   3.936  16.755  0.00  0.00    +0.000 NA
ATOM      6  C   UNL     1       5.749   5.188  17.268  0.00  0.00    +0.000 A 
ENDROOT
BRANCH   6   7
ATOM      7  C   UNL     1       5.033   5.510  18.550  0.00  0.00    +0.000 C 
ATOM      8  O   UNL     1       5.619   5.553  19.628  0.00  0.00    +0.000 OA
ATOM      9  N   UNL     1       3.671   5.723  18.424  0.00  0.00    +0.000 N 
ATOM     10  H   UNL     1       3.263   5.616  17.503  0.00  0.00    +0.000 HD
BRANCH   9  11
ATOM     11  C   UNL     1       2.827   6.064  19.546  0.00  0.00    +0.000 C 
BRANCH  11  12
ATOM     12  C   UNL     1       2.183   7.419  19.374  0.00  0.00    +0.000 A 
ATOM     13  C   UNL     1       2.217   8.081  18.140  0.00  0.00    +0.000 A 
ATOM     14  C   UNL     1       1.635   9.341  17.994  0.00  0.00    +0.000 A 
ATOM     15  C   UNL     1       1.006   9.954  19.081  0.00  0.00    +0.000 A 
ATOM     16  C   UNL     1       0.965   9.303  20.309  0.00  0.00    +0.000 A 
ATOM     17  C   UNL     1       1.549   8.045  20.460  0.00  0.00    +0.000 A 
ENDBRANCH  11  12
ENDBRANCH   9  11
ENDBRANCH   6   7
BRANCH   1  18
ATOM     18  N   UNL     1       6.750   7.418  17.149  0.00  0.00    +0.000 N 
ATOM     19  H   UNL     1       5.893   7.751  17.593  0.00  0.00    +0.000 HD
BRANCH  18  20
ATOM     20  C   UNL     1       7.976   7.737  17.847  0.00  0.00    +0.000 C 
BRANCH  20  21
ATOM     21  C   UNL     1       8.083   9.262  17.888  0.00  0.00    +0.000 C 
BRANCH  21  22
ATOM     22  C   UNL     1       9.108   9.742  18.908  0.00  0.00    +0.000 C 
BRANCH  22  23
ATOM     23  C   UNL     1       9.691  11.094  18.496  0.00  0.00    +0.000 C 
BRANCH  23  25
ATOM     24  C   UNL     1      11.548  11.781  20.054  0.00  0.00    +0.000 C 
ATOM     25  C   UNL     1      10.072  11.926  19.721  0.00  0.00    +0.000 C 
ENDBRANCH  23  25
ENDBRANCH  22  23
ENDBRANCH  21  22
ENDBRANCH  20  21
ENDBRANCH  18  20
ENDBRANCH   1  18
TORSDOF 9
ENDMDL
MODEL 6
REMARK VINA RESULT:      -7.3      2.562      5.995
REMARK  Name = 
REMARK  10 active torsions:
REMARK  status: ('A' for Active; 'I' for Inactive)
REMARK    1  A    between atoms: C_1  and  C_2
REMARK    2  A    between atoms: C_2  and  C_3
REMARK    3  A    between atoms: C_3  and  C_4
REMARK    4  A    between atoms: C_4  and  C_5
REMARK    5  A    between atoms: C_5  and  C_6
REMARK    6  A    between atoms: C_6  and  N_7
REMARK    7  A    between atoms: N_7  and  C_8
REMARK    8  A    between atoms: C_13  and  C_14
REMARK    9  A    between atoms: N_16  and  C_17
REMARK   10  A    between atoms: C_17  and  C_18
REMARK                            x       y       z     vdW  Elec       q    Type
REMARK                         _______ _______ _______ _____ _____    ______ ____
ROOT
ATOM      1  C   UNL     1       6.365   5.772  16.687  0.00  0.00    +0.000 A 
ATOM      2  N   UNL     1       7.204   6.831  16.566  0.00  0.00    +0.000 NA
ATOM      3  C   UNL     1       7.929   7.166  17.654  0.00  0.00    +0.000 A 
ATOM      4  C   UNL     1       7.865   6.450  18.840  0.00  0.00    +0.000 A 
ATOM      5  N   UNL     1       7.071   5.372  19.000  0.00  0.00    +0.000 NA
ATOM      6  C   UNL     1       6.299   5.062  17.906  0.00  0.00    +0.000 A 
ENDROOT
BRANCH   6   7
ATOM      7  C   UNL     1       5.395   3.873  18.067  0.00  0.00    +0.000 C 
ATOM      8  O   UNL     1       4.761   3.407  17.124  0.00  0.00    +0.000 OA
ATOM      9  N   UNL     1       5.313   3.366  19.352  0.00  0.00    +0.000 N 
ATOM     10  H   UNL     1       5.832   3.845  20.079  0.00  0.00    +0.000 HD
BRANCH   9  11
ATOM     11  C   UNL     1       4.510   2.213  19.688  0.00  0.00    +0.000 C 
BRANCH  11  12
ATOM     12  C   UNL     1       3.035   2.536  19.689  0.00  0.00    +0.000 A 
ATOM     13  C   UNL     1       2.477   3.353  20.680  0.00  0.00    +0.000 A 
ATOM     14  C   UNL     1       1.110   3.632  20.684  0.00  0.00    +0.000 A 
ATOM     15  C   UNL     1       0.282   3.100  19.692  0.00  0.00    +0.000 A 
ATOM     16  C   UNL     1       0.827   2.291  18.702  0.00  0.00    +0.000 A 
ATOM     17  C   UNL     1       2.192   2.006  18.697  0.00  0.00    +0.000 A 
ENDBRANCH  11  12
ENDBRANCH   9  11
ENDBRANCH   6   7
BRANCH   1  18
ATOM     18  N   UNL     1       5.608   5.404  15.584  0.00  0.00    +0.000 N 
ATOM     19  H   UNL     1       4.712   5.894  15.582  0.00  0.00    +0.000 HD
BRANCH  18  20
ATOM     20  C   UNL     1       6.246   5.270  14.293  0.00  0.00    +0.000 C 
BRANCH  20  21
ATOM     21  C   UNL     1       5.992   3.839  13.816  0.00  0.00    +0.000 C 
BRANCH  21  22
ATOM     22  C   UNL     1       6.228   3.679  12.319  0.00  0.00    +0.000 C 
BRANCH  22  23
ATOM     23  C   UNL     1       5.387   2.532  11.756  0.00  0.00    +0.000 C 
BRANCH  23  25
ATOM     24  C   UNL     1       3.814   3.925  10.367  0.00  0.00    +0.000 C 
ATOM     25  C   UNL     1       3.937   2.966  11.540  0.00  0.00    +0.000 C 
ENDBRANCH  23  25
ENDBRANCH  22  23
ENDBRANCH  21  22
ENDBRANCH  20  21
ENDBRANCH  18  20
ENDBRANCH   1  18
TORSDOF 9
ENDMDL
MODEL 7
REMARK VINA RESULT:      -7.1      0.926      1.490
REMARK  Name = 
REMARK  10 active torsions:
REMARK  status: ('A' for Active; 'I' for Inactive)
REMARK    1  A    between atoms: C_1  and  C_2
REMARK    2  A    between atoms: C_2  and  C_3
REMARK    3  A    between atoms: C_3  and  C_4
REMARK    4  A    between atoms: C_4  and  C_5
REMARK    5  A    between atoms: C_5  and  C_6
REMARK    6  A    between atoms: C_6  and  N_7
REMARK    7  A    between atoms: N_7  and  C_8
REMARK    8  A    between atoms: C_13  and  C_14
REMARK    9  A    between atoms: N_16  and  C_17
REMARK   10  A    between atoms: C_17  and  C_18
REMARK                            x       y       z     vdW  Elec       q    Type
REMARK                         _______ _______ _______ _____ _____    ______ ____
ROOT
ATOM      1  C   UNL     1       6.738   6.042  16.554  0.00  0.00    +0.000 A 
ATOM      2  N   UNL     1       7.471   5.820  15.434  0.00  0.00    +0.000 NA
ATOM      3  C   UNL     1       7.090   4.793  14.646  0.00  0.00    +0.000 A 
ATOM      4  C   UNL     1       5.979   4.010  14.927  0.00  0.00    +0.000 A 
ATOM      5  N   UNL     1       5.201   4.211  16.011  0.00  0.00    +0.000 NA
ATOM      6  C   UNL     1       5.619   5.227  16.836  0.00  0.00    +0.000 A 
ENDROOT
BRANCH   6   7
ATOM      7  C   UNL     1       4.774   5.459  18.057  0.00  0.00    +0.000 C 
ATOM      8  O   UNL     1       5.187   5.216  19.188  0.00  0.00    +0.000 OA
ATOM      9  N   UNL     1       3.500   5.936  17.808  0.00  0.00    +0.000 N 
ATOM     10  H   UNL     1       3.226   6.060  16.840  0.00  0.00    +0.000 HD
BRANCH   9  11
ATOM     11  C   UNL     1       2.558   6.237  18.862  0.00  0.00    +0.000 C 
BRANCH  11  12
ATOM     12  C   UNL     1       2.086   4.989  19.567  0.00  0.00    +0.000 A 
ATOM     13  C   UNL     1       2.331   4.797  20.933  0.00  0.00    +0.000 A 
ATOM     14  C   UNL     1       1.907   3.632  21.574  0.00  0.00    +0.000 A 
ATOM     15  C   UNL     1       1.227   2.643  20.857  0.00  0.00    +0.000 A 
ATOM     16  C   UNL     1       0.978   2.826  19.502  0.00  0.00    +0.000 A 
ATOM     17  C   UNL     1       1.403   3.987  18.856  0.00  0.00    +0.000 A 
ENDBRANCH  11  12
ENDBRANCH   9  11
ENDBRANCH   6   7
BRANCH   1  18
ATOM     18  N   UNL     1       7.105   7.092  17.383  0.00  0.00    +0.000 N 
ATOM     19  H   UNL     1       6.298   7.679  17.602  0.00  0.00    +0.000 HD
BRANCH  18  20
ATOM     20  C   UNL     1       8.012   6.848  18.483  0.00  0.00    +0.000 C 
BRANCH  20  21
ATOM     21  C   UNL     1       8.559   8.208  18.921  0.00  0.00    +0.000 C 
BRANCH  21  22
ATOM     22  C   UNL     1       8.253   9.306  17.910  0.00  0.00    +0.000 C 
BRANCH  22  23
ATOM     23  C   UNL     1       9.131  10.533  18.160  0.00  0.00    +0.000 C 
BRANCH  23  25
ATOM     24  C   UNL     1       9.390  12.987  17.652  0.00  0.00    +0.000 C 
ATOM     25  C   UNL     1       8.425  11.815  17.717  0.00  0.00    +0.000 C 
ENDBRANCH  23  25
ENDBRANCH  22  23
ENDBRANCH  21  22
ENDBRANCH  20  21
ENDBRANCH  18  20
ENDBRANCH   1  18
TORSDOF 9
ENDMDL
MODEL 8
REMARK VINA RESULT:      -7.1      2.724      6.198
REMARK  Name = 
REMARK  10 active torsions:
REMARK  status: ('A' for Active; 'I' for Inactive)
REMARK    1  A    between atoms: C_1  and  C_2
REMARK    2  A    between atoms: C_2  and  C_3
REMARK    3  A    between atoms: C_3  and  C_4
REMARK    4  A    between atoms: C_4  and  C_5
REMARK    5  A    between atoms: C_5  and  C_6
REMARK    6  A    between atoms: C_6  and  N_7
REMARK    7  A    between atoms: N_7  and  C_8
REMARK    8  A    between atoms: C_13  and  C_14
REMARK    9  A    between atoms: N_16  and  C_17
REMARK   10  A    between atoms: C_17  and  C_18
REMARK                            x       y       z     vdW  Elec       q    Type
REMARK                         _______ _______ _______ _____ _____    ______ ____
ROOT
ATOM      1  C   UNL     1       6.642   5.116  16.297  0.00  0.00    +0.000 A 
ATOM      2  N   UNL     1       7.481   6.156  16.068  0.00  0.00    +0.000 NA
ATOM      3  C   UNL     1       7.754   6.964  17.113  0.00  0.00    +0.000 A 
ATOM      4  C   UNL     1       7.242   6.739  18.382  0.00  0.00    +0.000 A 
ATOM      5  N   UNL     1       6.429   5.701  18.667  0.00  0.00    +0.000 NA
ATOM      6  C   UNL     1       6.116   4.908  17.591  0.00  0.00    +0.000 A 
ENDROOT
BRANCH   6   7
ATOM      7  C   UNL     1       5.199   3.753  17.882  0.00  0.00    +0.000 C 
ATOM      8  O   UNL     1       4.432   3.303  17.035  0.00  0.00    +0.000 OA
ATOM      9  N   UNL     1       5.266   3.261  19.174  0.00  0.00    +0.000 N 
ATOM     10  H   UNL     1       5.891   3.727  19.821  0.00  0.00    +0.000 HD
BRANCH   9  11
ATOM     11  C   UNL     1       4.473   2.140  19.625  0.00  0.00    +0.000 C 
BRANCH  11  12
ATOM     12  C   UNL     1       3.014   2.502  19.760  0.00  0.00    +0.000 A 
ATOM     13  C   UNL     1       2.059   1.987  18.873  0.00  0.00    +0.000 A 
ATOM     14  C   UNL     1       0.715   2.341  18.993  0.00  0.00    +0.000 A 
ATOM     15  C   UNL     1       0.305   3.212  20.007  0.00  0.00    +0.000 A 
ATOM     16  C   UNL     1       1.245   3.726  20.893  0.00  0.00    +0.000 A 
ATOM     17  C   UNL     1       2.591   3.378  20.774  0.00  0.00    +0.000 A 
ENDBRANCH  11  12
ENDBRANCH   9  11
ENDBRANCH   6   7
BRANCH   1  18
ATOM     18  N   UNL     1       6.343   4.267  15.240  0.00  0.00    +0.000 N 
ATOM     19  H   UNL     1       5.487   3.743  15.429  0.00  0.00    +0.000 HD
BRANCH  18  20
ATOM     20  C   UNL     1       6.496   4.738  13.882  0.00  0.00    +0.000 C 
BRANCH  20  21
ATOM     21  C   UNL     1       6.458   3.507  12.975  0.00  0.00    +0.000 C 
BRANCH  21  22
ATOM     22  C   UNL     1       5.281   3.537  12.008  0.00  0.00    +0.000 C 
BRANCH  22  23
ATOM     23  C   UNL     1       5.060   2.161  11.379  0.00  0.00    +0.000 C 
BRANCH  23  25
ATOM     24  C   UNL     1       6.202  -0.083  11.291  0.00  0.00    +0.000 C 
ATOM     25  C   UNL     1       6.385   1.423  11.190  0.00  0.00    +0.000 C 
ENDBRANCH  23  25
ENDBRANCH  22  23
ENDBRANCH  21  22
ENDBRANCH  20  21
ENDBRANCH  18  20
ENDBRANCH   1  18
TORSDOF 9
ENDMDL
MODEL 9
REMARK VINA RESULT:      -7.1      2.550      4.843
REMARK  Name = 
REMARK  10 active torsions:
REMARK  status: ('A' for Active; 'I' for Inactive)
REMARK    1  A    between atoms: C_1  and  C_2
REMARK    2  A    between atoms: C_2  and  C_3
REMARK    3  A    between atoms: C_3  and  C_4
REMARK    4  A    between atoms: C_4  and  C_5
REMARK    5  A    between atoms: C_5  and  C_6
REMARK    6  A    between atoms: C_6  and  N_7
REMARK    7  A    between atoms: N_7  and  C_8
REMARK    8  A    between atoms: C_13  and  C_14
REMARK    9  A    between atoms: N_16  and  C_17
REMARK   10  A    between atoms: C_17  and  C_18
REMARK                            x       y       z     vdW  Elec       q    Type
REMARK                         _______ _______ _______ _____ _____    ______ ____
ROOT
ATOM      1  C   UNL     1       5.840   6.461  17.555  0.00  0.00    +0.000 A 
ATOM      2  N   UNL     1       6.672   7.532  17.582  0.00  0.00    +0.000 NA
ATOM      3  C   UNL     1       7.866   7.365  18.187  0.00  0.00    +0.000 A 
ATOM      4  C   UNL     1       8.263   6.151  18.729  0.00  0.00    +0.000 A 
ATOM      5  N   UNL     1       7.485   5.049  18.699  0.00  0.00    +0.000 NA
ATOM      6  C   UNL     1       6.251   5.236  18.125  0.00  0.00    +0.000 A 
ENDROOT
BRANCH   6   7
ATOM      7  C   UNL     1       5.361   4.025  18.094  0.00  0.00    +0.000 C 
ATOM      8  O   UNL     1       4.709   3.724  17.098  0.00  0.00    +0.000 OA
ATOM      9  N   UNL     1       5.314   3.301  19.272  0.00  0.00    +0.000 N 
ATOM     10  H   UNL     1       5.846   3.651  20.060  0.00  0.00    +0.000 HD
BRANCH   9  11
ATOM     11  C   UNL     1       4.529   2.096  19.417  0.00  0.00    +0.000 C 
BRANCH  11  12
ATOM     12  C   UNL     1       3.078   2.402  19.702  0.00  0.00    +0.000 A 
ATOM     13  C   UNL     1       2.668   2.836  20.969  0.00  0.00    +0.000 A 
ATOM     14  C   UNL     1       1.323   3.100  21.229  0.00  0.00    +0.000 A 
ATOM     15  C   UNL     1       0.368   2.936  20.222  0.00  0.00    +0.000 A 
ATOM     16  C   UNL     1       0.766   2.508  18.960  0.00  0.00    +0.000 A 
ATOM     17  C   UNL     1       2.109   2.240  18.697  0.00  0.00    +0.000 A 
ENDBRANCH  11  12
ENDBRANCH   9  11
ENDBRANCH   6   7
BRANCH   1  18
ATOM     18  N   UNL     1       4.604   6.604  16.939  0.00  0.00    +0.000 N 
ATOM     19  H   UNL     1       4.204   5.690  16.719  0.00  0.00    +0.000 HD
BRANCH  18  20
ATOM     20  C   UNL     1       3.669   7.589  17.436  0.00  0.00    +0.000 C 
BRANCH  20  21
ATOM     21  C   UNL     1       2.307   6.899  17.540  0.00  0.00    +0.000 C 
BRANCH  21  22
ATOM     22  C   UNL     1       2.292   5.809  18.605  0.00  0.00    +0.000 C 
BRANCH  22  23
ATOM     23  C   UNL     1       2.681   6.379  19.970  0.00  0.00    +0.000 C 
BRANCH  23  25
ATOM     24  C   UNL     1       1.350   8.277  20.954  0.00  0.00    +0.000 C 
ATOM     25  C   UNL     1       1.443   6.770  20.777  0.00  0.00    +0.000 C 
ENDBRANCH  23  25
ENDBRANCH  22  23
ENDBRANCH  21  22
ENDBRANCH  20  21
ENDBRANCH  18  20
ENDBRANCH   1  18
TORSDOF 9
ENDMDL
