MODEL 1
REMARK VINA RESULT:      -7.4      0.000      0.000
REMARK  Name = 
REMARK  9 active torsions:
REMARK  status: ('A' for Active; 'I' for Inactive)
REMARK    1  A    between atoms: C_1  and  O_2
REMARK    2  A    between atoms: O_2  and  C_3
REMARK    3  A    between atoms: C_3  and  C_5
REMARK    4  A    between atoms: C_5  and  N_6
REMARK    5  A    between atoms: N_13  and  C_14
REMARK    6  A    between atoms: C_14  and  C_15
REMARK    7  A    between atoms: C_15  and  C_16
REMARK    8  A    between atoms: C_19  and  S_20
REMARK    9  A    between atoms: S_20  and  N_21
REMARK                            x       y       z     vdW  Elec       q    Type
REMARK                         _______ _______ _______ _____ _____    ______ ____
ROOT
ATOM      1  N   UNL     1       7.871   7.618  18.295  0.00  0.00    +0.000 N 
ATOM      2  C   UNL     1       7.318   6.536  17.641  0.00  0.00    +0.000 A 
ATOM      3  N   UNL     1       7.454   6.371  16.343  0.00  0.00    +0.000 NA
ATOM      4  C   UNL     1       6.836   5.286  15.891  0.00  0.00    +0.000 A 
ATOM      5 CL   UNL     1       6.983   4.994  14.213  0.00  0.00    +0.000 Cl
ATOM      6  N   UNL     1       6.079   4.423  16.561  0.00  0.00    +0.000 NA
ATOM      7  C   UNL     1       5.990   4.700  17.843  0.00  0.00    +0.000 A 
ATOM      8  N   UNL     1       5.167   3.893  18.598  0.00  0.00    +0.000 N 
ATOM      9  N   UNL     1       6.629   5.712  18.411  0.00  0.00    +0.000 NA
ATOM     10  H   UNL     1       7.402   7.739  19.192  0.00  0.00    +0.000 HD
ATOM     11  H   UNL     1       4.690   3.234  17.994  0.00  0.00    +0.000 HD
ENDROOT
BRANCH   1  12
ATOM     12  C   UNL     1       8.049   8.847  17.530  0.00  0.00    +0.000 C 
BRANCH  12  13
ATOM     13  C   UNL     1       8.749   9.906  18.381  0.00  0.00    +0.000 C 
ATOM     14  O   UNL     1       9.220   9.713  19.494  0.00  0.00    +0.000 OA
BRANCH  13  16
ATOM     15  C   UNL     1       8.971  12.236  18.587  0.00  0.00    +0.000 C 
ATOM     16  O   UNL     1       8.731  11.113  17.738  0.00  0.00    +0.000 OA
ENDBRANCH  13  16
ENDBRANCH  12  13
ENDBRANCH   1  12
BRANCH   8  17
ATOM     17  C   UNL     1       4.383   4.378  19.739  0.00  0.00    +0.000 C 
BRANCH  17  18
ATOM     18  C   UNL     1       2.885   4.604  19.499  0.00  0.00    +0.000 C 
BRANCH  18  19
ATOM     19  C   UNL     1       2.479   6.049  19.397  0.00  0.00    +0.000 A 
ATOM     20  C   UNL     1       2.619   6.714  18.169  0.00  0.00    +0.000 A 
ATOM     21  C   UNL     1       2.181   8.025  18.027  0.00  0.00    +0.000 A 
ATOM     22  C   UNL     1       1.597   8.674  19.119  0.00  0.00    +0.000 A 
ATOM     23  C   UNL     1       1.471   8.029  20.353  0.00  0.00    +0.000 A 
ATOM     24  C   UNL     1       1.910   6.712  20.491  0.00  0.00    +0.000 A 
BRANCH  22  25
ATOM     25  S   UNL     1       1.051  10.340  18.939  0.00  0.00    +0.000 S 
ATOM     26  O   UNL     1      -0.212  10.354  18.242  0.00  0.00    +0.000 OA
ATOM     27  O   UNL     1       1.264  11.050  20.178  0.00  0.00    +0.000 OA
BRANCH  25  28
ATOM     28  N   UNL     1       2.184  10.951  17.857  0.00  0.00    +0.000 NA
ATOM     29  H   UNL     1       3.015  10.361  17.856  0.00  0.00    +0.000 HD
ATOM     30  H   UNL     1       1.755  11.074  16.940  0.00  0.00    +0.000 HD
ENDBRANCH  25  28
ENDBRANCH  22  25
ENDBRANCH  18  19
ENDBRANCH  17  18
ENDBRANCH   8  17
TORSDOF 8
ENDMDL
MODEL 2
REMARK VINA RESULT:      -7.3      3.329      4.455
REMARK  Name = 
REMARK  9 active torsions:
REMARK  status: ('A' for Active; 'I' for Inactive)
REMARK    1  A    between atoms: C_1  and  O_2
REMARK    2  A    between atoms: O_2  and  C_3
REMARK    3  A    between atoms: C_3  and  C_5
REMARK    4  A    between atoms: C_5  and  N_6
REMARK    5  A    between atoms: N_13  and  C_14
REMARK    6  A    between atoms: C_14  and  C_15
REMARK    7  A    between atoms: C_15  and  C_16
REMARK    8  A    between atoms: C_19  and  S_20
REMARK    9  A    between atoms: S_20  and  N_21
REMARK                            x       y       z     vdW  Elec       q    Type
REMARK                         _______ _______ _______ _____ _____    ______ ____
ROOT
ATOM      1  N   UNL     1       6.702   5.182  19.019  0.00  0.00    +0.000 N 
ATOM      2  C   UNL     1       5.474   4.571  19.180  0.00  0.00    +0.000 A 
ATOM      3  N   UNL     1       5.262   3.335  18.785  0.00  0.00    +0.000 NA
ATOM      4  C   UNL     1       4.017   2.928  19.004  0.00  0.00    +0.000 A 
ATOM      5 CL   UNL     1       3.668   1.322  18.533  0.00  0.00    +0.000 Cl
ATOM      6  N   UNL     1       2.993   3.618  19.496  0.00  0.00    +0.000 NA
ATOM      7  C   UNL     1       3.312   4.849  19.831  0.00  0.00    +0.000 A 
ATOM      8  N   UNL     1       2.292   5.654  20.287  0.00  0.00    +0.000 N 
ATOM      9  N   UNL     1       4.542   5.331  19.728  0.00  0.00    +0.000 NA
ATOM     10  H   UNL     1       6.581   6.192  19.080  0.00  0.00    +0.000 HD
ATOM     11  H   UNL     1       1.410   5.159  20.216  0.00  0.00    +0.000 HD
ENDROOT
BRANCH   1  12
ATOM     12  C   UNL     1       7.534   4.735  17.907  0.00  0.00    +0.000 C 
BRANCH  12  13
ATOM     13  C   UNL     1       7.043   5.347  16.596  0.00  0.00    +0.000 C 
ATOM     14  O   UNL     1       6.948   6.547  16.375  0.00  0.00    +0.000 OA
BRANCH  13  16
ATOM     15  C   UNL     1       6.726   4.744  14.348  0.00  0.00    +0.000 C 
ATOM     16  O   UNL     1       6.683   4.359  15.723  0.00  0.00    +0.000 OA
ENDBRANCH  13  16
ENDBRANCH  12  13
ENDBRANCH   1  12
BRANCH   8  17
ATOM     17  C   UNL     1       2.222   7.096  20.030  0.00  0.00    +0.000 C 
BRANCH  17  18
ATOM     18  C   UNL     1       1.646   7.968  21.153  0.00  0.00    +0.000 C 
BRANCH  18  19
ATOM     19  C   UNL     1       0.847   9.152  20.679  0.00  0.00    +0.000 A 
ATOM     20  C   UNL     1       0.839   9.467  19.312  0.00  0.00    +0.000 A 
ATOM     21  C   UNL     1       0.050  10.508  18.836  0.00  0.00    +0.000 A 
ATOM     22  C   UNL     1      -0.738  11.235  19.734  0.00  0.00    +0.000 A 
ATOM     23  C   UNL     1      -0.722  10.943  21.101  0.00  0.00    +0.000 A 
ATOM     24  C   UNL     1       0.069   9.896  21.574  0.00  0.00    +0.000 A 
BRANCH  22  25
ATOM     25  S   UNL     1      -1.731  12.559  19.129  0.00  0.00    +0.000 S 
ATOM     26  O   UNL     1      -3.104  12.124  19.041  0.00  0.00    +0.000 OA
ATOM     27  O   UNL     1      -1.344  13.785  19.788  0.00  0.00    +0.000 OA
BRANCH  25  28
ATOM     28  N   UNL     1      -1.185  12.695  17.545  0.00  0.00    +0.000 NA
ATOM     29  H   UNL     1      -0.645  11.867  17.293  0.00  0.00    +0.000 HD
ATOM     30  H   UNL     1      -1.970  12.889  16.924  0.00  0.00    +0.000 HD
ENDBRANCH  25  28
ENDBRANCH  22  25
ENDBRANCH  18  19
ENDBRANCH  17  18
ENDBRANCH   8  17
TORSDOF 8
ENDMDL
MODEL 3
REMARK VINA RESULT:      -7.2      1.552      1.788
REMARK  Name = 
REMARK  9 active torsions:
REMARK  status: ('A' for Active; 'I' for Inactive)
REMARK    1  A    between atoms: C_1  and  O_2
REMARK    2  A    between atoms: O_2  and  C_3
REMARK    3  A    between atoms: C_3  and  C_5
REMARK    4  A    between atoms: C_5  and  N_6
REMARK    5  A    between atoms: N_13  and  C_14
REMARK    6  A    between atoms: C_14  and  C_15
REMARK    7  A    between atoms: C_15  and  C_16
REMARK    8  A    between atoms: C_19  and  S_20
REMARK    9  A    between atoms: S_20  and  N_21
REMARK                            x       y       z     vdW  Elec       q    Type
REMARK                         _______ _______ _______ _____ _____    ______ ____
ROOT
ATOM      1  N   UNL     1       7.528   7.021  17.980  0.00  0.00    +0.000 N 
ATOM      2  C   UNL     1       7.087   5.998  17.165  0.00  0.00    +0.000 A 
ATOM      3  N   UNL     1       7.395   5.952  15.887  0.00  0.00    +0.000 NA
ATOM      4  C   UNL     1       6.863   4.907  15.263  0.00  0.00    +0.000 A 
ATOM      5 CL   UNL     1       7.235   4.769  13.600  0.00  0.00    +0.000 Cl
ATOM      6  N   UNL     1       6.042   3.981  15.748  0.00  0.00    +0.000 NA
ATOM      7  C   UNL     1       5.781   4.141  17.027  0.00  0.00    +0.000 A 
ATOM      8  N   UNL     1       4.883   3.262  17.591  0.00  0.00    +0.000 N 
ATOM      9  N   UNL     1       6.320   5.102  17.761  0.00  0.00    +0.000 NA
ATOM     10  H   UNL     1       6.944   7.057  18.814  0.00  0.00    +0.000 HD
ATOM     11  H   UNL     1       4.502   2.656  16.874  0.00  0.00    +0.000 HD
ENDROOT
BRANCH   1  12
ATOM     12  C   UNL     1       7.780   8.315  17.357  0.00  0.00    +0.000 C 
BRANCH  12  13
ATOM     13  C   UNL     1       8.480   9.252  18.341  0.00  0.00    +0.000 C 
ATOM     14  O   UNL     1       9.070   8.893  19.352  0.00  0.00    +0.000 OA
BRANCH  13  16
ATOM     15  C   UNL     1       9.416  11.404  18.253  0.00  0.00    +0.000 C 
ATOM     16  O   UNL     1       8.310  10.552  17.954  0.00  0.00    +0.000 OA
ENDBRANCH  13  16
ENDBRANCH  12  13
ENDBRANCH   1  12
BRANCH   8  17
ATOM     17  C   UNL     1       3.946   3.635  18.657  0.00  0.00    +0.000 C 
BRANCH  17  18
ATOM     18  C   UNL     1       2.666   4.361  18.226  0.00  0.00    +0.000 C 
BRANCH  18  19
ATOM     19  C   UNL     1       2.319   5.566  19.057  0.00  0.00    +0.000 A 
ATOM     20  C   UNL     1       2.498   6.846  18.512  0.00  0.00    +0.000 A 
ATOM     21  C   UNL     1       2.114   7.974  19.229  0.00  0.00    +0.000 A 
ATOM     22  C   UNL     1       1.547   7.819  20.497  0.00  0.00    +0.000 A 
ATOM     23  C   UNL     1       1.382   6.549  21.059  0.00  0.00    +0.000 A 
ATOM     24  C   UNL     1       1.767   5.420  20.335  0.00  0.00    +0.000 A 
BRANCH  22  25
ATOM     25  S   UNL     1       1.070   9.251  21.407  0.00  0.00    +0.000 S 
ATOM     26  O   UNL     1       1.880   9.351  22.596  0.00  0.00    +0.000 OA
ATOM     27  O   UNL     1       0.885  10.355  20.496  0.00  0.00    +0.000 OA
BRANCH  25  28
ATOM     28  N   UNL     1      -0.470   8.821  21.930  0.00  0.00    +0.000 NA
ATOM     29  H   UNL     1      -0.916   8.222  21.236  0.00  0.00    +0.000 HD
ATOM     30  H   UNL     1      -0.417   8.416  22.864  0.00  0.00    +0.000 HD
ENDBRANCH  25  28
ENDBRANCH  22  25
ENDBRANCH  18  19
ENDBRANCH  17  18
ENDBRANCH   8  17
TORSDOF 8
ENDMDL
MODEL 4
REMARK VINA RESULT:      -7.1      3.181      4.579
REMARK  Name = 
REMARK  9 active torsions:
REMARK  status: ('A' for Active; 'I' for Inactive)
REMARK    1  A    between atoms: C_1  and  O_2
REMARK    2  A    between atoms: O_2  and  C_3
REMARK    3  A    between atoms: C_3  and  C_5
REMARK    4  A    between atoms: C_5  and  N_6
REMARK    5  A    between atoms: N_13  and  C_14
REMARK    6  A    between atoms: C_14  and  C_15
REMARK    7  A    between atoms: C_15  and  C_16
REMARK    8  A    between atoms: C_19  and  S_20
REMARK    9  A    between atoms: S_20  and  N_21
REMARK                            x       y       z     vdW  Elec       q    Type
REMARK                         _______ _______ _______ _____ _____    ______ ____
ROOT
ATOM      1  N   UNL     1       6.413   5.342  18.852  0.00  0.00    +0.000 N 
ATOM      2  C   UNL     1       5.178   4.746  19.010  0.00  0.00    +0.000 A 
ATOM      3  N   UNL     1       4.917   3.556  18.513  0.00  0.00    +0.000 NA
ATOM      4  C   UNL     1       3.672   3.158  18.749  0.00  0.00    +0.000 A 
ATOM      5 CL   UNL     1       3.263   1.610  18.148  0.00  0.00    +0.000 Cl
ATOM      6  N   UNL     1       2.689   3.821  19.348  0.00  0.00    +0.000 NA
ATOM      7  C   UNL     1       3.054   5.008  19.781  0.00  0.00    +0.000 A 
ATOM      8  N   UNL     1       2.075   5.788  20.354  0.00  0.00    +0.000 N 
ATOM      9  N   UNL     1       4.290   5.471  19.667  0.00  0.00    +0.000 NA
ATOM     10  H   UNL     1       6.320   6.344  19.011  0.00  0.00    +0.000 HD
ATOM     11  H   UNL     1       1.178   5.322  20.277  0.00  0.00    +0.000 HD
ENDROOT
BRANCH   1  12
ATOM     12  C   UNL     1       7.185   4.983  17.667  0.00  0.00    +0.000 C 
BRANCH  12  13
ATOM     13  C   UNL     1       7.162   6.124  16.651  0.00  0.00    +0.000 C 
ATOM     14  O   UNL     1       6.770   7.260  16.882  0.00  0.00    +0.000 OA
BRANCH  13  16
ATOM     15  C   UNL     1       6.858   4.574  14.912  0.00  0.00    +0.000 C 
ATOM     16  O   UNL     1       7.598   5.679  15.435  0.00  0.00    +0.000 OA
ENDBRANCH  13  16
ENDBRANCH  12  13
ENDBRANCH   1  12
BRANCH   8  17
ATOM     17  C   UNL     1       2.031   7.250  20.235  0.00  0.00    +0.000 C 
BRANCH  17  18
ATOM     18  C   UNL     1       1.264   8.007  21.327  0.00  0.00    +0.000 C 
BRANCH  18  19
ATOM     19  C   UNL     1       0.643   9.300  20.874  0.00  0.00    +0.000 A 
ATOM     20  C   UNL     1       0.365  10.294  21.824  0.00  0.00    +0.000 A 
ATOM     21  C   UNL     1      -0.138  11.527  21.423  0.00  0.00    +0.000 A 
ATOM     22  C   UNL     1      -0.361  11.766  20.063  0.00  0.00    +0.000 A 
ATOM     23  C   UNL     1      -0.106  10.775  19.110  0.00  0.00    +0.000 A 
ATOM     24  C   UNL     1       0.400   9.541  19.516  0.00  0.00    +0.000 A 
BRANCH  22  25
ATOM     25  S   UNL     1      -1.006  13.326  19.559  0.00  0.00    +0.000 S 
ATOM     26  O   UNL     1      -1.032  14.220  20.691  0.00  0.00    +0.000 OA
ATOM     27  O   UNL     1      -0.426  13.695  18.289  0.00  0.00    +0.000 OA
BRANCH  25  28
ATOM     28  N   UNL     1      -2.611  12.940  19.237  0.00  0.00    +0.000 NA
ATOM     29  H   UNL     1      -3.070  12.627  20.093  0.00  0.00    +0.000 HD
ATOM     30  H   UNL     1      -3.070  13.726  18.778  0.00  0.00    +0.000 HD
ENDBRANCH  25  28
ENDBRANCH  22  25
ENDBRANCH  18  19
ENDBRANCH  17  18
ENDBRANCH   8  17
TORSDOF 8
ENDMDL
MODEL 5
REMARK VINA RESULT:      -7.0      3.081      4.246
REMARK  Name = 
REMARK  9 active torsions:
REMARK  status: ('A' for Active; 'I' for Inactive)
REMARK    1  A    between atoms: C_1  and  O_2
REMARK    2  A    between atoms: O_2  and  C_3
REMARK    3  A    between atoms: C_3  and  C_5
REMARK    4  A    between atoms: C_5  and  N_6
REMARK    5  A    between atoms: N_13  and  C_14
REMARK    6  A    between atoms: C_14  and  C_15
REMARK    7  A    between atoms: C_15  and  C_16
REMARK    8  A    between atoms: C_19  and  S_20
REMARK    9  A    between atoms: S_20  and  N_21
REMARK                            x       y       z     vdW  Elec       q    Type
REMARK                         _______ _______ _______ _____ _____    ______ ____
ROOT
ATOM      1  N   UNL     1       6.665   5.187  18.990  0.00  0.00    +0.000 N 
ATOM      2  C   UNL     1       5.455   4.538  19.137  0.00  0.00    +0.000 A 
ATOM      3  N   UNL     1       5.237   3.355  18.604  0.00  0.00    +0.000 NA
ATOM      4  C   UNL     1       4.010   2.901  18.835  0.00  0.00    +0.000 A 
ATOM      5 CL   UNL     1       3.656   1.359  18.188  0.00  0.00    +0.000 Cl
ATOM      6  N   UNL     1       3.006   3.506  19.462  0.00  0.00    +0.000 NA
ATOM      7  C   UNL     1       3.328   4.692  19.929  0.00  0.00    +0.000 A 
ATOM      8  N   UNL     1       2.324   5.416  20.534  0.00  0.00    +0.000 N 
ATOM      9  N   UNL     1       4.545   5.207  19.823  0.00  0.00    +0.000 NA
ATOM     10  H   UNL     1       6.535   6.179  19.182  0.00  0.00    +0.000 HD
ATOM     11  H   UNL     1       1.446   4.917  20.448  0.00  0.00    +0.000 HD
ENDROOT
BRANCH   1  12
ATOM     12  C   UNL     1       7.441   4.896  17.790  0.00  0.00    +0.000 C 
BRANCH  12  13
ATOM     13  C   UNL     1       7.116   5.904  16.689  0.00  0.00    +0.000 C 
ATOM     14  O   UNL     1       6.491   6.943  16.852  0.00  0.00    +0.000 OA
BRANCH  13  16
ATOM     15  C   UNL     1       6.599   4.815  14.673  0.00  0.00    +0.000 C 
ATOM     16  O   UNL     1       7.584   5.453  15.486  0.00  0.00    +0.000 OA
ENDBRANCH  13  16
ENDBRANCH  12  13
ENDBRANCH   1  12
BRANCH   8  17
ATOM     17  C   UNL     1       2.223   6.877  20.462  0.00  0.00    +0.000 C 
BRANCH  17  18
ATOM     18  C   UNL     1       2.216   7.499  19.059  0.00  0.00    +0.000 C 
BRANCH  18  19
ATOM     19  C   UNL     1       1.659   8.895  18.996  0.00  0.00    +0.000 A 
ATOM     20  C   UNL     1       0.811   9.339  20.022  0.00  0.00    +0.000 A 
ATOM     21  C   UNL     1       0.343  10.648  20.029  0.00  0.00    +0.000 A 
ATOM     22  C   UNL     1       0.728  11.518  19.004  0.00  0.00    +0.000 A 
ATOM     23  C   UNL     1       1.556  11.080  17.966  0.00  0.00    +0.000 A 
ATOM     24  C   UNL     1       2.025   9.767  17.964  0.00  0.00    +0.000 A 
BRANCH  22  25
ATOM     25  S   UNL     1       0.126  13.174  19.010  0.00  0.00    +0.000 S 
ATOM     26  O   UNL     1      -0.721  13.369  20.161  0.00  0.00    +0.000 OA
ATOM     27  O   UNL     1       1.204  14.075  18.676  0.00  0.00    +0.000 OA
BRANCH  25  28
ATOM     28  N   UNL     1      -0.898  13.166  17.677  0.00  0.00    +0.000 NA
ATOM     29  H   UNL     1      -0.875  14.076  17.217  0.00  0.00    +0.000 HD
ATOM     30  H   UNL     1      -0.667  12.382  17.068  0.00  0.00    +0.000 HD
ENDBRANCH  25  28
ENDBRANCH  22  25
ENDBRANCH  18  19
ENDBRANCH  17  18
ENDBRANCH   8  17
TORSDOF 8
ENDMDL
MODEL 6
REMARK VINA RESULT:      -7.0      5.122      9.641
REMARK  Name = 
REMARK  9 active torsions:
REMARK  status: ('A' for Active; 'I' for Inactive)
REMARK    1  A    between atoms: C_1  and  O_2
REMARK    2  A    between atoms: O_2  and  C_3
REMARK    3  A    between atoms: C_3  and  C_5
REMARK    4  A    between atoms: C_5  and  N_6
REMARK    5  A    between atoms: N_13  and  C_14
REMARK    6  A    between atoms: C_14  and  C_15
REMARK    7  A    between atoms: C_15  and  C_16
REMARK    8  A    between atoms: C_19  and  S_20
REMARK    9  A    between atoms: S_20  and  N_21
REMARK                            x       y       z     vdW  Elec       q    Type
REMARK                         _______ _______ _______ _____ _____    ______ ____
ROOT
ATOM      1  N   UNL     1      -2.871  10.291  17.288  0.00  0.00    +0.000 N 
ATOM      2  C   UNL     1      -1.789  10.879  17.911  0.00  0.00    +0.000 A 
ATOM      3  N   UNL     1      -1.778  12.160  18.213  0.00  0.00    +0.000 NA
ATOM      4  C   UNL     1      -0.645  12.546  18.788  0.00  0.00    +0.000 A 
ATOM      5 CL   UNL     1      -0.563  14.197  19.227  0.00  0.00    +0.000 Cl
ATOM      6  N   UNL     1       0.451  11.833  19.024  0.00  0.00    +0.000 NA
ATOM      7  C   UNL     1       0.338  10.575  18.657  0.00  0.00    +0.000 A 
ATOM      8  N   UNL     1       1.455   9.782  18.805  0.00  0.00    +0.000 N 
ATOM      9  N   UNL     1      -0.774  10.067  18.147  0.00  0.00    +0.000 NA
ATOM     10  H   UNL     1      -2.573   9.415  16.861  0.00  0.00    +0.000 HD
ATOM     11  H   UNL     1       2.235  10.347  19.121  0.00  0.00    +0.000 HD
ENDROOT
BRANCH   1  12
ATOM     12  C   UNL     1      -3.694  11.137  16.430  0.00  0.00    +0.000 C 
BRANCH  12  13
ATOM     13  C   UNL     1      -5.005  11.489  17.130  0.00  0.00    +0.000 C 
ATOM     14  O   UNL     1      -5.665  12.498  16.918  0.00  0.00    +0.000 OA
BRANCH  13  16
ATOM     15  C   UNL     1      -6.432  10.856  18.885  0.00  0.00    +0.000 C 
ATOM     16  O   UNL     1      -5.311  10.535  18.061  0.00  0.00    +0.000 OA
ENDBRANCH  13  16
ENDBRANCH  12  13
ENDBRANCH   1  12
BRANCH   8  17
ATOM     17  C   UNL     1       1.802   8.693  17.886  0.00  0.00    +0.000 C 
BRANCH  17  18
ATOM     18  C   UNL     1       2.205   7.357  18.522  0.00  0.00    +0.000 C 
BRANCH  18  19
ATOM     19  C   UNL     1       3.396   6.694  17.886  0.00  0.00    +0.000 A 
ATOM     20  C   UNL     1       3.356   5.315  17.631  0.00  0.00    +0.000 A 
ATOM     21  C   UNL     1       4.411   4.692  16.975  0.00  0.00    +0.000 A 
ATOM     22  C   UNL     1       5.512   5.454  16.570  0.00  0.00    +0.000 A 
ATOM     23  C   UNL     1       5.572   6.825  16.838  0.00  0.00    +0.000 A 
ATOM     24  C   UNL     1       4.510   7.447  17.494  0.00  0.00    +0.000 A 
BRANCH  22  25
ATOM     25  S   UNL     1       6.852   4.659  15.747  0.00  0.00    +0.000 S 
ATOM     26  O   UNL     1       7.052   5.275  14.457  0.00  0.00    +0.000 OA
ATOM     27  O   UNL     1       7.930   4.449  16.684  0.00  0.00    +0.000 OA
BRANCH  25  28
ATOM     28  N   UNL     1       6.205   3.138  15.439  0.00  0.00    +0.000 NA
ATOM     29  H   UNL     1       5.228   3.227  15.159  0.00  0.00    +0.000 HD
ATOM     30  H   UNL     1       6.790   2.643  14.767  0.00  0.00    +0.000 HD
ENDBRANCH  25  28
ENDBRANCH  22  25
ENDBRANCH  18  19
ENDBRANCH  17  18
ENDBRANCH   8  17
TORSDOF 8
ENDMDL
MODEL 7
REMARK VINA RESULT:      -7.0      3.555      4.917
REMARK  Name = 
REMARK  9 active torsions:
REMARK  status: ('A' for Active; 'I' for Inactive)
REMARK    1  A    between atoms: C_1  and  O_2
REMARK    2  A    between atoms: O_2  and  C_3
REMARK    3  A    between atoms: C_3  and  C_5
REMARK    4  A    between atoms: C_5  and  N_6
REMARK    5  A    between atoms: N_13  and  C_14
REMARK    6  A    between atoms: C_14  and  C_15
REMARK    7  A    between atoms: C_15  and  C_16
REMARK    8  A    between atoms: C_19  and  S_20
REMARK    9  A    between atoms: S_20  and  N_21
REMARK                            x       y       z     vdW  Elec       q    Type
REMARK                         _______ _______ _______ _____ _____    ______ ____
ROOT
ATOM      1  N   UNL     1       6.216   5.594  19.105  0.00  0.00    +0.000 N 
ATOM      2  C   UNL     1       4.993   4.954  19.142  0.00  0.00    +0.000 A 
ATOM      3  N   UNL     1       4.815   3.775  18.586  0.00  0.00    +0.000 NA
ATOM      4  C   UNL     1       3.570   3.329  18.706  0.00  0.00    +0.000 A 
ATOM      5 CL   UNL     1       3.264   1.792  18.022  0.00  0.00    +0.000 Cl
ATOM      6  N   UNL     1       2.519   3.938  19.244  0.00  0.00    +0.000 NA
ATOM      7  C   UNL     1       2.806   5.120  19.744  0.00  0.00    +0.000 A 
ATOM      8  N   UNL     1       1.757   5.848  20.260  0.00  0.00    +0.000 N 
ATOM      9  N   UNL     1       4.031   5.626  19.748  0.00  0.00    +0.000 NA
ATOM     10  H   UNL     1       6.076   6.587  19.290  0.00  0.00    +0.000 HD
ATOM     11  H   UNL     1       0.887   5.357  20.095  0.00  0.00    +0.000 HD
ENDROOT
BRANCH   1  12
ATOM     12  C   UNL     1       7.093   5.303  17.977  0.00  0.00    +0.000 C 
BRANCH  12  13
ATOM     13  C   UNL     1       7.049   6.443  16.961  0.00  0.00    +0.000 C 
ATOM     14  O   UNL     1       7.617   7.519  17.090  0.00  0.00    +0.000 OA
BRANCH  13  16
ATOM     15  C   UNL     1       6.577   4.857  15.293  0.00  0.00    +0.000 C 
ATOM     16  O   UNL     1       6.246   6.103  15.908  0.00  0.00    +0.000 OA
ENDBRANCH  13  16
ENDBRANCH  12  13
ENDBRANCH   1  12
BRANCH   8  17
ATOM     17  C   UNL     1       1.673   7.311  20.187  0.00  0.00    +0.000 C 
BRANCH  17  18
ATOM     18  C   UNL     1       1.765   8.074  21.515  0.00  0.00    +0.000 C 
BRANCH  18  19
ATOM     19  C   UNL     1       0.748   9.170  21.679  0.00  0.00    +0.000 A 
ATOM     20  C   UNL     1       0.168   9.381  22.939  0.00  0.00    +0.000 A 
ATOM     21  C   UNL     1      -0.716  10.435  23.137  0.00  0.00    +0.000 A 
ATOM     22  C   UNL     1      -1.021  11.283  22.068  0.00  0.00    +0.000 A 
ATOM     23  C   UNL     1      -0.465  11.070  20.803  0.00  0.00    +0.000 A 
ATOM     24  C   UNL     1       0.424  10.013  20.609  0.00  0.00    +0.000 A 
BRANCH  22  25
ATOM     25  S   UNL     1      -2.150  12.613  22.319  0.00  0.00    +0.000 S 
ATOM     26  O   UNL     1      -1.514  13.634  23.117  0.00  0.00    +0.000 OA
ATOM     27  O   UNL     1      -2.827  12.905  21.078  0.00  0.00    +0.000 OA
BRANCH  25  28
ATOM     28  N   UNL     1      -3.299  11.896  23.315  0.00  0.00    +0.000 NA
ATOM     29  H   UNL     1      -4.154  12.452  23.313  0.00  0.00    +0.000 HD
ATOM     30  H   UNL     1      -3.432  10.922  23.044  0.00  0.00    +0.000 HD
ENDBRANCH  25  28
ENDBRANCH  22  25
ENDBRANCH  18  19
ENDBRANCH  17  18
ENDBRANCH   8  17
TORSDOF 8
ENDMDL
MODEL 8
REMARK VINA RESULT:      -6.9      3.818      5.191
REMARK  Name = 
REMARK  9 active torsions:
REMARK  status: ('A' for Active; 'I' for Inactive)
REMARK    1  A    between atoms: C_1  and  O_2
REMARK    2  A    between atoms: O_2  and  C_3
REMARK    3  A    between atoms: C_3  and  C_5
REMARK    4  A    between atoms: C_5  and  N_6
REMARK    5  A    between atoms: N_13  and  C_14
REMARK    6  A    between atoms: C_14  and  C_15
REMARK    7  A    between atoms: C_15  and  C_16
REMARK    8  A    between atoms: C_19  and  S_20
REMARK    9  A    between atoms: S_20  and  N_21
REMARK                            x       y       z     vdW  Elec       q    Type
REMARK                         _______ _______ _______ _____ _____    ______ ____
ROOT
ATOM      1  N   UNL     1       5.129   6.263  17.709  0.00  0.00    +0.000 N 
ATOM      2  C   UNL     1       4.412   5.384  18.495  0.00  0.00    +0.000 A 
ATOM      3  N   UNL     1       4.516   4.081  18.346  0.00  0.00    +0.000 NA
ATOM      4  C   UNL     1       3.735   3.400  19.176  0.00  0.00    +0.000 A 
ATOM      5 CL   UNL     1       3.830   1.697  19.054  0.00  0.00    +0.000 Cl
ATOM      6  N   UNL     1       2.855   3.866  20.056  0.00  0.00    +0.000 NA
ATOM      7  C   UNL     1       2.814   5.180  20.101  0.00  0.00    +0.000 A 
ATOM      8  N   UNL     1       1.878   5.744  20.940  0.00  0.00    +0.000 N 
ATOM      9  N   UNL     1       3.605   5.954  19.373  0.00  0.00    +0.000 NA
ATOM     10  H   UNL     1       4.687   7.180  17.748  0.00  0.00    +0.000 HD
ATOM     11  H   UNL     1       1.302   5.016  21.346  0.00  0.00    +0.000 HD
ENDROOT
BRANCH   1  12
ATOM     12  C   UNL     1       5.494   5.821  16.367  0.00  0.00    +0.000 C 
BRANCH  12  13
ATOM     13  C   UNL     1       6.994   5.538  16.291  0.00  0.00    +0.000 C 
ATOM     14  O   UNL     1       7.764   5.578  17.241  0.00  0.00    +0.000 OA
BRANCH  13  16
ATOM     15  C   UNL     1       6.391   4.541  14.252  0.00  0.00    +0.000 C 
ATOM     16  O   UNL     1       7.358   5.280  14.999  0.00  0.00    +0.000 OA
ENDBRANCH  13  16
ENDBRANCH  12  13
ENDBRANCH   1  12
BRANCH   8  17
ATOM     17  C   UNL     1       1.183   7.002  20.647  0.00  0.00    +0.000 C 
BRANCH  17  18
ATOM     18  C   UNL     1       1.680   8.251  21.385  0.00  0.00    +0.000 C 
BRANCH  18  19
ATOM     19  C   UNL     1       0.618   9.281  21.659  0.00  0.00    +0.000 A 
ATOM     20  C   UNL     1       0.025   9.330  22.930  0.00  0.00    +0.000 A 
ATOM     21  C   UNL     1      -0.903  10.320  23.233  0.00  0.00    +0.000 A 
ATOM     22  C   UNL     1      -1.238  11.266  22.259  0.00  0.00    +0.000 A 
ATOM     23  C   UNL     1      -0.669  11.214  20.983  0.00  0.00    +0.000 A 
ATOM     24  C   UNL     1       0.263  10.221  20.684  0.00  0.00    +0.000 A 
BRANCH  22  25
ATOM     25  S   UNL     1      -2.422  12.514  22.644  0.00  0.00    +0.000 S 
ATOM     26  O   UNL     1      -2.811  13.191  21.431  0.00  0.00    +0.000 OA
ATOM     27  O   UNL     1      -3.383  11.986  23.583  0.00  0.00    +0.000 OA
BRANCH  25  28
ATOM     28  N   UNL     1      -1.487  13.612  23.508  0.00  0.00    +0.000 NA
ATOM     29  H   UNL     1      -1.679  14.559  23.185  0.00  0.00    +0.000 HD
ATOM     30  H   UNL     1      -1.628  13.473  24.509  0.00  0.00    +0.000 HD
ENDBRANCH  25  28
ENDBRANCH  22  25
ENDBRANCH  18  19
ENDBRANCH  17  18
ENDBRANCH   8  17
TORSDOF 8
ENDMDL
MODEL 9
REMARK VINA RESULT:      -6.9      3.253      4.576
REMARK  Name = 
REMARK  9 active torsions:
REMARK  status: ('A' for Active; 'I' for Inactive)
REMARK    1  A    between atoms: C_1  and  O_2
REMARK    2  A    between atoms: O_2  and  C_3
REMARK    3  A    between atoms: C_3  and  C_5
REMARK    4  A    between atoms: C_5  and  N_6
REMARK    5  A    between atoms: N_13  and  C_14
REMARK    6  A    between atoms: C_14  and  C_15
REMARK    7  A    between atoms: C_15  and  C_16
REMARK    8  A    between atoms: C_19  and  S_20
REMARK    9  A    between atoms: S_20  and  N_21
REMARK                            x       y       z     vdW  Elec       q    Type
REMARK                         _______ _______ _______ _____ _____    ______ ____
ROOT
ATOM      1  N   UNL     1       6.344   5.056  18.906  0.00  0.00    +0.000 N 
ATOM      2  C   UNL     1       5.026   4.645  18.930  0.00  0.00    +0.000 A 
ATOM      3  N   UNL     1       4.617   3.596  18.250  0.00  0.00    +0.000 NA
ATOM      4  C   UNL     1       3.316   3.369  18.380  0.00  0.00    +0.000 A 
ATOM      5 CL   UNL     1       2.712   2.009  17.538  0.00  0.00    +0.000 Cl
ATOM      6  N   UNL     1       2.410   4.085  19.039  0.00  0.00    +0.000 NA
ATOM      7  C   UNL     1       2.925   5.125  19.659  0.00  0.00    +0.000 A 
ATOM      8  N   UNL     1       2.043   5.959  20.310  0.00  0.00    +0.000 N 
ATOM      9  N   UNL     1       4.221   5.399  19.659  0.00  0.00    +0.000 NA
ATOM     10  H   UNL     1       6.394   6.027  19.212  0.00  0.00    +0.000 HD
ATOM     11  H   UNL     1       1.093   5.656  20.133  0.00  0.00    +0.000 HD
ENDROOT
BRANCH   1  12
ATOM     12  C   UNL     1       7.119   4.755  17.708  0.00  0.00    +0.000 C 
BRANCH  12  13
ATOM     13  C   UNL     1       7.088   5.938  16.743  0.00  0.00    +0.000 C 
ATOM     14  O   UNL     1       6.802   7.088  17.051  0.00  0.00    +0.000 OA
BRANCH  13  16
ATOM     15  C   UNL     1       6.734   4.304  15.094  0.00  0.00    +0.000 C 
ATOM     16  O   UNL     1       7.381   5.518  15.475  0.00  0.00    +0.000 OA
ENDBRANCH  13  16
ENDBRANCH  12  13
ENDBRANCH   1  12
BRANCH   8  17
ATOM     17  C   UNL     1       2.228   7.411  20.413  0.00  0.00    +0.000 C 
BRANCH  17  18
ATOM     18  C   UNL     1       1.834   8.243  19.186  0.00  0.00    +0.000 C 
BRANCH  18  19
ATOM     19  C   UNL     1       0.884   9.373  19.475  0.00  0.00    +0.000 A 
ATOM     20  C   UNL     1       0.385  10.136  18.409  0.00  0.00    +0.000 A 
ATOM     21  C   UNL     1      -0.553  11.136  18.640  0.00  0.00    +0.000 A 
ATOM     22  C   UNL     1      -0.995  11.372  19.945  0.00  0.00    +0.000 A 
ATOM     23  C   UNL     1      -0.489  10.632  21.018  0.00  0.00    +0.000 A 
ATOM     24  C   UNL     1       0.449   9.628  20.782  0.00  0.00    +0.000 A 
BRANCH  22  25
ATOM     25  S   UNL     1      -2.177  12.646  20.236  0.00  0.00    +0.000 S 
ATOM     26  O   UNL     1      -1.562  13.930  19.999  0.00  0.00    +0.000 OA
ATOM     27  O   UNL     1      -3.441  12.269  19.648  0.00  0.00    +0.000 OA
BRANCH  25  28
ATOM     28  N   UNL     1      -2.391  12.536  21.900  0.00  0.00    +0.000 NA
ATOM     29  H   UNL     1      -1.538  12.826  22.379  0.00  0.00    +0.000 HD
ATOM     30  H   UNL     1      -3.224  13.053  22.177  0.00  0.00    +0.000 HD
ENDBRANCH  25  28
ENDBRANCH  22  25
ENDBRANCH  18  19
ENDBRANCH  17  18
ENDBRANCH   8  17
TORSDOF 8
ENDMDL
