MODEL 1
REMARK VINA RESULT:      -7.1      0.000      0.000
REMARK  Name = 
REMARK  10 active torsions:
REMARK  status: ('A' for Active; 'I' for Inactive)
REMARK    1  A    between atoms: N_1  and  C_2
REMARK    2  A    between atoms: C_5  and  C_6
REMARK    3  A    between atoms: C_11  and  C_13
REMARK    4  A    between atoms: C_13  and  C_14
REMARK    5  A    between atoms: C_14  and  C_15
REMARK    6  A    between atoms: C_15  and  C_16
REMARK    7  A    between atoms: C_16  and  C_17
REMARK    8  A    between atoms: C_17  and  C_18
REMARK    9  A    between atoms: C_18  and  C_19
REMARK   10  A    between atoms: N_21  and  O_22
REMARK                            x       y       z     vdW  Elec       q    Type
REMARK                         _______ _______ _______ _____ _____    ______ ____
ROOT
ATOM      1  C   UNL     1       4.274   4.340  18.581  0.00  0.00    +0.000 A 
ATOM      2  C   UNL     1       3.968   3.108  19.133  0.00  0.00    +0.000 A 
ATOM      3  S   UNL     1       2.851   3.306  20.432  0.00  0.00    +0.000 S 
ATOM      4  C   UNL     1       2.814   4.976  20.109  0.00  0.00    +0.000 A 
ATOM      5  N   UNL     1       1.956   5.709  20.876  0.00  0.00    +0.000 N 
ATOM      6  C   UNL     1       1.701   7.029  20.575  0.00  0.00    +0.000 C 
ATOM      7  O   UNL     1       2.160   7.677  19.639  0.00  0.00    +0.000 OA
ATOM      8  N   UNL     1       3.598   5.398  19.158  0.00  0.00    +0.000 NA
ATOM      9  H   UNL     1       1.461   5.225  21.609  0.00  0.00    +0.000 HD
ENDROOT
BRANCH   1  13
ATOM     10  C   UNL     1       6.978   5.012  15.317  0.00  0.00    +0.000 A 
ATOM     11  C   UNL     1       7.129   5.720  16.510  0.00  0.00    +0.000 A 
ATOM     12  C   UNL     1       6.272   5.502  17.597  0.00  0.00    +0.000 A 
ATOM     13  C   UNL     1       5.214   4.595  17.493  0.00  0.00    +0.000 A 
ATOM     14  C   UNL     1       5.034   3.923  16.274  0.00  0.00    +0.000 A 
ATOM     15  C   UNL     1       5.892   4.148  15.192  0.00  0.00    +0.000 A 
BRANCH  10  16
ATOM     16  N   UNL     1       7.752   5.337  14.197  0.00  0.00    +0.000 N 
ATOM     17  H   UNL     1       7.864   4.572  13.541  0.00  0.00    +0.000 HD
ATOM     18  H   UNL     1       7.460   6.196  13.740  0.00  0.00    +0.000 HD
ENDBRANCH  10  16
ENDBRANCH   1  13
BRANCH   6  19
ATOM     19  C   UNL     1       0.723   7.680  21.526  0.00  0.00    +0.000 C 
BRANCH  19  20
ATOM     20  C   UNL     1       1.321   8.976  22.071  0.00  0.00    +0.000 C 
BRANCH  20  21
ATOM     21  C   UNL     1       0.325   9.807  22.880  0.00  0.00    +0.000 C 
BRANCH  21  22
ATOM     22  C   UNL     1      -0.787  10.410  22.019  0.00  0.00    +0.000 C 
BRANCH  22  23
ATOM     23  C   UNL     1      -0.219  11.065  20.764  0.00  0.00    +0.000 C 
BRANCH  23  24
ATOM     24  C   UNL     1      -0.743  10.388  19.499  0.00  0.00    +0.000 C 
BRANCH  24  25
ATOM     25  C   UNL     1      -1.295  11.396  18.515  0.00  0.00    +0.000 C 
ATOM     26  O   UNL     1      -1.515  12.576  18.775  0.00  0.00    +0.000 OA
ATOM     27  N   UNL     1      -1.531  10.873  17.268  0.00  0.00    +0.000 N 
ATOM     28  H   UNL     1      -1.452   9.897  17.014  0.00  0.00    +0.000 HD
BRANCH  27  29
ATOM     29  O   UNL     1      -2.079  11.758  16.315  0.00  0.00    +0.000 OA
ATOM     30  H   UNL     1      -2.467  12.462  16.883  0.00  0.00    +0.000 HD
ENDBRANCH  27  29
ENDBRANCH  24  25
ENDBRANCH  23  24
ENDBRANCH  22  23
ENDBRANCH  21  22
ENDBRANCH  20  21
ENDBRANCH  19  20
ENDBRANCH   6  19
TORSDOF 10
ENDMDL
MODEL 2
REMARK VINA RESULT:      -7.0      3.341      8.859
REMARK  Name = 
REMARK  10 active torsions:
REMARK  status: ('A' for Active; 'I' for Inactive)
REMARK    1  A    between atoms: N_1  and  C_2
REMARK    2  A    between atoms: C_5  and  C_6
REMARK    3  A    between atoms: C_11  and  C_13
REMARK    4  A    between atoms: C_13  and  C_14
REMARK    5  A    between atoms: C_14  and  C_15
REMARK    6  A    between atoms: C_15  and  C_16
REMARK    7  A    between atoms: C_16  and  C_17
REMARK    8  A    between atoms: C_17  and  C_18
REMARK    9  A    between atoms: C_18  and  C_19
REMARK   10  A    between atoms: N_21  and  O_22
REMARK                            x       y       z     vdW  Elec       q    Type
REMARK                         _______ _______ _______ _____ _____    ______ ____
ROOT
ATOM      1  C   UNL     1       1.309   8.786  20.019  0.00  0.00    +0.000 A 
ATOM      2  C   UNL     1       1.752   9.204  18.776  0.00  0.00    +0.000 A 
ATOM      3  S   UNL     1       2.752   7.989  18.069  0.00  0.00    +0.000 S 
ATOM      4  C   UNL     1       2.455   6.998  19.420  0.00  0.00    +0.000 A 
ATOM      5  N   UNL     1       3.008   5.751  19.373  0.00  0.00    +0.000 N 
ATOM      6  C   UNL     1       2.675   4.803  20.315  0.00  0.00    +0.000 C 
ATOM      7  O   UNL     1       1.885   4.929  21.246  0.00  0.00    +0.000 OA
ATOM      8  N   UNL     1       1.724   7.515  20.367  0.00  0.00    +0.000 NA
ATOM      9  H   UNL     1       3.594   5.534  18.583  0.00  0.00    +0.000 HD
ENDROOT
BRANCH   1  13
ATOM     10  C   UNL     1      -1.157  11.103  22.659  0.00  0.00    +0.000 A 
ATOM     11  C   UNL     1      -0.496   9.969  23.132  0.00  0.00    +0.000 A 
ATOM     12  C   UNL     1       0.332   9.209  22.294  0.00  0.00    +0.000 A 
ATOM     13  C   UNL     1       0.478   9.550  20.947  0.00  0.00    +0.000 A 
ATOM     14  C   UNL     1      -0.229  10.662  20.463  0.00  0.00    +0.000 A 
ATOM     15  C   UNL     1      -1.055  11.413  21.304  0.00  0.00    +0.000 A 
BRANCH  10  16
ATOM     16  N   UNL     1      -2.085  11.771  23.466  0.00  0.00    +0.000 N 
ATOM     17  H   UNL     1      -2.986  11.310  23.522  0.00  0.00    +0.000 HD
ATOM     18  H   UNL     1      -1.720  12.017  24.382  0.00  0.00    +0.000 HD
ENDBRANCH  10  16
ENDBRANCH   1  13
BRANCH   6  19
ATOM     19  C   UNL     1       3.376   3.480  20.103  0.00  0.00    +0.000 C 
BRANCH  19  20
ATOM     20  C   UNL     1       2.609   2.650  19.076  0.00  0.00    +0.000 C 
BRANCH  20  21
ATOM     21  C   UNL     1       2.725   3.193  17.652  0.00  0.00    +0.000 C 
BRANCH  21  22
ATOM     22  C   UNL     1       4.105   2.955  17.033  0.00  0.00    +0.000 C 
BRANCH  22  23
ATOM     23  C   UNL     1       4.590   4.188  16.276  0.00  0.00    +0.000 C 
BRANCH  23  24
ATOM     24  C   UNL     1       6.049   4.039  15.850  0.00  0.00    +0.000 C 
BRANCH  24  25
ATOM     25  C   UNL     1       6.973   4.855  16.727  0.00  0.00    +0.000 C 
ATOM     26  O   UNL     1       7.523   5.897  16.380  0.00  0.00    +0.000 OA
ATOM     27  N   UNL     1       7.148   4.326  17.981  0.00  0.00    +0.000 N 
ATOM     28  H   UNL     1       6.795   3.433  18.299  0.00  0.00    +0.000 HD
BRANCH  27  29
ATOM     29  O   UNL     1       8.028   5.025  18.835  0.00  0.00    +0.000 OA
ATOM     30  H   UNL     1       8.727   4.355  19.007  0.00  0.00    +0.000 HD
ENDBRANCH  27  29
ENDBRANCH  24  25
ENDBRANCH  23  24
ENDBRANCH  22  23
ENDBRANCH  21  22
ENDBRANCH  20  21
ENDBRANCH  19  20
ENDBRANCH   6  19
TORSDOF 10
ENDMDL
MODEL 3
REMARK VINA RESULT:      -7.0      3.238      8.778
REMARK  Name = 
REMARK  10 active torsions:
REMARK  status: ('A' for Active; 'I' for Inactive)
REMARK    1  A    between atoms: N_1  and  C_2
REMARK    2  A    between atoms: C_5  and  C_6
REMARK    3  A    between atoms: C_11  and  C_13
REMARK    4  A    between atoms: C_13  and  C_14
REMARK    5  A    between atoms: C_14  and  C_15
REMARK    6  A    between atoms: C_15  and  C_16
REMARK    7  A    between atoms: C_16  and  C_17
REMARK    8  A    between atoms: C_17  and  C_18
REMARK    9  A    between atoms: C_18  and  C_19
REMARK   10  A    between atoms: N_21  and  O_22
REMARK                            x       y       z     vdW  Elec       q    Type
REMARK                         _______ _______ _______ _____ _____    ______ ____
ROOT
ATOM      1  C   UNL     1       1.329   9.272  19.588  0.00  0.00    +0.000 A 
ATOM      2  C   UNL     1       1.816   9.564  18.326  0.00  0.00    +0.000 A 
ATOM      3  S   UNL     1       2.604   8.180  17.664  0.00  0.00    +0.000 S 
ATOM      4  C   UNL     1       2.173   7.303  19.057  0.00  0.00    +0.000 A 
ATOM      5  N   UNL     1       2.524   5.984  19.059  0.00  0.00    +0.000 N 
ATOM      6  C   UNL     1       2.059   5.138  20.042  0.00  0.00    +0.000 C 
ATOM      7  O   UNL     1       1.311   5.424  20.972  0.00  0.00    +0.000 OA
ATOM      8  N   UNL     1       1.545   7.966  19.986  0.00  0.00    +0.000 NA
ATOM      9  H   UNL     1       3.058   5.646  18.274  0.00  0.00    +0.000 HD
ENDROOT
BRANCH   1  13
ATOM     10  C   UNL     1      -0.727  11.887  22.299  0.00  0.00    +0.000 A 
ATOM     11  C   UNL     1      -0.039  12.412  21.204  0.00  0.00    +0.000 A 
ATOM     12  C   UNL     1       0.621  11.577  20.293  0.00  0.00    +0.000 A 
ATOM     13  C   UNL     1       0.641  10.193  20.489  0.00  0.00    +0.000 A 
ATOM     14  C   UNL     1      -0.009   9.673  21.619  0.00  0.00    +0.000 A 
ATOM     15  C   UNL     1      -0.663  10.514  22.525  0.00  0.00    +0.000 A 
BRANCH  10  16
ATOM     16  N   UNL     1      -1.264  12.737  23.273  0.00  0.00    +0.000 N 
ATOM     17  H   UNL     1      -0.574  13.315  23.738  0.00  0.00    +0.000 HD
ATOM     18  H   UNL     1      -2.059  13.277  22.944  0.00  0.00    +0.000 HD
ENDBRANCH  10  16
ENDBRANCH   1  13
BRANCH   6  19
ATOM     19  C   UNL     1       2.542   3.715  19.881  0.00  0.00    +0.000 C 
BRANCH  19  20
ATOM     20  C   UNL     1       1.696   3.000  18.828  0.00  0.00    +0.000 C 
BRANCH  20  21
ATOM     21  C   UNL     1       2.521   2.429  17.676  0.00  0.00    +0.000 C 
BRANCH  21  22
ATOM     22  C   UNL     1       3.984   2.878  17.710  0.00  0.00    +0.000 C 
BRANCH  22  23
ATOM     23  C   UNL     1       4.286   3.860  16.581  0.00  0.00    +0.000 C 
BRANCH  23  24
ATOM     24  C   UNL     1       5.003   5.103  17.104  0.00  0.00    +0.000 C 
BRANCH  24  25
ATOM     25  C   UNL     1       6.233   4.741  17.907  0.00  0.00    +0.000 C 
ATOM     26  O   UNL     1       6.312   4.813  19.131  0.00  0.00    +0.000 OA
ATOM     27  N   UNL     1       7.283   4.307  17.138  0.00  0.00    +0.000 N 
ATOM     28  H   UNL     1       7.312   4.306  16.127  0.00  0.00    +0.000 HD
BRANCH  27  29
ATOM     29  O   UNL     1       8.471   3.987  17.829  0.00  0.00    +0.000 OA
ATOM     30  H   UNL     1       9.086   4.692  17.522  0.00  0.00    +0.000 HD
ENDBRANCH  27  29
ENDBRANCH  24  25
ENDBRANCH  23  24
ENDBRANCH  22  23
ENDBRANCH  21  22
ENDBRANCH  20  21
ENDBRANCH  19  20
ENDBRANCH   6  19
TORSDOF 10
ENDMDL
MODEL 4
REMARK VINA RESULT:      -7.0      3.279      8.960
REMARK  Name = 
REMARK  10 active torsions:
REMARK  status: ('A' for Active; 'I' for Inactive)
REMARK    1  A    between atoms: N_1  and  C_2
REMARK    2  A    between atoms: C_5  and  C_6
REMARK    3  A    between atoms: C_11  and  C_13
REMARK    4  A    between atoms: C_13  and  C_14
REMARK    5  A    between atoms: C_14  and  C_15
REMARK    6  A    between atoms: C_15  and  C_16
REMARK    7  A    between atoms: C_16  and  C_17
REMARK    8  A    between atoms: C_17  and  C_18
REMARK    9  A    between atoms: C_18  and  C_19
REMARK   10  A    between atoms: N_21  and  O_22
REMARK                            x       y       z     vdW  Elec       q    Type
REMARK                         _______ _______ _______ _____ _____    ______ ____
ROOT
ATOM      1  C   UNL     1       1.292   8.816  19.952  0.00  0.00    +0.000 A 
ATOM      2  C   UNL     1       1.662   9.207  18.677  0.00  0.00    +0.000 A 
ATOM      3  S   UNL     1       2.632   7.983  17.945  0.00  0.00    +0.000 S 
ATOM      4  C   UNL     1       2.419   7.023  19.334  0.00  0.00    +0.000 A 
ATOM      5  N   UNL     1       2.980   5.780  19.286  0.00  0.00    +0.000 N 
ATOM      6  C   UNL     1       2.709   4.852  20.268  0.00  0.00    +0.000 C 
ATOM      7  O   UNL     1       1.971   4.994  21.237  0.00  0.00    +0.000 OA
ATOM      8  N   UNL     1       1.738   7.557  20.307  0.00  0.00    +0.000 NA
ATOM      9  H   UNL     1       3.524   5.548  18.470  0.00  0.00    +0.000 HD
ENDROOT
BRANCH   1  13
ATOM     10  C   UNL     1      -1.005  11.199  22.685  0.00  0.00    +0.000 A 
ATOM     11  C   UNL     1      -0.727   9.863  22.981  0.00  0.00    +0.000 A 
ATOM     12  C   UNL     1       0.039   9.072  22.114  0.00  0.00    +0.000 A 
ATOM     13  C   UNL     1       0.508   9.596  20.906  0.00  0.00    +0.000 A 
ATOM     14  C   UNL     1       0.183  10.924  20.589  0.00  0.00    +0.000 A 
ATOM     15  C   UNL     1      -0.584  11.707  21.457  0.00  0.00    +0.000 A 
BRANCH  10  16
ATOM     16  N   UNL     1      -1.883  11.936  23.488  0.00  0.00    +0.000 N 
ATOM     17  H   UNL     1      -1.592  12.895  23.639  0.00  0.00    +0.000 HD
ATOM     18  H   UNL     1      -2.852  11.869  23.192  0.00  0.00    +0.000 HD
ENDBRANCH  10  16
ENDBRANCH   1  13
BRANCH   6  19
ATOM     19  C   UNL     1       3.410   3.530  20.049  0.00  0.00    +0.000 C 
BRANCH  19  20
ATOM     20  C   UNL     1       4.507   3.697  18.999  0.00  0.00    +0.000 C 
BRANCH  20  21
ATOM     21  C   UNL     1       4.158   3.062  17.654  0.00  0.00    +0.000 C 
BRANCH  21  22
ATOM     22  C   UNL     1       4.180   4.064  16.497  0.00  0.00    +0.000 C 
BRANCH  22  23
ATOM     23  C   UNL     1       5.411   4.963  16.569  0.00  0.00    +0.000 C 
BRANCH  23  24
ATOM     24  C   UNL     1       6.649   4.251  16.027  0.00  0.00    +0.000 C 
BRANCH  24  25
ATOM     25  C   UNL     1       6.820   4.483  14.542  0.00  0.00    +0.000 C 
ATOM     26  O   UNL     1       7.342   5.479  14.047  0.00  0.00    +0.000 OA
ATOM     27  N   UNL     1       6.337   3.458  13.767  0.00  0.00    +0.000 N 
ATOM     28  H   UNL     1       5.823   2.655  14.106  0.00  0.00    +0.000 HD
BRANCH  27  29
ATOM     29  O   UNL     1       6.436   3.632  12.370  0.00  0.00    +0.000 OA
ATOM     30  H   UNL     1       7.368   3.929  12.263  0.00  0.00    +0.000 HD
ENDBRANCH  27  29
ENDBRANCH  24  25
ENDBRANCH  23  24
ENDBRANCH  22  23
ENDBRANCH  21  22
ENDBRANCH  20  21
ENDBRANCH  19  20
ENDBRANCH   6  19
TORSDOF 10
ENDMDL
MODEL 5
REMARK VINA RESULT:      -7.0      3.356      9.104
REMARK  Name = 
REMARK  10 active torsions:
REMARK  status: ('A' for Active; 'I' for Inactive)
REMARK    1  A    between atoms: N_1  and  C_2
REMARK    2  A    between atoms: C_5  and  C_6
REMARK    3  A    between atoms: C_11  and  C_13
REMARK    4  A    between atoms: C_13  and  C_14
REMARK    5  A    between atoms: C_14  and  C_15
REMARK    6  A    between atoms: C_15  and  C_16
REMARK    7  A    between atoms: C_16  and  C_17
REMARK    8  A    between atoms: C_17  and  C_18
REMARK    9  A    between atoms: C_18  and  C_19
REMARK   10  A    between atoms: N_21  and  O_22
REMARK                            x       y       z     vdW  Elec       q    Type
REMARK                         _______ _______ _______ _____ _____    ______ ____
ROOT
ATOM      1  C   UNL     1       0.930   9.422  19.846  0.00  0.00    +0.000 A 
ATOM      2  C   UNL     1       1.258   9.951  18.610  0.00  0.00    +0.000 A 
ATOM      3  S   UNL     1       2.302   8.868  17.765  0.00  0.00    +0.000 S 
ATOM      4  C   UNL     1       2.171   7.774  19.061  0.00  0.00    +0.000 A 
ATOM      5  N   UNL     1       2.816   6.583  18.898  0.00  0.00    +0.000 N 
ATOM      6  C   UNL     1       2.620   5.553  19.792  0.00  0.00    +0.000 C 
ATOM      7  O   UNL     1       1.885   5.555  20.774  0.00  0.00    +0.000 OA
ATOM      8  N   UNL     1       1.465   8.169  20.082  0.00  0.00    +0.000 NA
ATOM      9  H   UNL     1       3.365   6.464  18.061  0.00  0.00    +0.000 HD
ENDROOT
BRANCH   1  13
ATOM     10  C   UNL     1      -1.524  11.365  22.782  0.00  0.00    +0.000 A 
ATOM     11  C   UNL     1      -0.842  10.191  23.104  0.00  0.00    +0.000 A 
ATOM     12  C   UNL     1      -0.017   9.550  22.169  0.00  0.00    +0.000 A 
ATOM     13  C   UNL     1       0.105  10.055  20.871  0.00  0.00    +0.000 A 
ATOM     14  C   UNL     1      -0.623  11.207  20.536  0.00  0.00    +0.000 A 
ATOM     15  C   UNL     1      -1.446  11.839  21.474  0.00  0.00    +0.000 A 
BRANCH  10  16
ATOM     16  N   UNL     1      -2.448  11.917  23.677  0.00  0.00    +0.000 N 
ATOM     17  H   UNL     1      -2.631  12.902  23.521  0.00  0.00    +0.000 HD
ATOM     18  H   UNL     1      -3.303  11.375  23.759  0.00  0.00    +0.000 HD
ENDBRANCH  10  16
ENDBRANCH   1  13
BRANCH   6  19
ATOM     19  C   UNL     1       3.408   4.309  19.450  0.00  0.00    +0.000 C 
BRANCH  19  20
ATOM     20  C   UNL     1       4.903   4.592  19.589  0.00  0.00    +0.000 C 
BRANCH  20  21
ATOM     21  C   UNL     1       5.660   4.508  18.265  0.00  0.00    +0.000 C 
BRANCH  21  22
ATOM     22  C   UNL     1       6.089   5.879  17.735  0.00  0.00    +0.000 C 
BRANCH  22  23
ATOM     23  C   UNL     1       5.778   6.018  16.248  0.00  0.00    +0.000 C 
BRANCH  23  24
ATOM     24  C   UNL     1       5.700   4.653  15.568  0.00  0.00    +0.000 C 
BRANCH  24  25
ATOM     25  C   UNL     1       6.585   4.588  14.343  0.00  0.00    +0.000 C 
ATOM     26  O   UNL     1       6.465   3.765  13.439  0.00  0.00    +0.000 OA
ATOM     27  N   UNL     1       7.558   5.555  14.317  0.00  0.00    +0.000 N 
ATOM     28  H   UNL     1       7.764   6.204  15.066  0.00  0.00    +0.000 HD
BRANCH  27  29
ATOM     29  O   UNL     1       8.439   5.524  13.215  0.00  0.00    +0.000 OA
ATOM     30  H   UNL     1       9.021   4.761  13.434  0.00  0.00    +0.000 HD
ENDBRANCH  27  29
ENDBRANCH  24  25
ENDBRANCH  23  24
ENDBRANCH  22  23
ENDBRANCH  21  22
ENDBRANCH  20  21
ENDBRANCH  19  20
ENDBRANCH   6  19
TORSDOF 10
ENDMDL
MODEL 6
REMARK VINA RESULT:      -6.9      1.105      1.560
REMARK  Name = 
REMARK  10 active torsions:
REMARK  status: ('A' for Active; 'I' for Inactive)
REMARK    1  A    between atoms: N_1  and  C_2
REMARK    2  A    between atoms: C_5  and  C_6
REMARK    3  A    between atoms: C_11  and  C_13
REMARK    4  A    between atoms: C_13  and  C_14
REMARK    5  A    between atoms: C_14  and  C_15
REMARK    6  A    between atoms: C_15  and  C_16
REMARK    7  A    between atoms: C_16  and  C_17
REMARK    8  A    between atoms: C_17  and  C_18
REMARK    9  A    between atoms: C_18  and  C_19
REMARK   10  A    between atoms: N_21  and  O_22
REMARK                            x       y       z     vdW  Elec       q    Type
REMARK                         _______ _______ _______ _____ _____    ______ ____
ROOT
ATOM      1  C   UNL     1       3.600   4.601  18.589  0.00  0.00    +0.000 A 
ATOM      2  C   UNL     1       3.137   3.416  19.132  0.00  0.00    +0.000 A 
ATOM      3  S   UNL     1       2.072   3.748  20.448  0.00  0.00    +0.000 S 
ATOM      4  C   UNL     1       2.257   5.412  20.141  0.00  0.00    +0.000 A 
ATOM      5  N   UNL     1       1.516   6.245  20.927  0.00  0.00    +0.000 N 
ATOM      6  C   UNL     1       1.438   7.591  20.641  0.00  0.00    +0.000 C 
ATOM      7  O   UNL     1       1.969   8.181  19.706  0.00  0.00    +0.000 OA
ATOM      8  N   UNL     1       3.080   5.735  19.184  0.00  0.00    +0.000 NA
ATOM      9  H   UNL     1       0.969   5.824  21.661  0.00  0.00    +0.000 HD
ENDROOT
BRANCH   1  13
ATOM     10  C   UNL     1       6.403   5.122  15.380  0.00  0.00    +0.000 A 
ATOM     11  C   UNL     1       5.934   3.848  15.702  0.00  0.00    +0.000 A 
ATOM     12  C   UNL     1       5.002   3.655  16.731  0.00  0.00    +0.000 A 
ATOM     13  C   UNL     1       4.553   4.740  17.491  0.00  0.00    +0.000 A 
ATOM     14  C   UNL     1       5.067   6.013  17.198  0.00  0.00    +0.000 A 
ATOM     15  C   UNL     1       5.999   6.196  16.171  0.00  0.00    +0.000 A 
BRANCH  10  16
ATOM     16  N   UNL     1       7.432   5.285  14.446  0.00  0.00    +0.000 N 
ATOM     17  H   UNL     1       7.556   4.489  13.830  0.00  0.00    +0.000 HD
ATOM     18  H   UNL     1       7.380   6.162  13.936  0.00  0.00    +0.000 HD
ENDBRANCH  10  16
ENDBRANCH   1  13
BRANCH   6  19
ATOM     19  C   UNL     1       0.568   8.357  21.612  0.00  0.00    +0.000 C 
BRANCH  19  20
ATOM     20  C   UNL     1       1.121   9.770  21.794  0.00  0.00    +0.000 C 
BRANCH  20  21
ATOM     21  C   UNL     1       0.230  10.850  21.184  0.00  0.00    +0.000 C 
BRANCH  21  22
ATOM     22  C   UNL     1       0.716  11.320  19.810  0.00  0.00    +0.000 C 
BRANCH  22  23
ATOM     23  C   UNL     1      -0.320  12.211  19.133  0.00  0.00    +0.000 C 
BRANCH  23  24
ATOM     24  C   UNL     1      -1.666  11.501  19.008  0.00  0.00    +0.000 C 
BRANCH  24  25
ATOM     25  C   UNL     1      -1.874  10.940  17.619  0.00  0.00    +0.000 C 
ATOM     26  O   UNL     1      -1.701   9.765  17.308  0.00  0.00    +0.000 OA
ATOM     27  N   UNL     1      -2.290  11.877  16.706  0.00  0.00    +0.000 N 
ATOM     28  H   UNL     1      -2.368  12.871  16.875  0.00  0.00    +0.000 HD
BRANCH  27  29
ATOM     29  O   UNL     1      -2.467  11.421  15.382  0.00  0.00    +0.000 OA
ATOM     30  H   UNL     1      -2.431  12.258  14.867  0.00  0.00    +0.000 HD
ENDBRANCH  27  29
ENDBRANCH  24  25
ENDBRANCH  23  24
ENDBRANCH  22  23
ENDBRANCH  21  22
ENDBRANCH  20  21
ENDBRANCH  19  20
ENDBRANCH   6  19
TORSDOF 10
ENDMDL
MODEL 7
REMARK VINA RESULT:      -6.9      1.248      1.701
REMARK  Name = 
REMARK  10 active torsions:
REMARK  status: ('A' for Active; 'I' for Inactive)
REMARK    1  A    between atoms: N_1  and  C_2
REMARK    2  A    between atoms: C_5  and  C_6
REMARK    3  A    between atoms: C_11  and  C_13
REMARK    4  A    between atoms: C_13  and  C_14
REMARK    5  A    between atoms: C_14  and  C_15
REMARK    6  A    between atoms: C_15  and  C_16
REMARK    7  A    between atoms: C_16  and  C_17
REMARK    8  A    between atoms: C_17  and  C_18
REMARK    9  A    between atoms: C_18  and  C_19
REMARK   10  A    between atoms: N_21  and  O_22
REMARK                            x       y       z     vdW  Elec       q    Type
REMARK                         _______ _______ _______ _____ _____    ______ ____
ROOT
ATOM      1  C   UNL     1       3.963   4.616  18.807  0.00  0.00    +0.000 A 
ATOM      2  C   UNL     1       3.642   3.439  19.459  0.00  0.00    +0.000 A 
ATOM      3  S   UNL     1       2.530   3.760  20.738  0.00  0.00    +0.000 S 
ATOM      4  C   UNL     1       2.514   5.397  20.276  0.00  0.00    +0.000 A 
ATOM      5  N   UNL     1       1.667   6.203  20.980  0.00  0.00    +0.000 N 
ATOM      6  C   UNL     1       1.430   7.497  20.570  0.00  0.00    +0.000 C 
ATOM      7  O   UNL     1       1.896   8.058  19.583  0.00  0.00    +0.000 OA
ATOM      8  N   UNL     1       3.302   5.728  19.293  0.00  0.00    +0.000 NA
ATOM      9  H   UNL     1       1.167   5.789  21.751  0.00  0.00    +0.000 HD
ENDROOT
BRANCH   1  13
ATOM     10  C   UNL     1       6.766   5.160  15.602  0.00  0.00    +0.000 A 
ATOM     11  C   UNL     1       5.944   4.032  15.631  0.00  0.00    +0.000 A 
ATOM     12  C   UNL     1       5.006   3.844  16.656  0.00  0.00    +0.000 A 
ATOM     13  C   UNL     1       4.905   4.767  17.700  0.00  0.00    +0.000 A 
ATOM     14  C   UNL     1       5.768   5.874  17.694  0.00  0.00    +0.000 A 
ATOM     15  C   UNL     1       6.704   6.053  16.669  0.00  0.00    +0.000 A 
BRANCH  10  16
ATOM     16  N   UNL     1       7.789   5.268  14.652  0.00  0.00    +0.000 N 
ATOM     17  H   UNL     1       8.720   5.181  15.042  0.00  0.00    +0.000 HD
ATOM     18  H   UNL     1       7.653   4.669  13.843  0.00  0.00    +0.000 HD
ENDBRANCH  10  16
ENDBRANCH   1  13
BRANCH   6  19
ATOM     19  C   UNL     1       0.462   8.238  21.464  0.00  0.00    +0.000 C 
BRANCH  19  20
ATOM     20  C   UNL     1       1.208   9.317  22.247  0.00  0.00    +0.000 C 
BRANCH  20  21
ATOM     21  C   UNL     1       1.039  10.716  21.658  0.00  0.00    +0.000 C 
BRANCH  21  22
ATOM     22  C   UNL     1      -0.356  11.300  21.897  0.00  0.00    +0.000 C 
BRANCH  22  23
ATOM     23  C   UNL     1      -1.191  11.275  20.620  0.00  0.00    +0.000 C 
BRANCH  23  24
ATOM     24  C   UNL     1      -0.420  11.864  19.441  0.00  0.00    +0.000 C 
BRANCH  24  25
ATOM     25  C   UNL     1      -0.012  10.795  18.451  0.00  0.00    +0.000 C 
ATOM     26  O   UNL     1      -0.789  10.011  17.913  0.00  0.00    +0.000 OA
ATOM     27  N   UNL     1       1.335  10.773  18.191  0.00  0.00    +0.000 N 
ATOM     28  H   UNL     1       2.035  11.330  18.663  0.00  0.00    +0.000 HD
BRANCH  27  29
ATOM     29  O   UNL     1       1.782   9.773  17.302  0.00  0.00    +0.000 OA
ATOM     30  H   UNL     1       2.717   9.647  17.581  0.00  0.00    +0.000 HD
ENDBRANCH  27  29
ENDBRANCH  24  25
ENDBRANCH  23  24
ENDBRANCH  22  23
ENDBRANCH  21  22
ENDBRANCH  20  21
ENDBRANCH  19  20
ENDBRANCH   6  19
TORSDOF 10
ENDMDL
MODEL 8
REMARK VINA RESULT:      -6.9      1.516      2.216
REMARK  Name = 
REMARK  10 active torsions:
REMARK  status: ('A' for Active; 'I' for Inactive)
REMARK    1  A    between atoms: N_1  and  C_2
REMARK    2  A    between atoms: C_5  and  C_6
REMARK    3  A    between atoms: C_11  and  C_13
REMARK    4  A    between atoms: C_13  and  C_14
REMARK    5  A    between atoms: C_14  and  C_15
REMARK    6  A    between atoms: C_15  and  C_16
REMARK    7  A    between atoms: C_16  and  C_17
REMARK    8  A    between atoms: C_17  and  C_18
REMARK    9  A    between atoms: C_18  and  C_19
REMARK   10  A    between atoms: N_21  and  O_22
REMARK                            x       y       z     vdW  Elec       q    Type
REMARK                         _______ _______ _______ _____ _____    ______ ____
ROOT
ATOM      1  C   UNL     1       3.713   4.974  18.740  0.00  0.00    +0.000 A 
ATOM      2  C   UNL     1       3.304   3.850  19.436  0.00  0.00    +0.000 A 
ATOM      3  S   UNL     1       2.230   4.302  20.708  0.00  0.00    +0.000 S 
ATOM      4  C   UNL     1       2.341   5.919  20.188  0.00  0.00    +0.000 A 
ATOM      5  N   UNL     1       1.566   6.814  20.867  0.00  0.00    +0.000 N 
ATOM      6  C   UNL     1       1.428   8.106  20.412  0.00  0.00    +0.000 C 
ATOM      7  O   UNL     1       1.930   8.594  19.404  0.00  0.00    +0.000 OA
ATOM      8  N   UNL     1       3.145   6.152  19.190  0.00  0.00    +0.000 NA
ATOM      9  H   UNL     1       1.041   6.467  21.654  0.00  0.00    +0.000 HD
ENDROOT
BRANCH   1  13
ATOM     10  C   UNL     1       6.530   5.176  15.509  0.00  0.00    +0.000 A 
ATOM     11  C   UNL     1       5.557   4.176  15.530  0.00  0.00    +0.000 A 
ATOM     12  C   UNL     1       4.612   4.103  16.563  0.00  0.00    +0.000 A 
ATOM     13  C   UNL     1       4.654   5.011  17.624  0.00  0.00    +0.000 A 
ATOM     14  C   UNL     1       5.667   5.983  17.626  0.00  0.00    +0.000 A 
ATOM     15  C   UNL     1       6.607   6.048  16.594  0.00  0.00    +0.000 A 
BRANCH  10  16
ATOM     16  N   UNL     1       7.549   5.155  14.549  0.00  0.00    +0.000 N 
ATOM     17  H   UNL     1       8.161   4.350  14.618  0.00  0.00    +0.000 HD
ATOM     18  H   UNL     1       7.213   5.303  13.602  0.00  0.00    +0.000 HD
ENDBRANCH  10  16
ENDBRANCH   1  13
BRANCH   6  19
ATOM     19  C   UNL     1       0.529   8.953  21.284  0.00  0.00    +0.000 C 
BRANCH  19  20
ATOM     20  C   UNL     1       0.279  10.301  20.610  0.00  0.00    +0.000 C 
BRANCH  20  21
ATOM     21  C   UNL     1      -0.998  10.329  19.772  0.00  0.00    +0.000 C 
BRANCH  21  22
ATOM     22  C   UNL     1      -0.774  10.882  18.362  0.00  0.00    +0.000 C 
BRANCH  22  23
ATOM     23  C   UNL     1      -1.583  10.103  17.329  0.00  0.00    +0.000 C 
BRANCH  23  24
ATOM     24  C   UNL     1      -2.960   9.726  17.873  0.00  0.00    +0.000 C 
BRANCH  24  25
ATOM     25  C   UNL     1      -3.923  10.891  17.808  0.00  0.00    +0.000 C 
ATOM     26  O   UNL     1      -4.576  11.308  18.761  0.00  0.00    +0.000 OA
ATOM     27  N   UNL     1      -4.007  11.466  16.566  0.00  0.00    +0.000 N 
ATOM     28  H   UNL     1      -3.563  11.119  15.725  0.00  0.00    +0.000 HD
BRANCH  27  29
ATOM     29  O   UNL     1      -4.916  12.537  16.434  0.00  0.00    +0.000 OA
ATOM     30  H   UNL     1      -4.316  13.309  16.332  0.00  0.00    +0.000 HD
ENDBRANCH  27  29
ENDBRANCH  24  25
ENDBRANCH  23  24
ENDBRANCH  22  23
ENDBRANCH  21  22
ENDBRANCH  20  21
ENDBRANCH  19  20
ENDBRANCH   6  19
TORSDOF 10
ENDMDL
MODEL 9
REMARK VINA RESULT:      -6.9      1.423      1.806
REMARK  Name = 
REMARK  10 active torsions:
REMARK  status: ('A' for Active; 'I' for Inactive)
REMARK    1  A    between atoms: N_1  and  C_2
REMARK    2  A    between atoms: C_5  and  C_6
REMARK    3  A    between atoms: C_11  and  C_13
REMARK    4  A    between atoms: C_13  and  C_14
REMARK    5  A    between atoms: C_14  and  C_15
REMARK    6  A    between atoms: C_15  and  C_16
REMARK    7  A    between atoms: C_16  and  C_17
REMARK    8  A    between atoms: C_17  and  C_18
REMARK    9  A    between atoms: C_18  and  C_19
REMARK   10  A    between atoms: N_21  and  O_22
REMARK                            x       y       z     vdW  Elec       q    Type
REMARK                         _______ _______ _______ _____ _____    ______ ____
ROOT
ATOM      1  C   UNL     1       3.875   4.712  18.628  0.00  0.00    +0.000 A 
ATOM      2  C   UNL     1       3.417   3.525  19.173  0.00  0.00    +0.000 A 
ATOM      3  S   UNL     1       2.311   3.853  20.455  0.00  0.00    +0.000 S 
ATOM      4  C   UNL     1       2.476   5.516  20.134  0.00  0.00    +0.000 A 
ATOM      5  N   UNL     1       1.700   6.346  20.890  0.00  0.00    +0.000 N 
ATOM      6  C   UNL     1       1.607   7.686  20.587  0.00  0.00    +0.000 C 
ATOM      7  O   UNL     1       2.154   8.275  19.660  0.00  0.00    +0.000 OA
ATOM      8  N   UNL     1       3.319   5.843  19.196  0.00  0.00    +0.000 NA
ATOM      9  H   UNL     1       1.140   5.923  21.614  0.00  0.00    +0.000 HD
ENDROOT
BRANCH   1  13
ATOM     10  C   UNL     1       6.694   5.053  15.410  0.00  0.00    +0.000 A 
ATOM     11  C   UNL     1       6.858   5.812  16.570  0.00  0.00    +0.000 A 
ATOM     12  C   UNL     1       5.963   5.702  17.643  0.00  0.00    +0.000 A 
ATOM     13  C   UNL     1       4.854   4.855  17.554  0.00  0.00    +0.000 A 
ATOM     14  C   UNL     1       4.665   4.132  16.366  0.00  0.00    +0.000 A 
ATOM     15  C   UNL     1       5.561   4.250  15.299  0.00  0.00    +0.000 A 
BRANCH  10  16
ATOM     16  N   UNL     1       7.513   5.273  14.297  0.00  0.00    +0.000 N 
ATOM     17  H   UNL     1       7.799   6.239  14.183  0.00  0.00    +0.000 HD
ATOM     18  H   UNL     1       8.298   4.630  14.240  0.00  0.00    +0.000 HD
ENDBRANCH  10  16
ENDBRANCH   1  13
BRANCH   6  19
ATOM     19  C   UNL     1       0.698   8.448  21.525  0.00  0.00    +0.000 C 
BRANCH  19  20
ATOM     20  C   UNL     1      -0.319   9.251  20.716  0.00  0.00    +0.000 C 
BRANCH  20  21
ATOM     21  C   UNL     1       0.103  10.701  20.484  0.00  0.00    +0.000 C 
BRANCH  21  22
ATOM     22  C   UNL     1      -0.905  11.488  19.642  0.00  0.00    +0.000 C 
BRANCH  22  23
ATOM     23  C   UNL     1      -1.252  10.742  18.357  0.00  0.00    +0.000 C 
BRANCH  23  24
ATOM     24  C   UNL     1      -2.119  11.597  17.435  0.00  0.00    +0.000 C 
BRANCH  24  25
ATOM     25  C   UNL     1      -3.548  11.102  17.396  0.00  0.00    +0.000 C 
ATOM     26  O   UNL     1      -3.901   9.970  17.714  0.00  0.00    +0.000 OA
ATOM     27  N   UNL     1      -4.445  12.048  16.969  0.00  0.00    +0.000 N 
ATOM     28  H   UNL     1      -4.210  12.965  16.613  0.00  0.00    +0.000 HD
BRANCH  27  29
ATOM     29  O   UNL     1      -5.791  11.634  16.877  0.00  0.00    +0.000 OA
ATOM     30  H   UNL     1      -5.733  10.681  17.117  0.00  0.00    +0.000 HD
ENDBRANCH  27  29
ENDBRANCH  24  25
ENDBRANCH  23  24
ENDBRANCH  22  23
ENDBRANCH  21  22
ENDBRANCH  20  21
ENDBRANCH  19  20
ENDBRANCH   6  19
TORSDOF 10
ENDMDL
