MODEL 1
REMARK VINA RESULT:      -7.3      0.000      0.000
REMARK  Name = 
REMARK  6 active torsions:
REMARK  status: ('A' for Active; 'I' for Inactive)
REMARK    1  A    between atoms: C_1  and  C_2
REMARK    2  A    between atoms: C_2  and  O_3
REMARK    3  A    between atoms: O_3  and  C_4
REMARK    4  A    between atoms: C_12  and  N_13
REMARK    5  A    between atoms: C_14  and  C_15
REMARK    6  A    between atoms: C_17  and  C_18
REMARK                            x       y       z     vdW  Elec       q    Type
REMARK                         _______ _______ _______ _____ _____    ______ ____
ROOT
ATOM      1  C   UNL     1       1.459   2.998  18.903  0.00  0.00    +0.000 C 
ATOM      2  O   UNL     1       1.343   1.780  18.888  0.00  0.00    +0.000 OA
ATOM      3  N   UNL     1       2.192   3.714  17.979  0.00  0.00    +0.000 N 
ATOM      4  C   UNL     1       2.841   3.020  16.862  0.00  0.00    +0.000 C 
ATOM      5  C   UNL     1       4.348   3.319  16.818  0.00  0.00    +0.000 C 
ATOM      6  C   UNL     1       4.617   4.789  17.028  0.00  0.00    +0.000 A 
ATOM      7  C   UNL     1       3.646   5.603  17.581  0.00  0.00    +0.000 A 
ATOM      8  S   UNL     1       4.206   7.183  17.827  0.00  0.00    +0.000 S 
ATOM      9  C   UNL     1       5.719   6.828  17.121  0.00  0.00    +0.000 A 
ATOM     10  C   UNL     1       5.865   5.492  16.770  0.00  0.00    +0.000 A 
ATOM     11  C   UNL     1       2.262   5.177  17.978  0.00  0.00    +0.000 C 
ENDROOT
BRANCH   9  12
ATOM     12  N   UNL     1       6.539   7.944  17.121  0.00  0.00    +0.000 N 
ATOM     13  C   UNL     1       7.710   7.962  17.856  0.00  0.00    +0.000 C 
ATOM     14  C   UNL     1       8.572   9.169  17.575  0.00  0.00    +0.000 C 
ATOM     15  O   UNL     1       8.071   7.090  18.644  0.00  0.00    +0.000 OA
ATOM     16  H   UNL     1       6.597   8.413  16.225  0.00  0.00    +0.000 HD
ENDBRANCH   9  12
BRANCH  10  17
ATOM     17  C   UNL     1       7.081   4.792  16.347  0.00  0.00    +0.000 C 
ATOM     18  N   UNL     1       7.894   4.289  17.314  0.00  0.00    +0.000 N 
ATOM     19  O   UNL     1       7.412   4.686  15.170  0.00  0.00    +0.000 OA
ATOM     20  H   UNL     1       7.837   4.675  18.252  0.00  0.00    +0.000 HD
ATOM     21  H   UNL     1       8.802   3.975  17.000  0.00  0.00    +0.000 HD
ENDBRANCH  10  17
BRANCH   1  22
ATOM     22  O   UNL     1       0.874   3.806  19.830  0.00  0.00    +0.000 OA
BRANCH  22  24
ATOM     23  C   UNL     1       1.622   2.687  21.837  0.00  0.00    +0.000 C 
ATOM     24  C   UNL     1       1.600   3.987  21.057  0.00  0.00    +0.000 C 
ENDBRANCH  22  24
ENDBRANCH   1  22
TORSDOF 4
ENDMDL
MODEL 2
REMARK VINA RESULT:      -6.4      3.019      4.215
REMARK  Name = 
REMARK  6 active torsions:
REMARK  status: ('A' for Active; 'I' for Inactive)
REMARK    1  A    between atoms: C_1  and  C_2
REMARK    2  A    between atoms: C_2  and  O_3
REMARK    3  A    between atoms: O_3  and  C_4
REMARK    4  A    between atoms: C_12  and  N_13
REMARK    5  A    between atoms: C_14  and  C_15
REMARK    6  A    between atoms: C_17  and  C_18
REMARK                            x       y       z     vdW  Elec       q    Type
REMARK                         _______ _______ _______ _____ _____    ______ ____
ROOT
ATOM      1  C   UNL     1       2.010   7.657  19.858  0.00  0.00    +0.000 C 
ATOM      2  O   UNL     1       1.823   7.589  21.066  0.00  0.00    +0.000 OA
ATOM      3  N   UNL     1       2.718   6.721  19.133  0.00  0.00    +0.000 N 
ATOM      4  C   UNL     1       3.247   5.526  19.797  0.00  0.00    +0.000 C 
ATOM      5  C   UNL     1       4.762   5.388  19.578  0.00  0.00    +0.000 C 
ATOM      6  C   UNL     1       5.129   5.654  18.139  0.00  0.00    +0.000 A 
ATOM      7  C   UNL     1       4.247   6.317  17.306  0.00  0.00    +0.000 A 
ATOM      8  S   UNL     1       4.913   6.603  15.774  0.00  0.00    +0.000 S 
ATOM      9  C   UNL     1       6.351   5.773  16.171  0.00  0.00    +0.000 A 
ATOM     10  C   UNL     1       6.395   5.343  17.491  0.00  0.00    +0.000 A 
ATOM     11  C   UNL     1       2.872   6.791  17.677  0.00  0.00    +0.000 C 
ENDROOT
BRANCH   9  12
ATOM     12  N   UNL     1       7.232   5.770  15.102  0.00  0.00    +0.000 N 
ATOM     13  C   UNL     1       7.123   4.825  14.098  0.00  0.00    +0.000 C 
ATOM     14  C   UNL     1       8.028   5.099  12.922  0.00  0.00    +0.000 C 
ATOM     15  O   UNL     1       6.359   3.862  14.105  0.00  0.00    +0.000 OA
ATOM     16  H   UNL     1       7.496   6.695  14.783  0.00  0.00    +0.000 HD
ENDBRANCH   9  12
BRANCH  10  17
ATOM     17  C   UNL     1       7.536   4.798  18.231  0.00  0.00    +0.000 C 
ATOM     18  N   UNL     1       7.721   5.214  19.511  0.00  0.00    +0.000 N 
ATOM     19  O   UNL     1       8.347   4.025  17.728  0.00  0.00    +0.000 OA
ATOM     20  H   UNL     1       7.305   6.093  19.806  0.00  0.00    +0.000 HD
ATOM     21  H   UNL     1       8.606   4.962  19.929  0.00  0.00    +0.000 HD
ENDBRANCH  10  17
BRANCH   1  22
ATOM     22  O   UNL     1       1.538   8.665  19.072  0.00  0.00    +0.000 OA
BRANCH  22  24
ATOM     23  C   UNL     1       1.115  11.035  19.275  0.00  0.00    +0.000 C 
ATOM     24  C   UNL     1       0.716   9.645  19.728  0.00  0.00    +0.000 C 
ENDBRANCH  22  24
ENDBRANCH   1  22
TORSDOF 4
ENDMDL
MODEL 3
REMARK VINA RESULT:      -6.0      5.364      7.300
REMARK  Name = 
REMARK  6 active torsions:
REMARK  status: ('A' for Active; 'I' for Inactive)
REMARK    1  A    between atoms: C_1  and  C_2
REMARK    2  A    between atoms: C_2  and  O_3
REMARK    3  A    between atoms: O_3  and  C_4
REMARK    4  A    between atoms: C_12  and  N_13
REMARK    5  A    between atoms: C_14  and  C_15
REMARK    6  A    between atoms: C_17  and  C_18
REMARK                            x       y       z     vdW  Elec       q    Type
REMARK                         _______ _______ _______ _____ _____    ______ ____
ROOT
ATOM      1  C   UNL     1      -0.844  11.456  18.713  0.00  0.00    +0.000 C 
ATOM      2  O   UNL     1      -0.966  12.046  17.648  0.00  0.00    +0.000 OA
ATOM      3  N   UNL     1       0.275  10.732  19.070  0.00  0.00    +0.000 N 
ATOM      4  C   UNL     1       1.435  10.687  18.175  0.00  0.00    +0.000 C 
ATOM      5  C   UNL     1       1.823   9.240  17.834  0.00  0.00    +0.000 C 
ATOM      6  C   UNL     1       1.810   8.369  19.066  0.00  0.00    +0.000 A 
ATOM      7  C   UNL     1       1.141   8.782  20.204  0.00  0.00    +0.000 A 
ATOM      8  S   UNL     1       1.164   7.600  21.419  0.00  0.00    +0.000 S 
ATOM      9  C   UNL     1       2.137   6.559  20.479  0.00  0.00    +0.000 A 
ATOM     10  C   UNL     1       2.388   7.040  19.201  0.00  0.00    +0.000 A 
ATOM     11  C   UNL     1       0.424  10.089  20.379  0.00  0.00    +0.000 C 
ENDROOT
BRANCH   9  12
ATOM     12  N   UNL     1       2.412   5.387  21.165  0.00  0.00    +0.000 N 
ATOM     13  C   UNL     1       1.689   4.235  20.915  0.00  0.00    +0.000 C 
ATOM     14  C   UNL     1       2.258   3.015  21.597  0.00  0.00    +0.000 C 
ATOM     15  O   UNL     1       0.698   4.158  20.192  0.00  0.00    +0.000 OA
ATOM     16  H   UNL     1       3.398   5.235  21.343  0.00  0.00    +0.000 HD
ENDBRANCH   9  12
BRANCH  10  17
ATOM     17  C   UNL     1       2.992   6.334  18.067  0.00  0.00    +0.000 C 
ATOM     18  N   UNL     1       2.418   5.170  17.665  0.00  0.00    +0.000 N 
ATOM     19  O   UNL     1       4.011   6.727  17.506  0.00  0.00    +0.000 OA
ATOM     20  H   UNL     1       1.833   4.660  18.319  0.00  0.00    +0.000 HD
ATOM     21  H   UNL     1       2.955   4.623  17.006  0.00  0.00    +0.000 HD
ENDBRANCH  10  17
BRANCH   1  22
ATOM     22  O   UNL     1      -1.796  11.442  19.688  0.00  0.00    +0.000 OA
BRANCH  22  24
ATOM     23  C   UNL     1      -3.728  12.761  20.291  0.00  0.00    +0.000 C 
ATOM     24  C   UNL     1      -2.217  12.726  20.176  0.00  0.00    +0.000 C 
ENDBRANCH  22  24
ENDBRANCH   1  22
TORSDOF 4
ENDMDL
MODEL 4
REMARK VINA RESULT:      -6.0      3.410      4.531
REMARK  Name = 
REMARK  6 active torsions:
REMARK  status: ('A' for Active; 'I' for Inactive)
REMARK    1  A    between atoms: C_1  and  C_2
REMARK    2  A    between atoms: C_2  and  O_3
REMARK    3  A    between atoms: O_3  and  C_4
REMARK    4  A    between atoms: C_12  and  N_13
REMARK    5  A    between atoms: C_14  and  C_15
REMARK    6  A    between atoms: C_17  and  C_18
REMARK                            x       y       z     vdW  Elec       q    Type
REMARK                         _______ _______ _______ _____ _____    ______ ____
ROOT
ATOM      1  C   UNL     1       1.490   8.389  20.450  0.00  0.00    +0.000 C 
ATOM      2  O   UNL     1       1.163   8.163  21.607  0.00  0.00    +0.000 OA
ATOM      3  N   UNL     1       1.977   7.431  19.584  0.00  0.00    +0.000 N 
ATOM      4  C   UNL     1       2.075   6.034  20.017  0.00  0.00    +0.000 C 
ATOM      5  C   UNL     1       3.503   5.494  19.849  0.00  0.00    +0.000 C 
ATOM      6  C   UNL     1       4.081   5.893  18.513  0.00  0.00    +0.000 A 
ATOM      7  C   UNL     1       3.516   6.927  17.790  0.00  0.00    +0.000 A 
ATOM      8  S   UNL     1       4.394   7.273  16.383  0.00  0.00    +0.000 S 
ATOM      9  C   UNL     1       5.489   5.996  16.672  0.00  0.00    +0.000 A 
ATOM     10  C   UNL     1       5.270   5.342  17.878  0.00  0.00    +0.000 A 
ATOM     11  C   UNL     1       2.298   7.713  18.183  0.00  0.00    +0.000 C 
ENDROOT
BRANCH   9  12
ATOM     12  N   UNL     1       6.442   5.924  15.670  0.00  0.00    +0.000 N 
ATOM     13  C   UNL     1       6.548   4.798  14.874  0.00  0.00    +0.000 C 
ATOM     14  C   UNL     1       7.493   4.977  13.711  0.00  0.00    +0.000 C 
ATOM     15  O   UNL     1       5.931   3.748  15.039  0.00  0.00    +0.000 OA
ATOM     16  H   UNL     1       6.595   6.800  15.183  0.00  0.00    +0.000 HD
ENDBRANCH   9  12
BRANCH  10  17
ATOM     17  C   UNL     1       6.126   4.358  18.547  0.00  0.00    +0.000 C 
ATOM     18  N   UNL     1       5.524   3.311  19.169  0.00  0.00    +0.000 N 
ATOM     19  O   UNL     1       7.347   4.469  18.604  0.00  0.00    +0.000 OA
ATOM     20  H   UNL     1       4.550   3.397  19.443  0.00  0.00    +0.000 HD
ATOM     21  H   UNL     1       6.121   2.755  19.765  0.00  0.00    +0.000 HD
ENDBRANCH  10  17
BRANCH   1  22
ATOM     22  O   UNL     1       1.407   9.615  19.862  0.00  0.00    +0.000 OA
BRANCH  22  24
ATOM     23  C   UNL     1       0.820  11.940  20.161  0.00  0.00    +0.000 C 
ATOM     24  C   UNL     1       0.405  10.500  20.390  0.00  0.00    +0.000 C 
ENDBRANCH  22  24
ENDBRANCH   1  22
TORSDOF 4
ENDMDL
MODEL 5
REMARK VINA RESULT:      -5.9      2.927      6.192
REMARK  Name = 
REMARK  6 active torsions:
REMARK  status: ('A' for Active; 'I' for Inactive)
REMARK    1  A    between atoms: C_1  and  C_2
REMARK    2  A    between atoms: C_2  and  O_3
REMARK    3  A    between atoms: O_3  and  C_4
REMARK    4  A    between atoms: C_12  and  N_13
REMARK    5  A    between atoms: C_14  and  C_15
REMARK    6  A    between atoms: C_17  and  C_18
REMARK                            x       y       z     vdW  Elec       q    Type
REMARK                         _______ _______ _______ _____ _____    ______ ____
ROOT
ATOM      1  C   UNL     1       7.401   5.044  16.660  0.00  0.00    +0.000 C 
ATOM      2  O   UNL     1       7.970   4.011  16.990  0.00  0.00    +0.000 OA
ATOM      3  N   UNL     1       6.600   5.787  17.503  0.00  0.00    +0.000 N 
ATOM      4  C   UNL     1       6.437   5.383  18.902  0.00  0.00    +0.000 C 
ATOM      5  C   UNL     1       4.954   5.204  19.264  0.00  0.00    +0.000 C 
ATOM      6  C   UNL     1       4.122   6.341  18.723  0.00  0.00    +0.000 A 
ATOM      7  C   UNL     1       4.619   7.153  17.720  0.00  0.00    +0.000 A 
ATOM      8  S   UNL     1       3.474   8.286  17.194  0.00  0.00    +0.000 S 
ATOM      9  C   UNL     1       2.331   7.768  18.351  0.00  0.00    +0.000 A 
ATOM     10  C   UNL     1       2.754   6.674  19.096  0.00  0.00    +0.000 A 
ATOM     11  C   UNL     1       5.984   7.055  17.104  0.00  0.00    +0.000 C 
ENDROOT
BRANCH   9  12
ATOM     12  N   UNL     1       1.161   8.502  18.254  0.00  0.00    +0.000 N 
ATOM     13  C   UNL     1       0.759   9.333  19.284  0.00  0.00    +0.000 C 
ATOM     14  C   UNL     1      -0.419  10.204  18.923  0.00  0.00    +0.000 C 
ATOM     15  O   UNL     1       1.296   9.412  20.387  0.00  0.00    +0.000 OA
ATOM     16  H   UNL     1       0.977   8.864  17.325  0.00  0.00    +0.000 HD
ENDBRANCH   9  12
BRANCH  10  17
ATOM     17  C   UNL     1       1.971   5.841  20.012  0.00  0.00    +0.000 C 
ATOM     18  N   UNL     1       1.651   6.361  21.226  0.00  0.00    +0.000 N 
ATOM     19  O   UNL     1       1.637   4.690  19.745  0.00  0.00    +0.000 OA
ATOM     20  H   UNL     1       2.209   7.125  21.596  0.00  0.00    +0.000 HD
ATOM     21  H   UNL     1       1.270   5.705  21.895  0.00  0.00    +0.000 HD
ENDBRANCH  10  17
BRANCH   1  22
ATOM     22  O   UNL     1       7.492   5.598  15.419  0.00  0.00    +0.000 OA
BRANCH  22  24
ATOM     23  C   UNL     1       5.646   4.427  14.389  0.00  0.00    +0.000 C 
ATOM     24  C   UNL     1       7.126   4.747  14.320  0.00  0.00    +0.000 C 
ENDBRANCH  22  24
ENDBRANCH   1  22
TORSDOF 4
ENDMDL
MODEL 6
REMARK VINA RESULT:      -5.9      9.198     11.441
REMARK  Name = 
REMARK  6 active torsions:
REMARK  status: ('A' for Active; 'I' for Inactive)
REMARK    1  A    between atoms: C_1  and  C_2
REMARK    2  A    between atoms: C_2  and  O_3
REMARK    3  A    between atoms: O_3  and  C_4
REMARK    4  A    between atoms: C_12  and  N_13
REMARK    5  A    between atoms: C_14  and  C_15
REMARK    6  A    between atoms: C_17  and  C_18
REMARK                            x       y       z     vdW  Elec       q    Type
REMARK                         _______ _______ _______ _____ _____    ______ ____
ROOT
ATOM      1  C   UNL     1      -2.253  11.960  23.076  0.00  0.00    +0.000 C 
ATOM      2  O   UNL     1      -2.954  11.923  24.078  0.00  0.00    +0.000 OA
ATOM      3  N   UNL     1      -2.672  12.457  21.859  0.00  0.00    +0.000 N 
ATOM      4  C   UNL     1      -4.011  13.039  21.727  0.00  0.00    +0.000 C 
ATOM      5  C   UNL     1      -4.810  12.357  20.606  0.00  0.00    +0.000 C 
ATOM      6  C   UNL     1      -3.963  12.171  19.371  0.00  0.00    +0.000 A 
ATOM      7  C   UNL     1      -2.585  12.246  19.453  0.00  0.00    +0.000 A 
ATOM      8  S   UNL     1      -1.839  11.895  17.973  0.00  0.00    +0.000 S 
ATOM      9  C   UNL     1      -3.342  11.723  17.181  0.00  0.00    +0.000 A 
ATOM     10  C   UNL     1      -4.432  11.837  18.034  0.00  0.00    +0.000 A 
ATOM     11  C   UNL     1      -1.792  12.552  20.691  0.00  0.00    +0.000 C 
ENDROOT
BRANCH   9  12
ATOM     12  N   UNL     1      -3.164  11.415  15.842  0.00  0.00    +0.000 N 
ATOM     13  C   UNL     1      -3.074  10.099  15.425  0.00  0.00    +0.000 C 
ATOM     14  C   UNL     1      -3.089   9.948  13.924  0.00  0.00    +0.000 C 
ATOM     15  O   UNL     1      -3.020   9.119  16.165  0.00  0.00    +0.000 OA
ATOM     16  H   UNL     1      -3.666  12.025  15.208  0.00  0.00    +0.000 HD
ENDBRANCH   9  12
BRANCH  10  17
ATOM     17  C   UNL     1      -5.839  11.537  17.754  0.00  0.00    +0.000 C 
ATOM     18  N   UNL     1      -6.526  12.399  16.958  0.00  0.00    +0.000 N 
ATOM     19  O   UNL     1      -6.425  10.576  18.243  0.00  0.00    +0.000 OA
ATOM     20  H   UNL     1      -6.185  13.350  16.856  0.00  0.00    +0.000 HD
ATOM     21  H   UNL     1      -7.527  12.264  16.930  0.00  0.00    +0.000 HD
ENDBRANCH  10  17
BRANCH   1  22
ATOM     22  O   UNL     1      -0.964  11.520  23.033  0.00  0.00    +0.000 OA
BRANCH  22  24
ATOM     23  C   UNL     1       0.159   9.573  22.147  0.00  0.00    +0.000 C 
ATOM     24  C   UNL     1      -0.774  10.107  23.216  0.00  0.00    +0.000 C 
ENDBRANCH  22  24
ENDBRANCH   1  22
TORSDOF 4
ENDMDL
MODEL 7
REMARK VINA RESULT:      -5.8      4.626      6.519
REMARK  Name = 
REMARK  6 active torsions:
REMARK  status: ('A' for Active; 'I' for Inactive)
REMARK    1  A    between atoms: C_1  and  C_2
REMARK    2  A    between atoms: C_2  and  O_3
REMARK    3  A    between atoms: O_3  and  C_4
REMARK    4  A    between atoms: C_12  and  N_13
REMARK    5  A    between atoms: C_14  and  C_15
REMARK    6  A    between atoms: C_17  and  C_18
REMARK                            x       y       z     vdW  Elec       q    Type
REMARK                         _______ _______ _______ _____ _____    ______ ____
ROOT
ATOM      1  C   UNL     1       3.539   4.280  17.970  0.00  0.00    +0.000 C 
ATOM      2  O   UNL     1       3.552   3.188  18.521  0.00  0.00    +0.000 OA
ATOM      3  N   UNL     1       3.451   5.482  18.642  0.00  0.00    +0.000 N 
ATOM      4  C   UNL     1       3.427   5.502  20.107  0.00  0.00    +0.000 C 
ATOM      5  C   UNL     1       2.191   6.248  20.636  0.00  0.00    +0.000 C 
ATOM      6  C   UNL     1       1.967   7.533  19.878  0.00  0.00    +0.000 A 
ATOM      7  C   UNL     1       2.567   7.731  18.648  0.00  0.00    +0.000 A 
ATOM      8  S   UNL     1       2.085   9.190  17.933  0.00  0.00    +0.000 S 
ATOM      9  C   UNL     1       1.137   9.617  19.287  0.00  0.00    +0.000 A 
ATOM     10  C   UNL     1       1.093   8.632  20.264  0.00  0.00    +0.000 A 
ATOM     11  C   UNL     1       3.505   6.780  17.963  0.00  0.00    +0.000 C 
ENDROOT
BRANCH   9  12
ATOM     12  N   UNL     1       0.526  10.846  19.095  0.00  0.00    +0.000 N 
ATOM     13  C   UNL     1       0.756  11.894  19.967  0.00  0.00    +0.000 C 
ATOM     14  C   UNL     1       0.176  13.203  19.491  0.00  0.00    +0.000 C 
ATOM     15  O   UNL     1       1.390  11.822  21.018  0.00  0.00    +0.000 OA
ATOM     16  H   UNL     1       0.442  11.117  18.122  0.00  0.00    +0.000 HD
ENDBRANCH   9  12
BRANCH  10  17
ATOM     17  C   UNL     1       0.225   8.560  21.443  0.00  0.00    +0.000 C 
ATOM     18  N   UNL     1       0.602   9.249  22.553  0.00  0.00    +0.000 N 
ATOM     19  O   UNL     1      -0.792   7.873  21.480  0.00  0.00    +0.000 OA
ATOM     20  H   UNL     1       1.579   9.503  22.663  0.00  0.00    +0.000 HD
ATOM     21  H   UNL     1       0.084   9.038  23.394  0.00  0.00    +0.000 HD
ENDBRANCH  10  17
BRANCH   1  22
ATOM     22  O   UNL     1       3.617   4.452  16.621  0.00  0.00    +0.000 OA
BRANCH  22  24
ATOM     23  C   UNL     1       5.480   5.245  15.301  0.00  0.00    +0.000 C 
ATOM     24  C   UNL     1       4.854   4.057  16.005  0.00  0.00    +0.000 C 
ENDBRANCH  22  24
ENDBRANCH   1  22
TORSDOF 4
ENDMDL
MODEL 8
REMARK VINA RESULT:      -5.8      9.768     11.242
REMARK  Name = 
REMARK  6 active torsions:
REMARK  status: ('A' for Active; 'I' for Inactive)
REMARK    1  A    between atoms: C_1  and  C_2
REMARK    2  A    between atoms: C_2  and  O_3
REMARK    3  A    between atoms: O_3  and  C_4
REMARK    4  A    between atoms: C_12  and  N_13
REMARK    5  A    between atoms: C_14  and  C_15
REMARK    6  A    between atoms: C_17  and  C_18
REMARK                            x       y       z     vdW  Elec       q    Type
REMARK                         _______ _______ _______ _____ _____    ______ ____
ROOT
ATOM      1  C   UNL     1      -6.772  12.145  21.663  0.00  0.00    +0.000 C 
ATOM      2  O   UNL     1      -7.916  11.779  21.427  0.00  0.00    +0.000 OA
ATOM      3  N   UNL     1      -5.870  12.531  20.693  0.00  0.00    +0.000 N 
ATOM      4  C   UNL     1      -6.280  12.573  19.286  0.00  0.00    +0.000 C 
ATOM      5  C   UNL     1      -5.354  11.719  18.406  0.00  0.00    +0.000 C 
ATOM      6  C   UNL     1      -3.905  11.950  18.758  0.00  0.00    +0.000 A 
ATOM      7  C   UNL     1      -3.565  12.532  19.966  0.00  0.00    +0.000 A 
ATOM      8  S   UNL     1      -1.887  12.589  20.194  0.00  0.00    +0.000 S 
ATOM      9  C   UNL     1      -1.588  11.919  18.653  0.00  0.00    +0.000 A 
ATOM     10  C   UNL     1      -2.744  11.556  17.974  0.00  0.00    +0.000 A 
ATOM     11  C   UNL     1      -4.527  13.029  21.006  0.00  0.00    +0.000 C 
ENDROOT
BRANCH   9  12
ATOM     12  N   UNL     1      -0.227  11.793  18.424  0.00  0.00    +0.000 N 
ATOM     13  C   UNL     1       0.462  10.674  18.856  0.00  0.00    +0.000 C 
ATOM     14  C   UNL     1       1.880  10.613  18.343  0.00  0.00    +0.000 C 
ATOM     15  O   UNL     1      -0.001   9.779  19.560  0.00  0.00    +0.000 OA
ATOM     16  H   UNL     1       0.076  12.154  17.527  0.00  0.00    +0.000 HD
ENDBRANCH   9  12
BRANCH  10  17
ATOM     17  C   UNL     1      -2.865  10.769  16.743  0.00  0.00    +0.000 C 
ATOM     18  N   UNL     1      -3.301  11.405  15.623  0.00  0.00    +0.000 N 
ATOM     19  O   UNL     1      -2.635   9.564  16.698  0.00  0.00    +0.000 OA
ATOM     20  H   UNL     1      -3.829  12.267  15.723  0.00  0.00    +0.000 HD
ATOM     21  H   UNL     1      -3.542  10.805  14.847  0.00  0.00    +0.000 HD
ENDBRANCH  10  17
BRANCH   1  22
ATOM     22  O   UNL     1      -6.243  12.227  22.915  0.00  0.00    +0.000 OA
BRANCH  22  24
ATOM     23  C   UNL     1      -6.889  14.327  23.920  0.00  0.00    +0.000 C 
ATOM     24  C   UNL     1      -7.084  12.824  23.917  0.00  0.00    +0.000 C 
ENDBRANCH  22  24
ENDBRANCH   1  22
TORSDOF 4
ENDMDL
MODEL 9
REMARK VINA RESULT:      -5.8      4.429      6.705
REMARK  Name = 
REMARK  6 active torsions:
REMARK  status: ('A' for Active; 'I' for Inactive)
REMARK    1  A    between atoms: C_1  and  C_2
REMARK    2  A    between atoms: C_2  and  O_3
REMARK    3  A    between atoms: O_3  and  C_4
REMARK    4  A    between atoms: C_12  and  N_13
REMARK    5  A    between atoms: C_14  and  C_15
REMARK    6  A    between atoms: C_17  and  C_18
REMARK                            x       y       z     vdW  Elec       q    Type
REMARK                         _______ _______ _______ _____ _____    ______ ____
ROOT
ATOM      1  C   UNL     1       3.537   4.248  17.969  0.00  0.00    +0.000 C 
ATOM      2  O   UNL     1       3.549   3.164  18.538  0.00  0.00    +0.000 OA
ATOM      3  N   UNL     1       3.457   5.461  18.621  0.00  0.00    +0.000 N 
ATOM      4  C   UNL     1       3.441   5.505  20.087  0.00  0.00    +0.000 C 
ATOM      5  C   UNL     1       2.212   6.263  20.610  0.00  0.00    +0.000 C 
ATOM      6  C   UNL     1       1.987   7.537  19.833  0.00  0.00    +0.000 A 
ATOM      7  C   UNL     1       2.581   7.713  18.596  0.00  0.00    +0.000 A 
ATOM      8  S   UNL     1       2.099   9.161  17.860  0.00  0.00    +0.000 S 
ATOM      9  C   UNL     1       1.161   9.614  19.212  0.00  0.00    +0.000 A 
ATOM     10  C   UNL     1       1.119   8.645  20.206  0.00  0.00    +0.000 A 
ATOM     11  C   UNL     1       3.511   6.747  17.921  0.00  0.00    +0.000 C 
ENDROOT
BRANCH   9  12
ATOM     12  N   UNL     1       0.553  10.841  19.004  0.00  0.00    +0.000 N 
ATOM     13  C   UNL     1      -0.753  10.915  18.554  0.00  0.00    +0.000 C 
ATOM     14  C   UNL     1      -1.313  12.316  18.581  0.00  0.00    +0.000 C 
ATOM     15  O   UNL     1      -1.437   9.961  18.189  0.00  0.00    +0.000 OA
ATOM     16  H   UNL     1       0.805  11.547  19.685  0.00  0.00    +0.000 HD
ENDBRANCH   9  12
BRANCH  10  17
ATOM     17  C   UNL     1       0.258   8.595  21.391  0.00  0.00    +0.000 C 
ATOM     18  N   UNL     1       0.649   9.293  22.490  0.00  0.00    +0.000 N 
ATOM     19  O   UNL     1      -0.765   7.919  21.442  0.00  0.00    +0.000 OA
ATOM     20  H   UNL     1       1.629   9.539  22.592  0.00  0.00    +0.000 HD
ATOM     21  H   UNL     1       0.134   9.097  23.337  0.00  0.00    +0.000 HD
ENDBRANCH  10  17
BRANCH   1  22
ATOM     22  O   UNL     1       3.607   4.397  16.617  0.00  0.00    +0.000 OA
BRANCH  22  24
ATOM     23  C   UNL     1       5.411   5.161  15.202  0.00  0.00    +0.000 C 
ATOM     24  C   UNL     1       4.847   4.005  16.003  0.00  0.00    +0.000 C 
ENDBRANCH  22  24
ENDBRANCH   1  22
TORSDOF 4
ENDMDL
