MODEL 1
REMARK VINA RESULT:      -8.2      0.000      0.000
REMARK  Name = 
REMARK  8 active torsions:
REMARK  status: ('A' for Active; 'I' for Inactive)
REMARK    1  A    between atoms: C_1  and  C_2
REMARK    2  A    between atoms: C_5  and  N_6
REMARK    3  A    between atoms: C_8  and  C_9
REMARK    4  A    between atoms: C_11  and  C_12
REMARK    5  A    between atoms: C_15  and  N_16
REMARK    6  A    between atoms: N_16  and  S_17
REMARK    7  A    between atoms: S_17  and  C_20
REMARK    8  A    between atoms: C_23  and  C_24
REMARK                            x       y       z     vdW  Elec       q    Type
REMARK                         _______ _______ _______ _____ _____    ______ ____
ROOT
ATOM      1  C   UNL     1      -1.035  10.240  17.817  0.00  0.00    +0.000 C 
ATOM      2  C   UNL     1      -1.574  11.059  18.950  0.00  0.00    +0.000 A 
ATOM      3  C   UNL     1      -2.864  11.586  18.750  0.00  0.00    +0.000 A 
ATOM      4  C   UNL     1      -3.487  12.360  19.721  0.00  0.00    +0.000 A 
ATOM      5  C   UNL     1      -2.859  12.635  20.936  0.00  0.00    +0.000 A 
ATOM      6  C   UNL     1      -1.562  12.115  21.127  0.00  0.00    +0.000 A 
ATOM      7  C   UNL     1      -0.899  11.342  20.154  0.00  0.00    +0.000 A 
ENDROOT
BRANCH   5   8
ATOM      8  N   UNL     1      -3.498  13.386  21.896  0.00  0.00    +0.000 N 
ATOM      9  C   UNL     1      -4.936  13.291  22.171  0.00  0.00    +0.000 C 
ATOM     10  C   UNL     1      -5.149  12.973  23.681  0.00  0.00    +0.000 C 
ATOM     11  C   UNL     1      -6.638  12.936  24.017  0.00  0.00    +0.000 C 
ATOM     12  N   UNL     1      -4.482  13.952  24.574  0.00  0.00    +0.000 NA
ATOM     13  C   UNL     1      -3.039  14.032  24.242  0.00  0.00    +0.000 C 
ATOM     14  C   UNL     1      -2.387  15.091  25.127  0.00  0.00    +0.000 C 
ATOM     15  C   UNL     1      -2.795  14.359  22.747  0.00  0.00    +0.000 C 
ATOM     16  H   UNL     1      -4.590  13.655  25.543  0.00  0.00    +0.000 HD
ENDBRANCH   5   8
BRANCH   7  17
ATOM     17  N   UNL     1       0.390  10.807  20.501  0.00  0.00    +0.000 N 
ATOM     18  H   UNL     1       1.206  11.419  20.506  0.00  0.00    +0.000 HD
BRANCH  17  19
ATOM     19  S   UNL     1       0.625   9.299  21.214  0.00  0.00    +0.000 S 
ATOM     20  O   UNL     1       1.442   9.498  22.385  0.00  0.00    +0.000 OA
ATOM     21  O   UNL     1      -0.658   8.641  21.315  0.00  0.00    +0.000 OA
BRANCH  19  22
ATOM     22  C   UNL     1       1.620   8.363  20.090  0.00  0.00    +0.000 A 
ATOM     23  C   UNL     1       2.011   7.077  20.466  0.00  0.00    +0.000 A 
ATOM     24  C   UNL     1       2.799   6.329  19.603  0.00  0.00    +0.000 A 
ATOM     25  C   UNL     1       3.137   6.814  18.339  0.00  0.00    +0.000 A 
ATOM     26  C   UNL     1       2.677   8.086  17.943  0.00  0.00    +0.000 A 
ATOM     27  C   UNL     1       1.918   8.860  18.814  0.00  0.00    +0.000 A 
BRANCH  25  28
ATOM     28  C   UNL     1       3.939   5.997  17.425  0.00  0.00    +0.000 A 
ATOM     29  C   UNL     1       4.848   6.419  16.473  0.00  0.00    +0.000 A 
ATOM     30  C   UNL     1       5.406   5.335  15.742  0.00  0.00    +0.000 A 
ATOM     31  C   UNL     1       4.913   4.122  16.163  0.00  0.00    +0.000 A 
ATOM     32  S   UNL     1       3.784   4.287  17.423  0.00  0.00    +0.000 S 
ENDBRANCH  25  28
ENDBRANCH  19  22
ENDBRANCH  17  19
ENDBRANCH   7  17
TORSDOF 5
ENDMDL
MODEL 2
REMARK VINA RESULT:      -8.1      1.472      1.918
REMARK  Name = 
REMARK  8 active torsions:
REMARK  status: ('A' for Active; 'I' for Inactive)
REMARK    1  A    between atoms: C_1  and  C_2
REMARK    2  A    between atoms: C_5  and  N_6
REMARK    3  A    between atoms: C_8  and  C_9
REMARK    4  A    between atoms: C_11  and  C_12
REMARK    5  A    between atoms: C_15  and  N_16
REMARK    6  A    between atoms: N_16  and  S_17
REMARK    7  A    between atoms: S_17  and  C_20
REMARK    8  A    between atoms: C_23  and  C_24
REMARK                            x       y       z     vdW  Elec       q    Type
REMARK                         _______ _______ _______ _____ _____    ______ ____
ROOT
ATOM      1  C   UNL     1      -1.847   9.960  17.104  0.00  0.00    +0.000 C 
ATOM      2  C   UNL     1      -2.519  10.878  18.080  0.00  0.00    +0.000 A 
ATOM      3  C   UNL     1      -3.920  10.950  17.971  0.00  0.00    +0.000 A 
ATOM      4  C   UNL     1      -4.671  11.757  18.816  0.00  0.00    +0.000 A 
ATOM      5  C   UNL     1      -4.061  12.522  19.812  0.00  0.00    +0.000 A 
ATOM      6  C   UNL     1      -2.656  12.456  19.909  0.00  0.00    +0.000 A 
ATOM      7  C   UNL     1      -1.868  11.659  19.056  0.00  0.00    +0.000 A 
ENDROOT
BRANCH   5   8
ATOM      8  N   UNL     1      -4.821  13.301  20.654  0.00  0.00    +0.000 N 
ATOM      9  C   UNL     1      -6.110  12.874  21.208  0.00  0.00    +0.000 C 
ATOM     10  C   UNL     1      -6.059  12.971  22.762  0.00  0.00    +0.000 C 
ATOM     11  C   UNL     1      -7.409  12.600  23.368  0.00  0.00    +0.000 C 
ATOM     12  N   UNL     1      -5.677  14.324  23.239  0.00  0.00    +0.000 NA
ATOM     13  C   UNL     1      -4.383  14.723  22.634  0.00  0.00    +0.000 C 
ATOM     14  C   UNL     1      -4.043  16.140  23.087  0.00  0.00    +0.000 C 
ATOM     15  C   UNL     1      -4.407  14.646  21.086  0.00  0.00    +0.000 C 
ATOM     16  H   UNL     1      -5.586  14.311  24.254  0.00  0.00    +0.000 HD
ENDBRANCH   5   8
BRANCH   7  17
ATOM     17  N   UNL     1      -0.453  11.620  19.308  0.00  0.00    +0.000 N 
ATOM     18  H   UNL     1       0.160  12.292  18.845  0.00  0.00    +0.000 HD
BRANCH  17  19
ATOM     19  S   UNL     1       0.260  10.748  20.559  0.00  0.00    +0.000 S 
ATOM     20  O   UNL     1       1.296  11.573  21.126  0.00  0.00    +0.000 OA
ATOM     21  O   UNL     1      -0.793  10.211  21.393  0.00  0.00    +0.000 OA
BRANCH  19  22
ATOM     22  C   UNL     1       1.095   9.382  19.806  0.00  0.00    +0.000 A 
ATOM     23  C   UNL     1       1.465   9.491  18.465  0.00  0.00    +0.000 A 
ATOM     24  C   UNL     1       2.112   8.427  17.853  0.00  0.00    +0.000 A 
ATOM     25  C   UNL     1       2.465   7.289  18.579  0.00  0.00    +0.000 A 
ATOM     26  C   UNL     1       2.147   7.220  19.950  0.00  0.00    +0.000 A 
ATOM     27  C   UNL     1       1.466   8.264  20.565  0.00  0.00    +0.000 A 
BRANCH  25  28
ATOM     28  C   UNL     1       3.181   6.190  17.926  0.00  0.00    +0.000 A 
ATOM     29  C   UNL     1       2.813   4.861  17.840  0.00  0.00    +0.000 A 
ATOM     30  C   UNL     1       3.785   4.075  17.162  0.00  0.00    +0.000 A 
ATOM     31  C   UNL     1       4.857   4.828  16.746  0.00  0.00    +0.000 A 
ATOM     32  S   UNL     1       4.699   6.466  17.173  0.00  0.00    +0.000 S 
ENDBRANCH  25  28
ENDBRANCH  19  22
ENDBRANCH  17  19
ENDBRANCH   7  17
TORSDOF 5
ENDMDL
MODEL 3
REMARK VINA RESULT:      -8.0      0.923      1.329
REMARK  Name = 
REMARK  8 active torsions:
REMARK  status: ('A' for Active; 'I' for Inactive)
REMARK    1  A    between atoms: C_1  and  C_2
REMARK    2  A    between atoms: C_5  and  N_6
REMARK    3  A    between atoms: C_8  and  C_9
REMARK    4  A    between atoms: C_11  and  C_12
REMARK    5  A    between atoms: C_15  and  N_16
REMARK    6  A    between atoms: N_16  and  S_17
REMARK    7  A    between atoms: S_17  and  C_20
REMARK    8  A    between atoms: C_23  and  C_24
REMARK                            x       y       z     vdW  Elec       q    Type
REMARK                         _______ _______ _______ _____ _____    ______ ____
ROOT
ATOM      1  C   UNL     1      -1.589   9.924  17.278  0.00  0.00    +0.000 C 
ATOM      2  C   UNL     1      -2.166  10.867  18.290  0.00  0.00    +0.000 A 
ATOM      3  C   UNL     1      -3.521  11.196  18.103  0.00  0.00    +0.000 A 
ATOM      4  C   UNL     1      -4.183  12.055  18.971  0.00  0.00    +0.000 A 
ATOM      5  C   UNL     1      -3.529  12.617  20.067  0.00  0.00    +0.000 A 
ATOM      6  C   UNL     1      -2.168  12.293  20.245  0.00  0.00    +0.000 A 
ATOM      7  C   UNL     1      -1.466  11.439  19.372  0.00  0.00    +0.000 A 
ENDROOT
BRANCH   5   8
ATOM      8  N   UNL     1      -4.205  13.450  20.930  0.00  0.00    +0.000 N 
ATOM      9  C   UNL     1      -5.430  13.060  21.636  0.00  0.00    +0.000 C 
ATOM     10  C   UNL     1      -5.224  13.259  23.167  0.00  0.00    +0.000 C 
ATOM     11  C   UNL     1      -6.505  12.929  23.929  0.00  0.00    +0.000 C 
ATOM     12  N   UNL     1      -4.804  14.639  23.515  0.00  0.00    +0.000 NA
ATOM     13  C   UNL     1      -3.580  14.997  22.760  0.00  0.00    +0.000 C 
ATOM     14  C   UNL     1      -3.204  16.440  23.083  0.00  0.00    +0.000 C 
ATOM     15  C   UNL     1      -3.758  14.819  21.230  0.00  0.00    +0.000 C 
ATOM     16  H   UNL     1      -4.612  14.692  24.515  0.00  0.00    +0.000 HD
ENDBRANCH   5   8
BRANCH   7  17
ATOM     17  N   UNL     1      -0.103  11.128  19.706  0.00  0.00    +0.000 N 
ATOM     18  H   UNL     1       0.637  11.792  19.477  0.00  0.00    +0.000 HD
BRANCH  17  19
ATOM     19  S   UNL     1       0.355   9.879  20.739  0.00  0.00    +0.000 S 
ATOM     20  O   UNL     1       1.231  10.442  21.735  0.00  0.00    +0.000 OA
ATOM     21  O   UNL     1      -0.835   9.156  21.129  0.00  0.00    +0.000 OA
BRANCH  19  22
ATOM     22  C   UNL     1       1.360   8.781  19.783  0.00  0.00    +0.000 A 
ATOM     23  C   UNL     1       1.766   9.192  18.513  0.00  0.00    +0.000 A 
ATOM     24  C   UNL     1       2.547   8.341  17.743  0.00  0.00    +0.000 A 
ATOM     25  C   UNL     1       2.993   7.121  18.253  0.00  0.00    +0.000 A 
ATOM     26  C   UNL     1       2.634   6.748  19.563  0.00  0.00    +0.000 A 
ATOM     27  C   UNL     1       1.821   7.576  20.330  0.00  0.00    +0.000 A 
BRANCH  25  28
ATOM     28  C   UNL     1       3.847   6.251  17.441  0.00  0.00    +0.000 A 
ATOM     29  C   UNL     1       4.780   6.615  16.488  0.00  0.00    +0.000 A 
ATOM     30  C   UNL     1       5.390   5.488  15.872  0.00  0.00    +0.000 A 
ATOM     31  C   UNL     1       4.911   4.302  16.378  0.00  0.00    +0.000 A 
ATOM     32  S   UNL     1       3.733   4.544  17.580  0.00  0.00    +0.000 S 
ENDBRANCH  25  28
ENDBRANCH  19  22
ENDBRANCH  17  19
ENDBRANCH   7  17
TORSDOF 5
ENDMDL
MODEL 4
REMARK VINA RESULT:      -7.9      0.909      1.875
REMARK  Name = 
REMARK  8 active torsions:
REMARK  status: ('A' for Active; 'I' for Inactive)
REMARK    1  A    between atoms: C_1  and  C_2
REMARK    2  A    between atoms: C_5  and  N_6
REMARK    3  A    between atoms: C_8  and  C_9
REMARK    4  A    between atoms: C_11  and  C_12
REMARK    5  A    between atoms: C_15  and  N_16
REMARK    6  A    between atoms: N_16  and  S_17
REMARK    7  A    between atoms: S_17  and  C_20
REMARK    8  A    between atoms: C_23  and  C_24
REMARK                            x       y       z     vdW  Elec       q    Type
REMARK                         _______ _______ _______ _____ _____    ______ ____
ROOT
ATOM      1  C   UNL     1      -1.140  10.849  18.134  0.00  0.00    +0.000 C 
ATOM      2  C   UNL     1      -1.604  11.417  19.441  0.00  0.00    +0.000 A 
ATOM      3  C   UNL     1      -2.866  12.038  19.413  0.00  0.00    +0.000 A 
ATOM      4  C   UNL     1      -3.420  12.603  20.555  0.00  0.00    +0.000 A 
ATOM      5  C   UNL     1      -2.746  12.567  21.777  0.00  0.00    +0.000 A 
ATOM      6  C   UNL     1      -1.477  11.954  21.797  0.00  0.00    +0.000 A 
ATOM      7  C   UNL     1      -0.883  11.388  20.652  0.00  0.00    +0.000 A 
ENDROOT
BRANCH   5   8
ATOM      8  N   UNL     1      -3.318  13.113  22.904  0.00  0.00    +0.000 N 
ATOM      9  C   UNL     1      -2.550  13.801  23.947  0.00  0.00    +0.000 C 
ATOM     10  C   UNL     1      -3.133  15.231  24.153  0.00  0.00    +0.000 C 
ATOM     11  C   UNL     1      -2.401  15.951  25.282  0.00  0.00    +0.000 C 
ATOM     12  N   UNL     1      -4.585  15.219  24.456  0.00  0.00    +0.000 NA
ATOM     13  C   UNL     1      -5.315  14.492  23.390  0.00  0.00    +0.000 C 
ATOM     14  C   UNL     1      -6.796  14.437  23.756  0.00  0.00    +0.000 C 
ATOM     15  C   UNL     1      -4.764  13.060  23.169  0.00  0.00    +0.000 C 
ATOM     16  H   UNL     1      -4.927  16.178  24.507  0.00  0.00    +0.000 HD
ENDBRANCH   5   8
BRANCH   7  17
ATOM     17  N   UNL     1       0.382  10.726  20.822  0.00  0.00    +0.000 N 
ATOM     18  H   UNL     1       1.247  11.255  20.713  0.00  0.00    +0.000 HD
BRANCH  17  19
ATOM     19  S   UNL     1       0.563   9.196  21.501  0.00  0.00    +0.000 S 
ATOM     20  O   UNL     1       1.392   9.338  22.672  0.00  0.00    +0.000 OA
ATOM     21  O   UNL     1      -0.744   8.586  21.595  0.00  0.00    +0.000 OA
BRANCH  19  22
ATOM     22  C   UNL     1       1.516   8.246  20.352  0.00  0.00    +0.000 A 
ATOM     23  C   UNL     1       1.853   6.936  20.696  0.00  0.00    +0.000 A 
ATOM     24  C   UNL     1       2.609   6.178  19.813  0.00  0.00    +0.000 A 
ATOM     25  C   UNL     1       2.964   6.680  18.560  0.00  0.00    +0.000 A 
ATOM     26  C   UNL     1       2.558   7.979  18.197  0.00  0.00    +0.000 A 
ATOM     27  C   UNL     1       1.834   8.762  19.089  0.00  0.00    +0.000 A 
BRANCH  25  28
ATOM     28  C   UNL     1       3.730   5.852  17.625  0.00  0.00    +0.000 A 
ATOM     29  C   UNL     1       3.655   4.486  17.432  0.00  0.00    +0.000 A 
ATOM     30  C   UNL     1       4.588   4.025  16.463  0.00  0.00    +0.000 A 
ATOM     31  C   UNL     1       5.338   5.054  15.942  0.00  0.00    +0.000 A 
ATOM     32  S   UNL     1       4.928   6.558  16.618  0.00  0.00    +0.000 S 
ENDBRANCH  25  28
ENDBRANCH  19  22
ENDBRANCH  17  19
ENDBRANCH   7  17
TORSDOF 5
ENDMDL
MODEL 5
REMARK VINA RESULT:      -7.8      4.468      7.463
REMARK  Name = 
REMARK  8 active torsions:
REMARK  status: ('A' for Active; 'I' for Inactive)
REMARK    1  A    between atoms: C_1  and  C_2
REMARK    2  A    between atoms: C_5  and  N_6
REMARK    3  A    between atoms: C_8  and  C_9
REMARK    4  A    between atoms: C_11  and  C_12
REMARK    5  A    between atoms: C_15  and  N_16
REMARK    6  A    between atoms: N_16  and  S_17
REMARK    7  A    between atoms: S_17  and  C_20
REMARK    8  A    between atoms: C_23  and  C_24
REMARK                            x       y       z     vdW  Elec       q    Type
REMARK                         _______ _______ _______ _____ _____    ______ ____
ROOT
ATOM      1  C   UNL     1       2.588   2.548  18.639  0.00  0.00    +0.000 C 
ATOM      2  C   UNL     1       2.430   4.003  18.960  0.00  0.00    +0.000 A 
ATOM      3  C   UNL     1       1.550   4.294  20.019  0.00  0.00    +0.000 A 
ATOM      4  C   UNL     1       1.314   5.601  20.426  0.00  0.00    +0.000 A 
ATOM      5  C   UNL     1       1.951   6.675  19.803  0.00  0.00    +0.000 A 
ATOM      6  C   UNL     1       2.823   6.380  18.735  0.00  0.00    +0.000 A 
ATOM      7  C   UNL     1       3.068   5.066  18.290  0.00  0.00    +0.000 A 
ENDROOT
BRANCH   5   8
ATOM      8  N   UNL     1       1.722   7.963  20.231  0.00  0.00    +0.000 N 
ATOM      9  C   UNL     1       1.680   9.120  19.330  0.00  0.00    +0.000 C 
ATOM     10  C   UNL     1       0.323   9.863  19.513  0.00  0.00    +0.000 C 
ATOM     11  C   UNL     1       0.274  11.114  18.639  0.00  0.00    +0.000 C 
ATOM     12  N   UNL     1       0.071  10.255  20.922  0.00  0.00    +0.000 NA
ATOM     13  C   UNL     1       0.149   9.061  21.797  0.00  0.00    +0.000 C 
ATOM     14  C   UNL     1      -0.049   9.497  23.246  0.00  0.00    +0.000 C 
ATOM     15  C   UNL     1       1.494   8.305  21.644  0.00  0.00    +0.000 C 
ATOM     16  H   UNL     1      -0.858  10.668  20.996  0.00  0.00    +0.000 HD
ENDBRANCH   5   8
BRANCH   7  17
ATOM     17  N   UNL     1       4.037   4.894  17.242  0.00  0.00    +0.000 N 
ATOM     18  H   UNL     1       3.824   5.220  16.299  0.00  0.00    +0.000 HD
BRANCH  17  19
ATOM     19  S   UNL     1       5.646   4.472  17.503  0.00  0.00    +0.000 S 
ATOM     20  O   UNL     1       5.714   3.788  18.770  0.00  0.00    +0.000 OA
ATOM     21  O   UNL     1       6.150   3.846  16.301  0.00  0.00    +0.000 OA
BRANCH  19  22
ATOM     22  C   UNL     1       6.532   5.987  17.730  0.00  0.00    +0.000 A 
ATOM     23  C   UNL     1       6.036   7.140  17.120  0.00  0.00    +0.000 A 
ATOM     24  C   UNL     1       6.721   8.337  17.277  0.00  0.00    +0.000 A 
ATOM     25  C   UNL     1       7.847   8.416  18.097  0.00  0.00    +0.000 A 
ATOM     26  C   UNL     1       8.297   7.259  18.763  0.00  0.00    +0.000 A 
ATOM     27  C   UNL     1       7.641   6.046  18.583  0.00  0.00    +0.000 A 
BRANCH  25  28
ATOM     28  C   UNL     1       8.537   9.695  18.281  0.00  0.00    +0.000 A 
ATOM     29  C   UNL     1       9.592   9.984  19.126  0.00  0.00    +0.000 A 
ATOM     30  C   UNL     1       9.973  11.353  19.064  0.00  0.00    +0.000 A 
ATOM     31  C   UNL     1       9.204  12.061  18.171  0.00  0.00    +0.000 A 
ATOM     32  S   UNL     1       8.030  11.089  17.418  0.00  0.00    +0.000 S 
ENDBRANCH  25  28
ENDBRANCH  19  22
ENDBRANCH  17  19
ENDBRANCH   7  17
TORSDOF 5
ENDMDL
MODEL 6
REMARK VINA RESULT:      -7.8      2.976     10.285
REMARK  Name = 
REMARK  8 active torsions:
REMARK  status: ('A' for Active; 'I' for Inactive)
REMARK    1  A    between atoms: C_1  and  C_2
REMARK    2  A    between atoms: C_5  and  N_6
REMARK    3  A    between atoms: C_8  and  C_9
REMARK    4  A    between atoms: C_11  and  C_12
REMARK    5  A    between atoms: C_15  and  N_16
REMARK    6  A    between atoms: N_16  and  S_17
REMARK    7  A    between atoms: S_17  and  C_20
REMARK    8  A    between atoms: C_23  and  C_24
REMARK                            x       y       z     vdW  Elec       q    Type
REMARK                         _______ _______ _______ _____ _____    ______ ____
ROOT
ATOM      1  C   UNL     1       0.451  10.519  18.409  0.00  0.00    +0.000 C 
ATOM      2  C   UNL     1       1.203   9.271  18.761  0.00  0.00    +0.000 A 
ATOM      3  C   UNL     1       2.120   8.827  17.791  0.00  0.00    +0.000 A 
ATOM      4  C   UNL     1       2.888   7.687  17.989  0.00  0.00    +0.000 A 
ATOM      5  C   UNL     1       2.783   6.943  19.166  0.00  0.00    +0.000 A 
ATOM      6  C   UNL     1       1.854   7.385  20.130  0.00  0.00    +0.000 A 
ATOM      7  C   UNL     1       1.050   8.528  19.949  0.00  0.00    +0.000 A 
ENDROOT
BRANCH   5   8
ATOM      8  N   UNL     1       3.566   5.827  19.356  0.00  0.00    +0.000 N 
ATOM      9  C   UNL     1       3.031   4.527  19.774  0.00  0.00    +0.000 C 
ATOM     10  C   UNL     1       3.455   3.442  18.740  0.00  0.00    +0.000 C 
ATOM     11  C   UNL     1       2.974   2.062  19.182  0.00  0.00    +0.000 C 
ATOM     12  N   UNL     1       4.923   3.391  18.531  0.00  0.00    +0.000 NA
ATOM     13  C   UNL     1       5.420   4.730  18.135  0.00  0.00    +0.000 C 
ATOM     14  C   UNL     1       6.938   4.670  17.989  0.00  0.00    +0.000 C 
ATOM     15  C   UNL     1       5.023   5.831  19.152  0.00  0.00    +0.000 C 
ATOM     16  H   UNL     1       5.137   2.720  17.794  0.00  0.00    +0.000 HD
ENDBRANCH   5   8
BRANCH   7  17
ATOM     17  N   UNL     1       0.198   8.916  21.040  0.00  0.00    +0.000 N 
ATOM     18  H   UNL     1      -0.533   8.280  21.359  0.00  0.00    +0.000 HD
BRANCH  17  19
ATOM     19  S   UNL     1       0.503  10.221  22.059  0.00  0.00    +0.000 S 
ATOM     20  O   UNL     1       0.651   9.701  23.395  0.00  0.00    +0.000 OA
ATOM     21  O   UNL     1       1.546  11.025  21.463  0.00  0.00    +0.000 OA
BRANCH  19  22
ATOM     22  C   UNL     1      -0.974  11.194  22.084  0.00  0.00    +0.000 A 
ATOM     23  C   UNL     1      -1.665  11.315  23.291  0.00  0.00    +0.000 A 
ATOM     24  C   UNL     1      -2.832  12.066  23.330  0.00  0.00    +0.000 A 
ATOM     25  C   UNL     1      -3.275  12.761  22.204  0.00  0.00    +0.000 A 
ATOM     26  C   UNL     1      -2.530  12.686  21.010  0.00  0.00    +0.000 A 
ATOM     27  C   UNL     1      -1.381  11.907  20.949  0.00  0.00    +0.000 A 
BRANCH  25  28
ATOM     28  C   UNL     1      -4.488  13.579  22.272  0.00  0.00    +0.000 A 
ATOM     29  C   UNL     1      -5.553  13.607  21.391  0.00  0.00    +0.000 A 
ATOM     30  C   UNL     1      -6.537  14.563  21.763  0.00  0.00    +0.000 A 
ATOM     31  C   UNL     1      -6.198  15.227  22.919  0.00  0.00    +0.000 A 
ATOM     32  S   UNL     1      -4.705  14.709  23.546  0.00  0.00    +0.000 S 
ENDBRANCH  25  28
ENDBRANCH  19  22
ENDBRANCH  17  19
ENDBRANCH   7  17
TORSDOF 5
ENDMDL
MODEL 7
REMARK VINA RESULT:      -7.8      2.997      9.961
REMARK  Name = 
REMARK  8 active torsions:
REMARK  status: ('A' for Active; 'I' for Inactive)
REMARK    1  A    between atoms: C_1  and  C_2
REMARK    2  A    between atoms: C_5  and  N_6
REMARK    3  A    between atoms: C_8  and  C_9
REMARK    4  A    between atoms: C_11  and  C_12
REMARK    5  A    between atoms: C_15  and  N_16
REMARK    6  A    between atoms: N_16  and  S_17
REMARK    7  A    between atoms: S_17  and  C_20
REMARK    8  A    between atoms: C_23  and  C_24
REMARK                            x       y       z     vdW  Elec       q    Type
REMARK                         _______ _______ _______ _____ _____    ______ ____
ROOT
ATOM      1  C   UNL     1       1.074  10.787  18.391  0.00  0.00    +0.000 C 
ATOM      2  C   UNL     1       1.471   9.421  18.865  0.00  0.00    +0.000 A 
ATOM      3  C   UNL     1       1.838   8.516  17.852  0.00  0.00    +0.000 A 
ATOM      4  C   UNL     1       2.233   7.218  18.149  0.00  0.00    +0.000 A 
ATOM      5  C   UNL     1       2.287   6.766  19.469  0.00  0.00    +0.000 A 
ATOM      6  C   UNL     1       1.907   7.672  20.479  0.00  0.00    +0.000 A 
ATOM      7  C   UNL     1       1.487   8.989  20.206  0.00  0.00    +0.000 A 
ENDROOT
BRANCH   5   8
ATOM      8  N   UNL     1       2.700   5.483  19.748  0.00  0.00    +0.000 N 
ATOM      9  C   UNL     1       2.329   4.763  20.971  0.00  0.00    +0.000 C 
ATOM     10  C   UNL     1       1.654   3.413  20.587  0.00  0.00    +0.000 C 
ATOM     11  C   UNL     1       1.318   2.605  21.837  0.00  0.00    +0.000 C 
ATOM     12  N   UNL     1       2.502   2.582  19.695  0.00  0.00    +0.000 NA
ATOM     13  C   UNL     1       2.872   3.359  18.488  0.00  0.00    +0.000 C 
ATOM     14  C   UNL     1       3.795   2.509  17.619  0.00  0.00    +0.000 C 
ATOM     15  C   UNL     1       3.556   4.705  18.839  0.00  0.00    +0.000 C 
ATOM     16  H   UNL     1       1.984   1.750  19.416  0.00  0.00    +0.000 HD
ENDBRANCH   5   8
BRANCH   7  17
ATOM     17  N   UNL     1       1.199   9.837  21.331  0.00  0.00    +0.000 N 
ATOM     18  H   UNL     1       1.642  10.754  21.397  0.00  0.00    +0.000 HD
BRANCH  17  19
ATOM     19  S   UNL     1      -0.064   9.575  22.413  0.00  0.00    +0.000 S 
ATOM     20  O   UNL     1      -0.815   8.443  21.935  0.00  0.00    +0.000 OA
ATOM     21  O   UNL     1       0.481   9.585  23.753  0.00  0.00    +0.000 OA
BRANCH  19  22
ATOM     22  C   UNL     1      -1.147  10.966  22.266  0.00  0.00    +0.000 A 
ATOM     23  C   UNL     1      -1.950  11.298  23.359  0.00  0.00    +0.000 A 
ATOM     24  C   UNL     1      -2.814  12.379  23.260  0.00  0.00    +0.000 A 
ATOM     25  C   UNL     1      -2.832  13.181  22.118  0.00  0.00    +0.000 A 
ATOM     26  C   UNL     1      -1.966  12.876  21.049  0.00  0.00    +0.000 A 
ATOM     27  C   UNL     1      -1.123  11.773  21.121  0.00  0.00    +0.000 A 
BRANCH  25  28
ATOM     28  C   UNL     1      -3.723  14.340  22.045  0.00  0.00    +0.000 A 
ATOM     29  C   UNL     1      -4.938  14.528  22.678  0.00  0.00    +0.000 A 
ATOM     30  C   UNL     1      -5.540  15.769  22.332  0.00  0.00    +0.000 A 
ATOM     31  C   UNL     1      -4.766  16.491  21.455  0.00  0.00    +0.000 A 
ATOM     32  S   UNL     1      -3.329  15.680  21.046  0.00  0.00    +0.000 S 
ENDBRANCH  25  28
ENDBRANCH  19  22
ENDBRANCH  17  19
ENDBRANCH   7  17
TORSDOF 5
ENDMDL
MODEL 8
REMARK VINA RESULT:      -7.8      1.321      1.487
REMARK  Name = 
REMARK  8 active torsions:
REMARK  status: ('A' for Active; 'I' for Inactive)
REMARK    1  A    between atoms: C_1  and  C_2
REMARK    2  A    between atoms: C_5  and  N_6
REMARK    3  A    between atoms: C_8  and  C_9
REMARK    4  A    between atoms: C_11  and  C_12
REMARK    5  A    between atoms: C_15  and  N_16
REMARK    6  A    between atoms: N_16  and  S_17
REMARK    7  A    between atoms: S_17  and  C_20
REMARK    8  A    between atoms: C_23  and  C_24
REMARK                            x       y       z     vdW  Elec       q    Type
REMARK                         _______ _______ _______ _____ _____    ______ ____
ROOT
ATOM      1  C   UNL     1      -3.093  10.315  16.894  0.00  0.00    +0.000 C 
ATOM      2  C   UNL     1      -3.307  11.164  18.111  0.00  0.00    +0.000 A 
ATOM      3  C   UNL     1      -4.648  11.482  18.395  0.00  0.00    +0.000 A 
ATOM      4  C   UNL     1      -4.990  12.257  19.496  0.00  0.00    +0.000 A 
ATOM      5  C   UNL     1      -4.014  12.742  20.367  0.00  0.00    +0.000 A 
ATOM      6  C   UNL     1      -2.671  12.432  20.072  0.00  0.00    +0.000 A 
ATOM      7  C   UNL     1      -2.293  11.662  18.954  0.00  0.00    +0.000 A 
ENDROOT
BRANCH   5   8
ATOM      8  N   UNL     1      -4.371  13.492  21.465  0.00  0.00    +0.000 N 
ATOM      9  C   UNL     1      -5.741  13.562  21.985  0.00  0.00    +0.000 C 
ATOM     10  C   UNL     1      -5.740  13.156  23.489  0.00  0.00    +0.000 C 
ATOM     11  C   UNL     1      -7.140  13.285  24.081  0.00  0.00    +0.000 C 
ATOM     12  N   UNL     1      -4.801  13.969  24.301  0.00  0.00    +0.000 NA
ATOM     13  C   UNL     1      -3.438  13.889  23.723  0.00  0.00    +0.000 C 
ATOM     14  C   UNL     1      -2.504  14.783  24.535  0.00  0.00    +0.000 C 
ATOM     15  C   UNL     1      -3.405  14.297  22.228  0.00  0.00    +0.000 C 
ATOM     16  H   UNL     1      -4.785  13.613  25.256  0.00  0.00    +0.000 HD
ENDBRANCH   5   8
BRANCH   7  17
ATOM     17  N   UNL     1      -0.897  11.352  18.807  0.00  0.00    +0.000 N 
ATOM     18  H   UNL     1      -0.416  11.587  17.938  0.00  0.00    +0.000 HD
BRANCH  17  19
ATOM     19  S   UNL     1       0.110  10.904  20.080  0.00  0.00    +0.000 S 
ATOM     20  O   UNL     1       1.021  11.996  20.315  0.00  0.00    +0.000 OA
ATOM     21  O   UNL     1      -0.716  10.391  21.150  0.00  0.00    +0.000 OA
BRANCH  19  22
ATOM     22  C   UNL     1       1.107   9.569  19.486  0.00  0.00    +0.000 A 
ATOM     23  C   UNL     1       1.291   8.461  20.315  0.00  0.00    +0.000 A 
ATOM     24  C   UNL     1       2.078   7.407  19.872  0.00  0.00    +0.000 A 
ATOM     25  C   UNL     1       2.617   7.407  18.585  0.00  0.00    +0.000 A 
ATOM     26  C   UNL     1       2.365   8.500  17.732  0.00  0.00    +0.000 A 
ATOM     27  C   UNL     1       1.611   9.579  18.178  0.00  0.00    +0.000 A 
BRANCH  25  28
ATOM     28  C   UNL     1       3.414   6.270  18.119  0.00  0.00    +0.000 A 
ATOM     29  C   UNL     1       4.272   6.212  17.037  0.00  0.00    +0.000 A 
ATOM     30  C   UNL     1       4.841   4.919  16.869  0.00  0.00    +0.000 A 
ATOM     31  C   UNL     1       4.408   4.037  17.830  0.00  0.00    +0.000 A 
ATOM     32  S   UNL     1       3.320   4.755  18.921  0.00  0.00    +0.000 S 
ENDBRANCH  25  28
ENDBRANCH  19  22
ENDBRANCH  17  19
ENDBRANCH   7  17
TORSDOF 5
ENDMDL
MODEL 9
REMARK VINA RESULT:      -7.6      1.608      2.144
REMARK  Name = 
REMARK  8 active torsions:
REMARK  status: ('A' for Active; 'I' for Inactive)
REMARK    1  A    between atoms: C_1  and  C_2
REMARK    2  A    between atoms: C_5  and  N_6
REMARK    3  A    between atoms: C_8  and  C_9
REMARK    4  A    between atoms: C_11  and  C_12
REMARK    5  A    between atoms: C_15  and  N_16
REMARK    6  A    between atoms: N_16  and  S_17
REMARK    7  A    between atoms: S_17  and  C_20
REMARK    8  A    between atoms: C_23  and  C_24
REMARK                            x       y       z     vdW  Elec       q    Type
REMARK                         _______ _______ _______ _____ _____    ______ ____
ROOT
ATOM      1  C   UNL     1      -2.246  10.015  16.726  0.00  0.00    +0.000 C 
ATOM      2  C   UNL     1      -2.721  10.910  17.830  0.00  0.00    +0.000 A 
ATOM      3  C   UNL     1      -4.114  11.105  17.889  0.00  0.00    +0.000 A 
ATOM      4  C   UNL     1      -4.691  11.907  18.866  0.00  0.00    +0.000 A 
ATOM      5  C   UNL     1      -3.909  12.543  19.831  0.00  0.00    +0.000 A 
ATOM      6  C   UNL     1      -2.514  12.354  19.761  0.00  0.00    +0.000 A 
ATOM      7  C   UNL     1      -1.899  11.560  18.772  0.00  0.00    +0.000 A 
ENDROOT
BRANCH   5   8
ATOM      8  N   UNL     1      -4.499  13.317  20.804  0.00  0.00    +0.000 N 
ATOM      9  C   UNL     1      -4.411  13.019  22.238  0.00  0.00    +0.000 C 
ATOM     10  C   UNL     1      -3.833  14.258  22.985  0.00  0.00    +0.000 C 
ATOM     11  C   UNL     1      -3.794  14.008  24.490  0.00  0.00    +0.000 C 
ATOM     12  N   UNL     1      -4.610  15.496  22.727  0.00  0.00    +0.000 NA
ATOM     13  C   UNL     1      -4.693  15.742  21.267  0.00  0.00    +0.000 C 
ATOM     14  C   UNL     1      -5.549  16.982  21.023  0.00  0.00    +0.000 C 
ATOM     15  C   UNL     1      -5.275  14.529  20.497  0.00  0.00    +0.000 C 
ATOM     16  H   UNL     1      -4.147  16.285  23.177  0.00  0.00    +0.000 HD
ENDBRANCH   5   8
BRANCH   7  17
ATOM     17  N   UNL     1      -0.475  11.387  18.856  0.00  0.00    +0.000 N 
ATOM     18  H   UNL     1       0.135  11.904  18.222  0.00  0.00    +0.000 HD
BRANCH  17  19
ATOM     19  S   UNL     1       0.310  10.624  20.136  0.00  0.00    +0.000 S 
ATOM     20  O   UNL     1       1.269  11.556  20.672  0.00  0.00    +0.000 OA
ATOM     21  O   UNL     1      -0.693  10.027  20.989  0.00  0.00    +0.000 OA
BRANCH  19  22
ATOM     22  C   UNL     1       1.263   9.311  19.429  0.00  0.00    +0.000 A 
ATOM     23  C   UNL     1       1.558   8.205  20.228  0.00  0.00    +0.000 A 
ATOM     24  C   UNL     1       2.312   7.169  19.696  0.00  0.00    +0.000 A 
ATOM     25  C   UNL     1       2.708   7.183  18.358  0.00  0.00    +0.000 A 
ATOM     26  C   UNL     1       2.343   8.274  17.543  0.00  0.00    +0.000 A 
ATOM     27  C   UNL     1       1.620   9.335  18.075  0.00  0.00    +0.000 A 
BRANCH  25  28
ATOM     28  C   UNL     1       3.472   6.064  17.802  0.00  0.00    +0.000 A 
ATOM     29  C   UNL     1       3.198   4.712  17.893  0.00  0.00    +0.000 A 
ATOM     30  C   UNL     1       4.193   3.916  17.261  0.00  0.00    +0.000 A 
ATOM     31  C   UNL     1       5.188   4.684  16.703  0.00  0.00    +0.000 A 
ATOM     32  S   UNL     1       4.930   6.347  16.942  0.00  0.00    +0.000 S 
ENDBRANCH  25  28
ENDBRANCH  19  22
ENDBRANCH  17  19
ENDBRANCH   7  17
TORSDOF 5
ENDMDL
