MODEL 1
REMARK VINA RESULT:      -8.1      0.000      0.000
REMARK  Name = 
REMARK  7 active torsions:
REMARK  status: ('A' for Active; 'I' for Inactive)
REMARK    1  A    between atoms: C_1  and  O_2
REMARK    2  A    between atoms: O_2  and  C_3
REMARK    3  A    between atoms: C_6  and  N_7
REMARK    4  A    between atoms: N_7  and  C_8
REMARK    5  A    between atoms: C_8  and  N_10
REMARK    6  A    between atoms: C_14  and  C_15
REMARK    7  A    between atoms: C_19  and  C_20
REMARK                            x       y       z     vdW  Elec       q    Type
REMARK                         _______ _______ _______ _____ _____    ______ ____
ROOT
ATOM      1  N   UNL     1       2.914   3.415  19.452  0.00  0.00    +0.000 N 
ATOM      2  C   UNL     1       1.922   3.056  18.433  0.00  0.00    +0.000 C 
ATOM      3  C   UNL     1       1.908   4.121  17.336  0.00  0.00    +0.000 C 
ATOM      4  C   UNL     1       1.596   5.496  17.917  0.00  0.00    +0.000 C 
ATOM      5  C   UNL     1       2.548   5.878  19.069  0.00  0.00    +0.000 C 
ATOM      6  C   UNL     1       2.662   4.720  20.086  0.00  0.00    +0.000 C 
ENDROOT
BRANCH   5   7
ATOM      7  C   UNL     1       2.013   7.116  19.732  0.00  0.00    +0.000 A 
ATOM      8  N   UNL     1       1.463   7.160  20.928  0.00  0.00    +0.000 NA
ATOM      9  C   UNL     1       0.940   8.418  21.052  0.00  0.00    +0.000 A 
ATOM     10  C   UNL     1       0.207   8.970  22.109  0.00  0.00    +0.000 A 
ATOM     11  C   UNL     1      -0.266  10.285  22.004  0.00  0.00    +0.000 A 
ATOM     12  C   UNL     1      -1.063  10.883  23.127  0.00  0.00    +0.000 C 
ATOM     13  C   UNL     1      -0.006  11.026  20.839  0.00  0.00    +0.000 A 
ATOM     14  C   UNL     1       0.735  10.491  19.770  0.00  0.00    +0.000 A 
ATOM     15  C   UNL     1       1.193   9.178  19.917  0.00  0.00    +0.000 A 
ATOM     16  N   UNL     1       1.919   8.338  19.106  0.00  0.00    +0.000 N 
ATOM     17  H   UNL     1       2.258   8.558  18.181  0.00  0.00    +0.000 HD
ENDBRANCH   5   7
BRANCH   1  18
ATOM     18  C   UNL     1       4.159   2.798  19.416  0.00  0.00    +0.000 C 
ATOM     19  S   UNL     1       4.818   1.901  20.666  0.00  0.00    +0.000 S 
BRANCH  18  20
ATOM     20  N   UNL     1       4.946   3.068  18.320  0.00  0.00    +0.000 N 
ATOM     21  H   UNL     1       4.900   2.389  17.569  0.00  0.00    +0.000 HD
BRANCH  20  25
ATOM     22  C   UNL     1       6.899   6.687  17.355  0.00  0.00    +0.000 A 
ATOM     23  C   UNL     1       6.085   6.034  16.429  0.00  0.00    +0.000 A 
ATOM     24  C   UNL     1       5.412   4.858  16.771  0.00  0.00    +0.000 A 
ATOM     25  C   UNL     1       5.610   4.280  18.025  0.00  0.00    +0.000 A 
ATOM     26  C   UNL     1       6.422   4.934  18.957  0.00  0.00    +0.000 A 
ATOM     27  C   UNL     1       7.053   6.142  18.630  0.00  0.00    +0.000 A 
BRANCH  22  29
ATOM     28  C   UNL     1       8.119   8.655  17.871  0.00  0.00    +0.000 C 
ATOM     29  O   UNL     1       7.520   7.815  16.892  0.00  0.00    +0.000 OA
ENDBRANCH  22  29
ENDBRANCH  20  25
ENDBRANCH  18  20
ENDBRANCH   1  18
TORSDOF 5
ENDMDL
MODEL 2
REMARK VINA RESULT:      -7.9      1.111      1.562
REMARK  Name = 
REMARK  7 active torsions:
REMARK  status: ('A' for Active; 'I' for Inactive)
REMARK    1  A    between atoms: C_1  and  O_2
REMARK    2  A    between atoms: O_2  and  C_3
REMARK    3  A    between atoms: C_6  and  N_7
REMARK    4  A    between atoms: N_7  and  C_8
REMARK    5  A    between atoms: C_8  and  N_10
REMARK    6  A    between atoms: C_14  and  C_15
REMARK    7  A    between atoms: C_19  and  C_20
REMARK                            x       y       z     vdW  Elec       q    Type
REMARK                         _______ _______ _______ _____ _____    ______ ____
ROOT
ATOM      1  N   UNL     1       3.042   3.836  19.748  0.00  0.00    +0.000 N 
ATOM      2  C   UNL     1       2.122   3.390  18.697  0.00  0.00    +0.000 C 
ATOM      3  C   UNL     1       2.119   4.406  17.556  0.00  0.00    +0.000 C 
ATOM      4  C   UNL     1       1.718   5.789  18.058  0.00  0.00    +0.000 C 
ATOM      5  C   UNL     1       2.590   6.262  19.239  0.00  0.00    +0.000 C 
ATOM      6  C   UNL     1       2.701   5.154  20.311  0.00  0.00    +0.000 C 
ENDROOT
BRANCH   5   7
ATOM      7  C   UNL     1       1.968   7.501  19.818  0.00  0.00    +0.000 A 
ATOM      8  N   UNL     1       1.474   7.605  21.035  0.00  0.00    +0.000 NA
ATOM      9  C   UNL     1       0.836   8.815  21.076  0.00  0.00    +0.000 A 
ATOM     10  C   UNL     1       0.103   9.392  22.119  0.00  0.00    +0.000 A 
ATOM     11  C   UNL     1      -0.501  10.642  21.924  0.00  0.00    +0.000 A 
ATOM     12  C   UNL     1      -1.300  11.265  23.033  0.00  0.00    +0.000 C 
ATOM     13  C   UNL     1      -0.371  11.291  20.685  0.00  0.00    +0.000 A 
ATOM     14  C   UNL     1       0.367  10.730  19.629  0.00  0.00    +0.000 A 
ATOM     15  C   UNL     1       0.960   9.485  19.865  0.00  0.00    +0.000 A 
ATOM     16  N   UNL     1       1.725   8.645  19.093  0.00  0.00    +0.000 N 
ATOM     17  H   UNL     1       1.996   8.808  18.134  0.00  0.00    +0.000 HD
ENDBRANCH   5   7
BRANCH   1  18
ATOM     18  C   UNL     1       4.314   3.276  19.803  0.00  0.00    +0.000 C 
ATOM     19  S   UNL     1       4.644   1.697  20.250  0.00  0.00    +0.000 S 
BRANCH  18  20
ATOM     20  N   UNL     1       5.371   4.134  19.603  0.00  0.00    +0.000 N 
ATOM     21  H   UNL     1       5.923   4.348  20.425  0.00  0.00    +0.000 HD
BRANCH  20  25
ATOM     22  C   UNL     1       6.939   5.310  15.861  0.00  0.00    +0.000 A 
ATOM     23  C   UNL     1       6.106   4.197  15.980  0.00  0.00    +0.000 A 
ATOM     24  C   UNL     1       5.560   3.840  17.216  0.00  0.00    +0.000 A 
ATOM     25  C   UNL     1       5.909   4.550  18.364  0.00  0.00    +0.000 A 
ATOM     26  C   UNL     1       6.741   5.668  18.249  0.00  0.00    +0.000 A 
ATOM     27  C   UNL     1       7.243   6.056  16.999  0.00  0.00    +0.000 A 
BRANCH  22  29
ATOM     28  C   UNL     1       7.000   4.645  13.585  0.00  0.00    +0.000 C 
ATOM     29  O   UNL     1       7.427   5.541  14.604  0.00  0.00    +0.000 OA
ENDBRANCH  22  29
ENDBRANCH  20  25
ENDBRANCH  18  20
ENDBRANCH   1  18
TORSDOF 5
ENDMDL
MODEL 3
REMARK VINA RESULT:      -7.9      1.186      1.319
REMARK  Name = 
REMARK  7 active torsions:
REMARK  status: ('A' for Active; 'I' for Inactive)
REMARK    1  A    between atoms: C_1  and  O_2
REMARK    2  A    between atoms: O_2  and  C_3
REMARK    3  A    between atoms: C_6  and  N_7
REMARK    4  A    between atoms: N_7  and  C_8
REMARK    5  A    between atoms: C_8  and  N_10
REMARK    6  A    between atoms: C_14  and  C_15
REMARK    7  A    between atoms: C_19  and  C_20
REMARK                            x       y       z     vdW  Elec       q    Type
REMARK                         _______ _______ _______ _____ _____    ______ ____
ROOT
ATOM      1  N   UNL     1       3.669   3.752  19.965  0.00  0.00    +0.000 N 
ATOM      2  C   UNL     1       2.761   2.836  20.664  0.00  0.00    +0.000 C 
ATOM      3  C   UNL     1       1.329   3.076  20.189  0.00  0.00    +0.000 C 
ATOM      4  C   UNL     1       0.910   4.523  20.431  0.00  0.00    +0.000 C 
ATOM      5  C   UNL     1       1.894   5.533  19.805  0.00  0.00    +0.000 C 
ATOM      6  C   UNL     1       3.350   5.174  20.177  0.00  0.00    +0.000 C 
ENDROOT
BRANCH   5   7
ATOM      7  C   UNL     1       1.541   6.906  20.303  0.00  0.00    +0.000 A 
ATOM      8  N   UNL     1       0.860   7.164  21.401  0.00  0.00    +0.000 NA
ATOM      9  C   UNL     1       0.593   8.505  21.367  0.00  0.00    +0.000 A 
ATOM     10  C   UNL     1      -0.145   9.282  22.268  0.00  0.00    +0.000 A 
ATOM     11  C   UNL     1      -0.321  10.649  22.012  0.00  0.00    +0.000 A 
ATOM     12  C   UNL     1      -1.120  11.489  22.966  0.00  0.00    +0.000 C 
ATOM     13  C   UNL     1       0.234  11.215  20.852  0.00  0.00    +0.000 A 
ATOM     14  C   UNL     1       0.983  10.453  19.939  0.00  0.00    +0.000 A 
ATOM     15  C   UNL     1       1.141   9.094  20.235  0.00  0.00    +0.000 A 
ATOM     16  N   UNL     1       1.780   8.060  19.594  0.00  0.00    +0.000 N 
ATOM     17  H   UNL     1       2.274   8.125  18.716  0.00  0.00    +0.000 HD
ENDBRANCH   5   7
BRANCH   1  18
ATOM     18  C   UNL     1       4.392   3.273  18.879  0.00  0.00    +0.000 C 
ATOM     19  S   UNL     1       3.791   2.231  17.715  0.00  0.00    +0.000 S 
BRANCH  18  20
ATOM     20  N   UNL     1       5.732   3.582  18.850  0.00  0.00    +0.000 N 
ATOM     21  H   UNL     1       6.365   2.797  18.951  0.00  0.00    +0.000 HD
BRANCH  20  25
ATOM     22  C   UNL     1       7.421   7.255  17.624  0.00  0.00    +0.000 A 
ATOM     23  C   UNL     1       6.312   6.714  16.973  0.00  0.00    +0.000 A 
ATOM     24  C   UNL     1       5.737   5.518  17.411  0.00  0.00    +0.000 A 
ATOM     25  C   UNL     1       6.317   4.809  18.462  0.00  0.00    +0.000 A 
ATOM     26  C   UNL     1       7.426   5.349  19.120  0.00  0.00    +0.000 A 
ATOM     27  C   UNL     1       7.968   6.576  18.713  0.00  0.00    +0.000 A 
BRANCH  22  29
ATOM     28  C   UNL     1       8.317   9.418  18.007  0.00  0.00    +0.000 C 
ATOM     29  O   UNL     1       7.904   8.415  17.086  0.00  0.00    +0.000 OA
ENDBRANCH  22  29
ENDBRANCH  20  25
ENDBRANCH  18  20
ENDBRANCH   1  18
TORSDOF 5
ENDMDL
MODEL 4
REMARK VINA RESULT:      -7.4      3.907      7.042
REMARK  Name = 
REMARK  7 active torsions:
REMARK  status: ('A' for Active; 'I' for Inactive)
REMARK    1  A    between atoms: C_1  and  O_2
REMARK    2  A    between atoms: O_2  and  C_3
REMARK    3  A    between atoms: C_6  and  N_7
REMARK    4  A    between atoms: N_7  and  C_8
REMARK    5  A    between atoms: C_8  and  N_10
REMARK    6  A    between atoms: C_14  and  C_15
REMARK    7  A    between atoms: C_19  and  C_20
REMARK                            x       y       z     vdW  Elec       q    Type
REMARK                         _______ _______ _______ _____ _____    ______ ____
ROOT
ATOM      1  N   UNL     1       7.054   5.385  16.340  0.00  0.00    +0.000 N 
ATOM      2  C   UNL     1       7.642   4.458  17.312  0.00  0.00    +0.000 C 
ATOM      3  C   UNL     1       7.306   4.924  18.729  0.00  0.00    +0.000 C 
ATOM      4  C   UNL     1       7.816   6.341  18.972  0.00  0.00    +0.000 C 
ATOM      5  C   UNL     1       7.311   7.339  17.910  0.00  0.00    +0.000 C 
ATOM      6  C   UNL     1       7.525   6.772  16.487  0.00  0.00    +0.000 C 
ENDROOT
BRANCH   5   7
ATOM      7  C   UNL     1       8.057   8.632  18.084  0.00  0.00    +0.000 A 
ATOM      8  N   UNL     1       8.934   8.880  19.035  0.00  0.00    +0.000 NA
ATOM      9  C   UNL     1       9.210  10.217  18.947  0.00  0.00    +0.000 A 
ATOM     10  C   UNL     1      10.041  11.002  19.756  0.00  0.00    +0.000 A 
ATOM     11  C   UNL     1      10.147  12.377  19.499  0.00  0.00    +0.000 A 
ATOM     12  C   UNL     1      11.026  13.230  20.367  0.00  0.00    +0.000 C 
ATOM     13  C   UNL     1       9.414  12.946  18.445  0.00  0.00    +0.000 A 
ATOM     14  C   UNL     1       8.581  12.172  17.619  0.00  0.00    +0.000 A 
ATOM     15  C   UNL     1       8.507  10.804  17.903  0.00  0.00    +0.000 A 
ATOM     16  N   UNL     1       7.811   9.762  17.339  0.00  0.00    +0.000 N 
ATOM     17  H   UNL     1       7.173   9.831  16.560  0.00  0.00    +0.000 HD
ENDBRANCH   5   7
BRANCH   1  18
ATOM     18  C   UNL     1       5.858   5.034  15.723  0.00  0.00    +0.000 C 
ATOM     19  S   UNL     1       5.734   4.085  14.349  0.00  0.00    +0.000 S 
BRANCH  18  20
ATOM     20  N   UNL     1       4.718   5.628  16.213  0.00  0.00    +0.000 N 
ATOM     21  H   UNL     1       4.217   6.219  15.559  0.00  0.00    +0.000 HD
BRANCH  20  25
ATOM     22  C   UNL     1       2.720   4.808  19.843  0.00  0.00    +0.000 A 
ATOM     23  C   UNL     1       3.079   6.110  19.491  0.00  0.00    +0.000 A 
ATOM     24  C   UNL     1       3.704   6.375  18.270  0.00  0.00    +0.000 A 
ATOM     25  C   UNL     1       4.049   5.325  17.420  0.00  0.00    +0.000 A 
ATOM     26  C   UNL     1       3.688   4.020  17.767  0.00  0.00    +0.000 A 
ATOM     27  C   UNL     1       3.012   3.763  18.967  0.00  0.00    +0.000 A 
BRANCH  22  29
ATOM     28  C   UNL     1       2.130   3.370  21.634  0.00  0.00    +0.000 C 
ATOM     29  O   UNL     1       2.136   4.677  21.072  0.00  0.00    +0.000 OA
ENDBRANCH  22  29
ENDBRANCH  20  25
ENDBRANCH  18  20
ENDBRANCH   1  18
TORSDOF 5
ENDMDL
MODEL 5
REMARK VINA RESULT:      -7.4      1.804      2.810
REMARK  Name = 
REMARK  7 active torsions:
REMARK  status: ('A' for Active; 'I' for Inactive)
REMARK    1  A    between atoms: C_1  and  O_2
REMARK    2  A    between atoms: O_2  and  C_3
REMARK    3  A    between atoms: C_6  and  N_7
REMARK    4  A    between atoms: N_7  and  C_8
REMARK    5  A    between atoms: C_8  and  N_10
REMARK    6  A    between atoms: C_14  and  C_15
REMARK    7  A    between atoms: C_19  and  C_20
REMARK                            x       y       z     vdW  Elec       q    Type
REMARK                         _______ _______ _______ _____ _____    ______ ____
ROOT
ATOM      1  N   UNL     1       3.184   4.056  19.710  0.00  0.00    +0.000 N 
ATOM      2  C   UNL     1       2.001   3.330  19.237  0.00  0.00    +0.000 C 
ATOM      3  C   UNL     1       1.646   3.798  17.826  0.00  0.00    +0.000 C 
ATOM      4  C   UNL     1       1.390   5.302  17.798  0.00  0.00    +0.000 C 
ATOM      5  C   UNL     1       2.566   6.109  18.386  0.00  0.00    +0.000 C 
ATOM      6  C   UNL     1       3.005   5.518  19.745  0.00  0.00    +0.000 C 
ENDROOT
BRANCH   5   7
ATOM      7  C   UNL     1       2.124   7.537  18.546  0.00  0.00    +0.000 A 
ATOM      8  N   UNL     1       2.425   8.521  17.723  0.00  0.00    +0.000 NA
ATOM      9  C   UNL     1       2.002   9.666  18.342  0.00  0.00    +0.000 A 
ATOM     10  C   UNL     1       2.126  10.995  17.920  0.00  0.00    +0.000 A 
ATOM     11  C   UNL     1       1.644  12.023  18.742  0.00  0.00    +0.000 A 
ATOM     12  C   UNL     1       1.782  13.453  18.305  0.00  0.00    +0.000 C 
ATOM     13  C   UNL     1       1.056  11.707  19.978  0.00  0.00    +0.000 A 
ATOM     14  C   UNL     1       0.917  10.378  20.415  0.00  0.00    +0.000 A 
ATOM     15  C   UNL     1       1.404   9.381  19.563  0.00  0.00    +0.000 A 
ATOM     16  N   UNL     1       1.454   8.010  19.650  0.00  0.00    +0.000 N 
ATOM     17  H   UNL     1       1.124   7.456  20.427  0.00  0.00    +0.000 HD
ENDBRANCH   5   7
BRANCH   1  18
ATOM     18  C   UNL     1       4.423   3.429  19.641  0.00  0.00    +0.000 C 
ATOM     19  S   UNL     1       4.753   1.897  20.228  0.00  0.00    +0.000 S 
BRANCH  18  20
ATOM     20  N   UNL     1       5.470   4.190  19.174  0.00  0.00    +0.000 N 
ATOM     21  H   UNL     1       6.108   4.538  19.881  0.00  0.00    +0.000 HD
BRANCH  20  25
ATOM     22  C   UNL     1       6.633   4.604  15.135  0.00  0.00    +0.000 A 
ATOM     23  C   UNL     1       5.343   4.200  15.480  0.00  0.00    +0.000 A 
ATOM     24  C   UNL     1       4.956   4.105  16.819  0.00  0.00    +0.000 A 
ATOM     25  C   UNL     1       5.886   4.338  17.832  0.00  0.00    +0.000 A 
ATOM     26  C   UNL     1       7.179   4.746  17.491  0.00  0.00    +0.000 A 
ATOM     27  C   UNL     1       7.548   4.894  16.147  0.00  0.00    +0.000 A 
BRANCH  22  29
ATOM     28  C   UNL     1       6.244   3.652  12.997  0.00  0.00    +0.000 C 
ATOM     29  O   UNL     1       6.895   4.636  13.793  0.00  0.00    +0.000 OA
ENDBRANCH  22  29
ENDBRANCH  20  25
ENDBRANCH  18  20
ENDBRANCH   1  18
TORSDOF 5
ENDMDL
MODEL 6
REMARK VINA RESULT:      -7.3      0.521      1.326
REMARK  Name = 
REMARK  7 active torsions:
REMARK  status: ('A' for Active; 'I' for Inactive)
REMARK    1  A    between atoms: C_1  and  O_2
REMARK    2  A    between atoms: O_2  and  C_3
REMARK    3  A    between atoms: C_6  and  N_7
REMARK    4  A    between atoms: N_7  and  C_8
REMARK    5  A    between atoms: C_8  and  N_10
REMARK    6  A    between atoms: C_14  and  C_15
REMARK    7  A    between atoms: C_19  and  C_20
REMARK                            x       y       z     vdW  Elec       q    Type
REMARK                         _______ _______ _______ _____ _____    ______ ____
ROOT
ATOM      1  N   UNL     1       2.985   3.323  19.457  0.00  0.00    +0.000 N 
ATOM      2  C   UNL     1       2.018   2.866  18.453  0.00  0.00    +0.000 C 
ATOM      3  C   UNL     1       1.960   3.874  17.305  0.00  0.00    +0.000 C 
ATOM      4  C   UNL     1       1.579   5.260  17.816  0.00  0.00    +0.000 C 
ATOM      5  C   UNL     1       2.504   5.744  18.951  0.00  0.00    +0.000 C 
ATOM      6  C   UNL     1       2.668   4.644  20.025  0.00  0.00    +0.000 C 
ENDROOT
BRANCH   5   7
ATOM      7  C   UNL     1       1.907   6.986  19.550  0.00  0.00    +0.000 A 
ATOM      8  N   UNL     1       1.733   8.127  18.915  0.00  0.00    +0.000 NA
ATOM      9  C   UNL     1       1.359   9.032  19.871  0.00  0.00    +0.000 A 
ATOM     10  C   UNL     1       1.100  10.401  19.737  0.00  0.00    +0.000 A 
ATOM     11  C   UNL     1       0.762  11.150  20.874  0.00  0.00    +0.000 A 
ATOM     12  C   UNL     1       0.494  12.621  20.744  0.00  0.00    +0.000 C 
ATOM     13  C   UNL     1       0.698  10.519  22.127  0.00  0.00    +0.000 A 
ATOM     14  C   UNL     1       0.947   9.144  22.279  0.00  0.00    +0.000 A 
ATOM     15  C   UNL     1       1.275   8.432  21.120  0.00  0.00    +0.000 A 
ATOM     16  N   UNL     1       1.586   7.114  20.882  0.00  0.00    +0.000 N 
ATOM     17  H   UNL     1       1.643   6.385  21.578  0.00  0.00    +0.000 HD
ENDBRANCH   5   7
BRANCH   1  18
ATOM     18  C   UNL     1       4.259   2.766  19.456  0.00  0.00    +0.000 C 
ATOM     19  S   UNL     1       4.944   1.945  20.744  0.00  0.00    +0.000 S 
BRANCH  18  20
ATOM     20  N   UNL     1       5.046   3.036  18.360  0.00  0.00    +0.000 N 
ATOM     21  H   UNL     1       5.002   2.355  17.611  0.00  0.00    +0.000 HD
BRANCH  20  25
ATOM     22  C   UNL     1       6.988   6.660  17.390  0.00  0.00    +0.000 A 
ATOM     23  C   UNL     1       6.150   6.020  16.477  0.00  0.00    +0.000 A 
ATOM     24  C   UNL     1       5.481   4.842  16.821  0.00  0.00    +0.000 A 
ATOM     25  C   UNL     1       5.707   4.249  18.063  0.00  0.00    +0.000 A 
ATOM     26  C   UNL     1       6.543   4.889  18.983  0.00  0.00    +0.000 A 
ATOM     27  C   UNL     1       7.170   6.099  18.654  0.00  0.00    +0.000 A 
BRANCH  22  29
ATOM     28  C   UNL     1       8.043   8.721  17.907  0.00  0.00    +0.000 C 
ATOM     29  O   UNL     1       7.602   7.790  16.925  0.00  0.00    +0.000 OA
ENDBRANCH  22  29
ENDBRANCH  20  25
ENDBRANCH  18  20
ENDBRANCH   1  18
TORSDOF 5
ENDMDL
MODEL 7
REMARK VINA RESULT:      -7.3      4.352      7.181
REMARK  Name = 
REMARK  7 active torsions:
REMARK  status: ('A' for Active; 'I' for Inactive)
REMARK    1  A    between atoms: C_1  and  O_2
REMARK    2  A    between atoms: O_2  and  C_3
REMARK    3  A    between atoms: C_6  and  N_7
REMARK    4  A    between atoms: N_7  and  C_8
REMARK    5  A    between atoms: C_8  and  N_10
REMARK    6  A    between atoms: C_14  and  C_15
REMARK    7  A    between atoms: C_19  and  C_20
REMARK                            x       y       z     vdW  Elec       q    Type
REMARK                         _______ _______ _______ _____ _____    ______ ____
ROOT
ATOM      1  N   UNL     1       7.000   5.523  16.435  0.00  0.00    +0.000 N 
ATOM      2  C   UNL     1       7.683   4.581  17.328  0.00  0.00    +0.000 C 
ATOM      3  C   UNL     1       7.470   5.008  18.780  0.00  0.00    +0.000 C 
ATOM      4  C   UNL     1       7.985   6.425  19.012  0.00  0.00    +0.000 C 
ATOM      5  C   UNL     1       7.376   7.442  18.025  0.00  0.00    +0.000 C 
ATOM      6  C   UNL     1       7.467   6.913  16.575  0.00  0.00    +0.000 C 
ENDROOT
BRANCH   5   7
ATOM      7  C   UNL     1       8.119   8.740  18.165  0.00  0.00    +0.000 A 
ATOM      8  N   UNL     1       9.002   9.012  19.105  0.00  0.00    +0.000 NA
ATOM      9  C   UNL     1       9.275  10.347  18.984  0.00  0.00    +0.000 A 
ATOM     10  C   UNL     1      10.108  11.152  19.769  0.00  0.00    +0.000 A 
ATOM     11  C   UNL     1      10.211  12.521  19.480  0.00  0.00    +0.000 A 
ATOM     12  C   UNL     1      11.093  13.396  20.322  0.00  0.00    +0.000 C 
ATOM     13  C   UNL     1       9.470  13.064  18.417  0.00  0.00    +0.000 A 
ATOM     14  C   UNL     1       8.634  12.269  17.614  0.00  0.00    +0.000 A 
ATOM     15  C   UNL     1       8.564  10.908  17.931  0.00  0.00    +0.000 A 
ATOM     16  N   UNL     1       7.867   9.852  17.395  0.00  0.00    +0.000 N 
ATOM     17  H   UNL     1       7.224   9.902  16.618  0.00  0.00    +0.000 HD
ENDBRANCH   5   7
BRANCH   1  18
ATOM     18  C   UNL     1       5.758   5.171  15.919  0.00  0.00    +0.000 C 
ATOM     19  S   UNL     1       5.514   4.423  14.441  0.00  0.00    +0.000 S 
BRANCH  18  20
ATOM     20  N   UNL     1       4.658   5.598  16.626  0.00  0.00    +0.000 N 
ATOM     21  H   UNL     1       4.234   6.459  16.300  0.00  0.00    +0.000 HD
BRANCH  20  25
ATOM     22  C   UNL     1       2.433   3.344  19.421  0.00  0.00    +0.000 A 
ATOM     23  C   UNL     1       2.548   2.939  18.091  0.00  0.00    +0.000 A 
ATOM     24  C   UNL     1       3.319   3.670  17.183  0.00  0.00    +0.000 A 
ATOM     25  C   UNL     1       3.921   4.863  17.582  0.00  0.00    +0.000 A 
ATOM     26  C   UNL     1       3.811   5.270  18.916  0.00  0.00    +0.000 A 
ATOM     27  C   UNL     1       3.082   4.506  19.837  0.00  0.00    +0.000 A 
BRANCH  22  29
ATOM     28  C   UNL     1       1.616   2.854  21.594  0.00  0.00    +0.000 C 
ATOM     29  O   UNL     1       1.632   2.557  20.203  0.00  0.00    +0.000 OA
ENDBRANCH  22  29
ENDBRANCH  20  25
ENDBRANCH  18  20
ENDBRANCH   1  18
TORSDOF 5
ENDMDL
MODEL 8
REMARK VINA RESULT:      -7.3      1.572      2.010
REMARK  Name = 
REMARK  7 active torsions:
REMARK  status: ('A' for Active; 'I' for Inactive)
REMARK    1  A    between atoms: C_1  and  O_2
REMARK    2  A    between atoms: O_2  and  C_3
REMARK    3  A    between atoms: C_6  and  N_7
REMARK    4  A    between atoms: N_7  and  C_8
REMARK    5  A    between atoms: C_8  and  N_10
REMARK    6  A    between atoms: C_14  and  C_15
REMARK    7  A    between atoms: C_19  and  C_20
REMARK                            x       y       z     vdW  Elec       q    Type
REMARK                         _______ _______ _______ _____ _____    ______ ____
ROOT
ATOM      1  N   UNL     1       4.655   4.197  18.204  0.00  0.00    +0.000 N 
ATOM      2  C   UNL     1       3.620   3.162  18.126  0.00  0.00    +0.000 C 
ATOM      3  C   UNL     1       2.428   3.691  17.329  0.00  0.00    +0.000 C 
ATOM      4  C   UNL     1       1.864   4.957  17.967  0.00  0.00    +0.000 C 
ATOM      5  C   UNL     1       2.940   6.043  18.169  0.00  0.00    +0.000 C 
ATOM      6  C   UNL     1       4.197   5.444  18.840  0.00  0.00    +0.000 C 
ENDROOT
BRANCH   5   7
ATOM      7  C   UNL     1       2.354   7.135  19.018  0.00  0.00    +0.000 A 
ATOM      8  N   UNL     1       2.003   7.009  20.282  0.00  0.00    +0.000 NA
ATOM      9  C   UNL     1       1.339   8.163  20.601  0.00  0.00    +0.000 A 
ATOM     10  C   UNL     1       0.717   8.519  21.803  0.00  0.00    +0.000 A 
ATOM     11  C   UNL     1       0.057   9.753  21.894  0.00  0.00    +0.000 A 
ATOM     12  C   UNL     1      -0.624  10.141  23.174  0.00  0.00    +0.000 C 
ATOM     13  C   UNL     1       0.022  10.606  20.778  0.00  0.00    +0.000 A 
ATOM     14  C   UNL     1       0.647  10.267  19.566  0.00  0.00    +0.000 A 
ATOM     15  C   UNL     1       1.300   9.031  19.518  0.00  0.00    +0.000 A 
ATOM     16  N   UNL     1       1.994   8.371  18.532  0.00  0.00    +0.000 N 
ATOM     17  H   UNL     1       2.145   8.705  17.592  0.00  0.00    +0.000 HD
ENDBRANCH   5   7
BRANCH   1  18
ATOM     18  C   UNL     1       5.737   4.124  17.334  0.00  0.00    +0.000 C 
ATOM     19  S   UNL     1       5.691   3.440  15.806  0.00  0.00    +0.000 S 
BRANCH  18  20
ATOM     20  N   UNL     1       6.955   4.525  17.834  0.00  0.00    +0.000 N 
ATOM     21  H   UNL     1       7.650   3.794  17.932  0.00  0.00    +0.000 HD
BRANCH  20  25
ATOM     22  C   UNL     1       8.299   8.509  18.239  0.00  0.00    +0.000 A 
ATOM     23  C   UNL     1       7.572   8.099  17.120  0.00  0.00    +0.000 A 
ATOM     24  C   UNL     1       7.098   6.788  17.014  0.00  0.00    +0.000 A 
ATOM     25  C   UNL     1       7.416   5.851  17.996  0.00  0.00    +0.000 A 
ATOM     26  C   UNL     1       8.141   6.258  19.120  0.00  0.00    +0.000 A 
ATOM     27  C   UNL     1       8.568   7.586  19.249  0.00  0.00    +0.000 A 
BRANCH  22  29
ATOM     28  C   UNL     1       9.425  10.268  19.363  0.00  0.00    +0.000 C 
ATOM     29  O   UNL     1       8.726   9.808  18.212  0.00  0.00    +0.000 OA
ENDBRANCH  22  29
ENDBRANCH  20  25
ENDBRANCH  18  20
ENDBRANCH   1  18
TORSDOF 5
ENDMDL
MODEL 9
REMARK VINA RESULT:      -7.3      1.362      1.805
REMARK  Name = 
REMARK  7 active torsions:
REMARK  status: ('A' for Active; 'I' for Inactive)
REMARK    1  A    between atoms: C_1  and  O_2
REMARK    2  A    between atoms: O_2  and  C_3
REMARK    3  A    between atoms: C_6  and  N_7
REMARK    4  A    between atoms: N_7  and  C_8
REMARK    5  A    between atoms: C_8  and  N_10
REMARK    6  A    between atoms: C_14  and  C_15
REMARK    7  A    between atoms: C_19  and  C_20
REMARK                            x       y       z     vdW  Elec       q    Type
REMARK                         _______ _______ _______ _____ _____    ______ ____
ROOT
ATOM      1  N   UNL     1       3.950   4.170  19.406  0.00  0.00    +0.000 N 
ATOM      2  C   UNL     1       3.537   3.286  20.500  0.00  0.00    +0.000 C 
ATOM      3  C   UNL     1       2.012   3.291  20.612  0.00  0.00    +0.000 C 
ATOM      4  C   UNL     1       1.487   4.704  20.845  0.00  0.00    +0.000 C 
ATOM      5  C   UNL     1       1.982   5.700  19.777  0.00  0.00    +0.000 C 
ATOM      6  C   UNL     1       3.509   5.565  19.575  0.00  0.00    +0.000 C 
ENDROOT
BRANCH   5   7
ATOM      7  C   UNL     1       1.626   7.089  20.225  0.00  0.00    +0.000 A 
ATOM      8  N   UNL     1       0.999   7.388  21.345  0.00  0.00    +0.000 NA
ATOM      9  C   UNL     1       0.701   8.721  21.260  0.00  0.00    +0.000 A 
ATOM     10  C   UNL     1      -0.004   9.527  22.161  0.00  0.00    +0.000 A 
ATOM     11  C   UNL     1      -0.224  10.876  21.848  0.00  0.00    +0.000 A 
ATOM     12  C   UNL     1      -0.989  11.747  22.802  0.00  0.00    +0.000 C 
ATOM     13  C   UNL     1       0.255  11.394  20.634  0.00  0.00    +0.000 A 
ATOM     14  C   UNL     1       0.971  10.602  19.720  0.00  0.00    +0.000 A 
ATOM     15  C   UNL     1       1.175   9.263  20.072  0.00  0.00    +0.000 A 
ATOM     16  N   UNL     1       1.802   8.211  19.449  0.00  0.00    +0.000 N 
ATOM     17  H   UNL     1       2.246   8.242  18.543  0.00  0.00    +0.000 HD
ENDBRANCH   5   7
BRANCH   1  18
ATOM     18  C   UNL     1       4.275   3.604  18.178  0.00  0.00    +0.000 C 
ATOM     19  S   UNL     1       3.300   2.542  17.328  0.00  0.00    +0.000 S 
BRANCH  18  20
ATOM     20  N   UNL     1       5.548   3.840  17.712  0.00  0.00    +0.000 N 
ATOM     21  H   UNL     1       5.907   3.157  17.054  0.00  0.00    +0.000 HD
BRANCH  20  25
ATOM     22  C   UNL     1       7.845   7.349  18.211  0.00  0.00    +0.000 A 
ATOM     23  C   UNL     1       8.004   6.252  19.059  0.00  0.00    +0.000 A 
ATOM     24  C   UNL     1       7.268   5.081  18.861  0.00  0.00    +0.000 A 
ATOM     25  C   UNL     1       6.303   5.025  17.855  0.00  0.00    +0.000 A 
ATOM     26  C   UNL     1       6.143   6.121  17.002  0.00  0.00    +0.000 A 
ATOM     27  C   UNL     1       6.922   7.274  17.169  0.00  0.00    +0.000 A 
BRANCH  22  29
ATOM     28  C   UNL     1       8.226   9.672  17.919  0.00  0.00    +0.000 C 
ATOM     29  O   UNL     1       8.606   8.442  18.524  0.00  0.00    +0.000 OA
ENDBRANCH  22  29
ENDBRANCH  20  25
ENDBRANCH  18  20
ENDBRANCH   1  18
TORSDOF 5
ENDMDL
