MODEL 1
REMARK VINA RESULT:      -7.9      0.000      0.000
REMARK  Name = 
REMARK  3 active torsions:
REMARK  status: ('A' for Active; 'I' for Inactive)
REMARK    1  A    between atoms: C_2  and  O_3
REMARK    2  A    between atoms: C_2  and  C_4
REMARK    3  A    between atoms: C_5  and  C_6
REMARK                            x       y       z     vdW  Elec       q    Type
REMARK                         _______ _______ _______ _____ _____    ______ ____
ROOT
ATOM      1  C   UNL     1       5.770   5.187  14.970  0.00  0.00    +0.000 C 
ATOM      2  O   UNL     1       5.649   6.334  14.552  0.00  0.00    +0.000 OA
ATOM      3  N   UNL     1       5.425   4.876  16.251  0.00  0.00    +0.000 N 
ATOM      4  C   UNL     1       4.637   5.868  16.963  0.00  0.00    +0.000 C 
ATOM      5  C   UNL     1       4.016   5.049  18.021  0.00  0.00    +0.000 A 
ATOM      6  C   UNL     1       2.713   4.984  18.443  0.00  0.00    +0.000 A 
ATOM      7  C   UNL     1       2.392   4.027  19.408  0.00  0.00    +0.000 A 
ATOM      8  C   UNL     1       1.062   3.779  19.767  0.00  0.00    +0.000 A 
ATOM      9  C   UNL     1       0.778   3.002  20.883  0.00  0.00    +0.000 A 
ATOM     10  C   UNL     1       1.826   2.535  21.668  0.00  0.00    +0.000 A 
ATOM     11  C   UNL     1       3.147   2.665  21.217  0.00  0.00    +0.000 A 
ATOM     12  C   UNL     1       3.443   3.303  20.016  0.00  0.00    +0.000 A 
ATOM     13  N   UNL     1       4.656   3.202  19.420  0.00  0.00    +0.000 NA
ATOM     14  C   UNL     1       4.856   4.006  18.361  0.00  0.00    +0.000 A 
ATOM     15  C   UNL     1       5.605   3.659  17.070  0.00  0.00    +0.000 C 
ENDROOT
BRANCH   1  17
ATOM     16  C   UNL     1       5.361   3.940  12.987  0.00  0.00    +0.000 C 
ATOM     17  C   UNL     1       6.186   4.120  14.035  0.00  0.00    +0.000 C 
BRANCH  16  19
ATOM     18  O   UNL     1       4.704   2.433  11.271  0.00  0.00    +0.000 OA
ATOM     19  C   UNL     1       5.581   2.898  11.977  0.00  0.00    +0.000 C 
BRANCH  19  20
ATOM     20  O   UNL     1       6.874   2.523  11.906  0.00  0.00    +0.000 OA
ATOM     21  H   UNL     1       7.097   1.876  11.197  0.00  0.00    +0.000 HD
ENDBRANCH  19  20
ENDBRANCH  16  19
ENDBRANCH   1  17
TORSDOF 3
ENDMDL
MODEL 2
REMARK VINA RESULT:      -7.7      1.504      1.948
REMARK  Name = 
REMARK  3 active torsions:
REMARK  status: ('A' for Active; 'I' for Inactive)
REMARK    1  A    between atoms: C_2  and  O_3
REMARK    2  A    between atoms: C_2  and  C_4
REMARK    3  A    between atoms: C_5  and  C_6
REMARK                            x       y       z     vdW  Elec       q    Type
REMARK                         _______ _______ _______ _____ _____    ______ ____
ROOT
ATOM      1  C   UNL     1       7.082   4.693  14.264  0.00  0.00    +0.000 C 
ATOM      2  O   UNL     1       7.827   5.615  13.948  0.00  0.00    +0.000 OA
ATOM      3  N   UNL     1       6.551   4.629  15.518  0.00  0.00    +0.000 N 
ATOM      4  C   UNL     1       6.655   5.835  16.321  0.00  0.00    +0.000 C 
ATOM      5  C   UNL     1       5.583   5.625  17.311  0.00  0.00    +0.000 A 
ATOM      6  C   UNL     1       4.593   6.470  17.742  0.00  0.00    +0.000 A 
ATOM      7  C   UNL     1       3.640   5.957  18.624  0.00  0.00    +0.000 A 
ATOM      8  C   UNL     1       2.506   6.697  18.976  0.00  0.00    +0.000 A 
ATOM      9  C   UNL     1       1.698   6.274  20.024  0.00  0.00    +0.000 A 
ATOM     10  C   UNL     1       2.069   5.150  20.753  0.00  0.00    +0.000 A 
ATOM     11  C   UNL     1       3.118   4.339  20.300  0.00  0.00    +0.000 A 
ATOM     12  C   UNL     1       3.841   4.662  19.155  0.00  0.00    +0.000 A 
ATOM     13  N   UNL     1       4.659   3.775  18.539  0.00  0.00    +0.000 NA
ATOM     14  C   UNL     1       5.423   4.273  17.551  0.00  0.00    +0.000 A 
ATOM     15  C   UNL     1       5.777   3.589  16.226  0.00  0.00    +0.000 C 
ENDROOT
BRANCH   1  17
ATOM     16  C   UNL     1       5.449   3.921  12.717  0.00  0.00    +0.000 C 
ATOM     17  C   UNL     1       6.673   3.712  13.235  0.00  0.00    +0.000 C 
BRANCH  16  19
ATOM     18  O   UNL     1       3.833   3.281  11.097  0.00  0.00    +0.000 OA
ATOM     19  C   UNL     1       4.849   3.028  11.719  0.00  0.00    +0.000 C 
BRANCH  19  20
ATOM     20  O   UNL     1       5.565   1.897  11.554  0.00  0.00    +0.000 OA
ATOM     21  H   UNL     1       6.145   1.867  10.757  0.00  0.00    +0.000 HD
ENDBRANCH  19  20
ENDBRANCH  16  19
ENDBRANCH   1  17
TORSDOF 3
ENDMDL
MODEL 3
REMARK VINA RESULT:      -7.7      3.068      5.016
REMARK  Name = 
REMARK  3 active torsions:
REMARK  status: ('A' for Active; 'I' for Inactive)
REMARK    1  A    between atoms: C_2  and  O_3
REMARK    2  A    between atoms: C_2  and  C_4
REMARK    3  A    between atoms: C_5  and  C_6
REMARK                            x       y       z     vdW  Elec       q    Type
REMARK                         _______ _______ _______ _____ _____    ______ ____
ROOT
ATOM      1  C   UNL     1       6.870   6.850  16.932  0.00  0.00    +0.000 C 
ATOM      2  O   UNL     1       7.771   6.243  16.363  0.00  0.00    +0.000 OA
ATOM      3  N   UNL     1       5.709   6.216  17.262  0.00  0.00    +0.000 N 
ATOM      4  C   UNL     1       5.728   4.766  17.195  0.00  0.00    +0.000 C 
ATOM      5  C   UNL     1       4.600   4.412  18.077  0.00  0.00    +0.000 A 
ATOM      6  C   UNL     1       4.520   3.494  19.092  0.00  0.00    +0.000 A 
ATOM      7  C   UNL     1       3.337   3.450  19.834  0.00  0.00    +0.000 A 
ATOM      8  C   UNL     1       3.236   2.666  20.989  0.00  0.00    +0.000 A 
ATOM      9  C   UNL     1       1.996   2.452  21.576  0.00  0.00    +0.000 A 
ATOM     10  C   UNL     1       0.859   2.969  20.965  0.00  0.00    +0.000 A 
ATOM     11  C   UNL     1       0.989   3.870  19.900  0.00  0.00    +0.000 A 
ATOM     12  C   UNL     1       2.238   4.224  19.397  0.00  0.00    +0.000 A 
ATOM     13  N   UNL     1       2.415   5.284  18.573  0.00  0.00    +0.000 NA
ATOM     14  C   UNL     1       3.639   5.404  18.029  0.00  0.00    +0.000 A 
ATOM     15  C   UNL     1       4.417   6.702  17.789  0.00  0.00    +0.000 C 
ENDROOT
BRANCH   1  17
ATOM     16  C   UNL     1       8.300   8.471  17.924  0.00  0.00    +0.000 C 
ATOM     17  C   UNL     1       7.099   8.247  17.360  0.00  0.00    +0.000 C 
BRANCH  16  19
ATOM     18  O   UNL     1       8.500  10.838  17.880  0.00  0.00    +0.000 OA
ATOM     19  C   UNL     1       8.694   9.781  18.454  0.00  0.00    +0.000 C 
BRANCH  19  20
ATOM     20  O   UNL     1       9.283   9.684  19.663  0.00  0.00    +0.000 OA
ATOM     21  H   UNL     1       9.829   8.877  19.813  0.00  0.00    +0.000 HD
ENDBRANCH  19  20
ENDBRANCH  16  19
ENDBRANCH   1  17
TORSDOF 3
ENDMDL
MODEL 4
REMARK VINA RESULT:      -7.5      1.152      1.285
REMARK  Name = 
REMARK  3 active torsions:
REMARK  status: ('A' for Active; 'I' for Inactive)
REMARK    1  A    between atoms: C_2  and  O_3
REMARK    2  A    between atoms: C_2  and  C_4
REMARK    3  A    between atoms: C_5  and  C_6
REMARK                            x       y       z     vdW  Elec       q    Type
REMARK                         _______ _______ _______ _____ _____    ______ ____
ROOT
ATOM      1  C   UNL     1       6.815   5.113  15.240  0.00  0.00    +0.000 C 
ATOM      2  O   UNL     1       7.714   5.918  15.458  0.00  0.00    +0.000 OA
ATOM      3  N   UNL     1       6.131   4.542  16.272  0.00  0.00    +0.000 N 
ATOM      4  C   UNL     1       6.303   5.158  17.576  0.00  0.00    +0.000 C 
ATOM      5  C   UNL     1       5.099   4.690  18.287  0.00  0.00    +0.000 A 
ATOM      6  C   UNL     1       4.192   5.382  19.048  0.00  0.00    +0.000 A 
ATOM      7  C   UNL     1       3.076   4.686  19.518  0.00  0.00    +0.000 A 
ATOM      8  C   UNL     1       2.022   5.352  20.153  0.00  0.00    +0.000 A 
ATOM      9  C   UNL     1       1.041   4.626  20.816  0.00  0.00    +0.000 A 
ATOM     10  C   UNL     1       1.159   3.243  20.895  0.00  0.00    +0.000 A 
ATOM     11  C   UNL     1       2.132   2.582  20.133  0.00  0.00    +0.000 A 
ATOM     12  C   UNL     1       3.028   3.285  19.332  0.00  0.00    +0.000 A 
ATOM     13  N   UNL     1       3.783   2.681  18.384  0.00  0.00    +0.000 NA
ATOM     14  C   UNL     1       4.724   3.449  17.808  0.00  0.00    +0.000 A 
ATOM     15  C   UNL     1       5.138   3.449  16.333  0.00  0.00    +0.000 C 
ENDROOT
BRANCH   1  17
ATOM     16  C   UNL     1       6.235   3.553  13.541  0.00  0.00    +0.000 C 
ATOM     17  C   UNL     1       6.402   4.853  13.844  0.00  0.00    +0.000 C 
BRANCH  16  19
ATOM     18  O   UNL     1       4.818   3.353  11.645  0.00  0.00    +0.000 OA
ATOM     19  C   UNL     1       5.873   3.094  12.196  0.00  0.00    +0.000 C 
BRANCH  19  20
ATOM     20  O   UNL     1       6.853   2.362  11.627  0.00  0.00    +0.000 OA
ATOM     21  H   UNL     1       7.367   2.810  10.914  0.00  0.00    +0.000 HD
ENDBRANCH  19  20
ENDBRANCH  16  19
ENDBRANCH   1  17
TORSDOF 3
ENDMDL
MODEL 5
REMARK VINA RESULT:      -7.5      5.311      7.117
REMARK  Name = 
REMARK  3 active torsions:
REMARK  status: ('A' for Active; 'I' for Inactive)
REMARK    1  A    between atoms: C_2  and  O_3
REMARK    2  A    between atoms: C_2  and  C_4
REMARK    3  A    between atoms: C_5  and  C_6
REMARK                            x       y       z     vdW  Elec       q    Type
REMARK                         _______ _______ _______ _____ _____    ______ ____
ROOT
ATOM      1  C   UNL     1       0.770   9.951  19.670  0.00  0.00    +0.000 C 
ATOM      2  O   UNL     1       0.616  10.400  20.801  0.00  0.00    +0.000 OA
ATOM      3  N   UNL     1       1.473   8.801  19.470  0.00  0.00    +0.000 N 
ATOM      4  C   UNL     1       1.741   7.999  20.652  0.00  0.00    +0.000 C 
ATOM      5  C   UNL     1       1.998   6.674  20.059  0.00  0.00    +0.000 A 
ATOM      6  C   UNL     1       1.511   5.438  20.400  0.00  0.00    +0.000 A 
ATOM      7  C   UNL     1       1.852   4.358  19.583  0.00  0.00    +0.000 A 
ATOM      8  C   UNL     1       1.261   3.102  19.760  0.00  0.00    +0.000 A 
ATOM      9  C   UNL     1       1.778   1.994  19.100  0.00  0.00    +0.000 A 
ATOM     10  C   UNL     1       2.920   2.140  18.322  0.00  0.00    +0.000 A 
ATOM     11  C   UNL     1       3.410   3.422  18.037  0.00  0.00    +0.000 A 
ATOM     12  C   UNL     1       2.807   4.562  18.561  0.00  0.00    +0.000 A 
ATOM     13  N   UNL     1       3.073   5.805  18.092  0.00  0.00    +0.000 NA
ATOM     14  C   UNL     1       2.554   6.821  18.803  0.00  0.00    +0.000 A 
ATOM     15  C   UNL     1       1.954   8.119  18.251  0.00  0.00    +0.000 C 
ENDROOT
BRANCH   1  17
ATOM     16  C   UNL     1      -1.167  10.178  18.308  0.00  0.00    +0.000 C 
ATOM     17  C   UNL     1       0.088  10.609  18.534  0.00  0.00    +0.000 C 
BRANCH  16  19
ATOM     18  O   UNL     1      -2.813  10.009  16.604  0.00  0.00    +0.000 OA
ATOM     19  C   UNL     1      -1.988  10.677  17.199  0.00  0.00    +0.000 C 
BRANCH  19  20
ATOM     20  O   UNL     1      -1.735  11.973  16.923  0.00  0.00    +0.000 OA
ATOM     21  H   UNL     1      -1.336  12.155  16.040  0.00  0.00    +0.000 HD
ENDBRANCH  19  20
ENDBRANCH  16  19
ENDBRANCH   1  17
TORSDOF 3
ENDMDL
MODEL 6
REMARK VINA RESULT:      -7.4      5.301      7.485
REMARK  Name = 
REMARK  3 active torsions:
REMARK  status: ('A' for Active; 'I' for Inactive)
REMARK    1  A    between atoms: C_2  and  O_3
REMARK    2  A    between atoms: C_2  and  C_4
REMARK    3  A    between atoms: C_5  and  C_6
REMARK                            x       y       z     vdW  Elec       q    Type
REMARK                         _______ _______ _______ _____ _____    ______ ____
ROOT
ATOM      1  C   UNL     1       0.175  10.037  19.562  0.00  0.00    +0.000 C 
ATOM      2  O   UNL     1      -0.174  10.112  20.736  0.00  0.00    +0.000 OA
ATOM      3  N   UNL     1       1.210   9.228  19.198  0.00  0.00    +0.000 N 
ATOM      4  C   UNL     1       1.645   8.258  20.187  0.00  0.00    +0.000 C 
ATOM      5  C   UNL     1       2.334   7.262  19.345  0.00  0.00    +0.000 A 
ATOM      6  C   UNL     1       2.234   5.895  19.324  0.00  0.00    +0.000 A 
ATOM      7  C   UNL     1       2.938   5.209  18.332  0.00  0.00    +0.000 A 
ATOM      8  C   UNL     1       2.757   3.835  18.134  0.00  0.00    +0.000 A 
ATOM      9  C   UNL     1       3.628   3.132  17.311  0.00  0.00    +0.000 A 
ATOM     10  C   UNL     1       4.711   3.795  16.746  0.00  0.00    +0.000 A 
ATOM     11  C   UNL     1       4.795   5.192  16.832  0.00  0.00    +0.000 A 
ATOM     12  C   UNL     1       3.840   5.935  17.521  0.00  0.00    +0.000 A 
ATOM     13  N   UNL     1       3.734   7.279  17.390  0.00  0.00    +0.000 NA
ATOM     14  C   UNL     1       2.886   7.884  18.241  0.00  0.00    +0.000 A 
ATOM     15  C   UNL     1       1.946   9.053  17.929  0.00  0.00    +0.000 C 
ENDROOT
BRANCH   1  17
ATOM     16  C   UNL     1      -1.494   9.971  17.869  0.00  0.00    +0.000 C 
ATOM     17  C   UNL     1      -0.612  10.744  18.529  0.00  0.00    +0.000 C 
BRANCH  16  19
ATOM     18  O   UNL     1      -3.237   9.852  16.259  0.00  0.00    +0.000 OA
ATOM     19  C   UNL     1      -2.332  10.480  16.778  0.00  0.00    +0.000 C 
BRANCH  19  20
ATOM     20  O   UNL     1      -1.997  11.738  16.424  0.00  0.00    +0.000 OA
ATOM     21  H   UNL     1      -1.606  11.843  15.525  0.00  0.00    +0.000 HD
ENDBRANCH  19  20
ENDBRANCH  16  19
ENDBRANCH   1  17
TORSDOF 3
ENDMDL
MODEL 7
REMARK VINA RESULT:      -7.4      3.322      5.189
REMARK  Name = 
REMARK  3 active torsions:
REMARK  status: ('A' for Active; 'I' for Inactive)
REMARK    1  A    between atoms: C_2  and  O_3
REMARK    2  A    between atoms: C_2  and  C_4
REMARK    3  A    between atoms: C_5  and  C_6
REMARK                            x       y       z     vdW  Elec       q    Type
REMARK                         _______ _______ _______ _____ _____    ______ ____
ROOT
ATOM      1  C   UNL     1       7.248   6.904  16.867  0.00  0.00    +0.000 C 
ATOM      2  O   UNL     1       7.936   6.583  15.904  0.00  0.00    +0.000 OA
ATOM      3  N   UNL     1       5.983   6.414  17.010  0.00  0.00    +0.000 N 
ATOM      4  C   UNL     1       5.632   5.288  16.163  0.00  0.00    +0.000 C 
ATOM      5  C   UNL     1       4.499   4.702  16.904  0.00  0.00    +0.000 A 
ATOM      6  C   UNL     1       4.243   3.401  17.251  0.00  0.00    +0.000 A 
ATOM      7  C   UNL     1       3.128   3.152  18.055  0.00  0.00    +0.000 A 
ATOM      8  C   UNL     1       2.893   1.882  18.594  0.00  0.00    +0.000 A 
ATOM      9  C   UNL     1       1.671   1.596  19.189  0.00  0.00    +0.000 A 
ATOM     10  C   UNL     1       0.671   2.562  19.181  0.00  0.00    +0.000 A 
ATOM     11  C   UNL     1       0.968   3.870  18.773  0.00  0.00    +0.000 A 
ATOM     12  C   UNL     1       2.238   4.217  18.322  0.00  0.00    +0.000 A 
ATOM     13  N   UNL     1       2.634   5.507  18.189  0.00  0.00    +0.000 NA
ATOM     14  C   UNL     1       3.818   5.695  17.582  0.00  0.00    +0.000 A 
ATOM     15  C   UNL     1       4.885   6.733  17.945  0.00  0.00    +0.000 C 
ENDROOT
BRANCH   1  17
ATOM     16  C   UNL     1       8.113   9.006  17.569  0.00  0.00    +0.000 C 
ATOM     17  C   UNL     1       7.843   7.738  17.933  0.00  0.00    +0.000 C 
BRANCH  16  19
ATOM     18  O   UNL     1       8.869  11.158  18.232  0.00  0.00    +0.000 OA
ATOM     19  C   UNL     1       8.748   9.971  18.473  0.00  0.00    +0.000 C 
BRANCH  19  20
ATOM     20  O   UNL     1       9.169   9.394  19.618  0.00  0.00    +0.000 OA
ATOM     21  H   UNL     1       8.541   9.432  20.376  0.00  0.00    +0.000 HD
ENDBRANCH  19  20
ENDBRANCH  16  19
ENDBRANCH   1  17
TORSDOF 3
ENDMDL
MODEL 8
REMARK VINA RESULT:      -7.3      5.019      6.362
REMARK  Name = 
REMARK  3 active torsions:
REMARK  status: ('A' for Active; 'I' for Inactive)
REMARK    1  A    between atoms: C_2  and  O_3
REMARK    2  A    between atoms: C_2  and  C_4
REMARK    3  A    between atoms: C_5  and  C_6
REMARK                            x       y       z     vdW  Elec       q    Type
REMARK                         _______ _______ _______ _____ _____    ______ ____
ROOT
ATOM      1  C   UNL     1       3.684   5.291  17.798  0.00  0.00    +0.000 C 
ATOM      2  O   UNL     1       4.413   5.404  16.818  0.00  0.00    +0.000 OA
ATOM      3  N   UNL     1       3.168   6.395  18.408  0.00  0.00    +0.000 N 
ATOM      4  C   UNL     1       3.266   7.642  17.670  0.00  0.00    +0.000 C 
ATOM      5  C   UNL     1       2.207   8.448  18.306  0.00  0.00    +0.000 A 
ATOM      6  C   UNL     1       1.212   9.207  17.747  0.00  0.00    +0.000 A 
ATOM      7  C   UNL     1       0.275   9.783  18.608  0.00  0.00    +0.000 A 
ATOM      8  C   UNL     1      -0.864  10.426  18.113  0.00  0.00    +0.000 A 
ATOM      9  C   UNL     1      -1.655  11.190  18.962  0.00  0.00    +0.000 A 
ATOM     10  C   UNL     1      -1.262  11.358  20.285  0.00  0.00    +0.000 A 
ATOM     11  C   UNL     1      -0.207  10.592  20.801  0.00  0.00    +0.000 A 
ATOM     12  C   UNL     1       0.498   9.698  20.002  0.00  0.00    +0.000 A 
ATOM     13  N   UNL     1       1.321   8.754  20.520  0.00  0.00    +0.000 NA
ATOM     14  C   UNL     1       2.067   8.077  19.630  0.00  0.00    +0.000 A 
ATOM     15  C   UNL     1       2.415   6.585  19.665  0.00  0.00    +0.000 C 
ENDROOT
BRANCH   1  17
ATOM     16  C   UNL     1       1.984   3.642  18.013  0.00  0.00    +0.000 C 
ATOM     17  C   UNL     1       3.277   3.941  18.241  0.00  0.00    +0.000 C 
BRANCH  16  19
ATOM     18  O   UNL     1       0.182   2.172  18.501  0.00  0.00    +0.000 OA
ATOM     19  C   UNL     1       1.381   2.369  18.425  0.00  0.00    +0.000 C 
BRANCH  19  20
ATOM     20  O   UNL     1       2.311   1.430  18.693  0.00  0.00    +0.000 OA
ATOM     21  H   UNL     1       3.249   1.731  18.661  0.00  0.00    +0.000 HD
ENDBRANCH  19  20
ENDBRANCH  16  19
ENDBRANCH   1  17
TORSDOF 3
ENDMDL
MODEL 9
REMARK VINA RESULT:      -7.2      5.573      7.674
REMARK  Name = 
REMARK  3 active torsions:
REMARK  status: ('A' for Active; 'I' for Inactive)
REMARK    1  A    between atoms: C_2  and  O_3
REMARK    2  A    between atoms: C_2  and  C_4
REMARK    3  A    between atoms: C_5  and  C_6
REMARK                            x       y       z     vdW  Elec       q    Type
REMARK                         _______ _______ _______ _____ _____    ______ ____
ROOT
ATOM      1  C   UNL     1       0.844   9.981  20.076  0.00  0.00    +0.000 C 
ATOM      2  O   UNL     1       0.649  10.319  21.238  0.00  0.00    +0.000 OA
ATOM      3  N   UNL     1       1.503   8.821  19.793  0.00  0.00    +0.000 N 
ATOM      4  C   UNL     1       1.669   7.891  20.896  0.00  0.00    +0.000 C 
ATOM      5  C   UNL     1       1.896   6.621  20.182  0.00  0.00    +0.000 A 
ATOM      6  C   UNL     1       1.334   5.385  20.369  0.00  0.00    +0.000 A 
ATOM      7  C   UNL     1       1.669   4.377  19.462  0.00  0.00    +0.000 A 
ATOM      8  C   UNL     1       1.013   3.141  19.477  0.00  0.00    +0.000 A 
ATOM      9  C   UNL     1       1.513   2.080  18.733  0.00  0.00    +0.000 A 
ATOM     10  C   UNL     1       2.701   2.245  18.031  0.00  0.00    +0.000 A 
ATOM     11  C   UNL     1       3.264   3.523  17.905  0.00  0.00    +0.000 A 
ATOM     12  C   UNL     1       2.687   4.633  18.515  0.00  0.00    +0.000 A 
ATOM     13  N   UNL     1       3.035   5.902  18.191  0.00  0.00    +0.000 NA
ATOM     14  C   UNL     1       2.526   6.866  18.977  0.00  0.00    +0.000 A 
ATOM     15  C   UNL     1       2.017   8.242  18.534  0.00  0.00    +0.000 C 
ENDROOT
BRANCH   1  17
ATOM     16  C   UNL     1       0.056  12.081  19.284  0.00  0.00    +0.000 C 
ATOM     17  C   UNL     1       0.256  10.784  18.982  0.00  0.00    +0.000 C 
BRANCH  16  19
ATOM     18  O   UNL     1      -0.338  14.223  18.336  0.00  0.00    +0.000 OA
ATOM     19  C   UNL     1      -0.560  13.026  18.346  0.00  0.00    +0.000 C 
BRANCH  19  20
ATOM     20  O   UNL     1      -1.393  12.412  17.480  0.00  0.00    +0.000 OA
ATOM     21  H   UNL     1      -2.296  12.800  17.403  0.00  0.00    +0.000 HD
ENDBRANCH  19  20
ENDBRANCH  16  19
ENDBRANCH   1  17
TORSDOF 3
ENDMDL
