MODEL 1
REMARK VINA RESULT:      -9.1      0.000      0.000
REMARK  Name = 
REMARK  5 active torsions:
REMARK  status: ('A' for Active; 'I' for Inactive)
REMARK    1  A    between atoms: C_1  and  C_2
REMARK    2  A    between atoms: C_3  and  C_4
REMARK    3  A    between atoms: N_6  and  C_7
REMARK    4  A    between atoms: C_14  and  C_15
REMARK    5  A    between atoms: C_18  and  C_19
REMARK                            x       y       z     vdW  Elec       q    Type
REMARK                         _______ _______ _______ _____ _____    ______ ____
ROOT
ATOM      1  C   UNL     1       1.342   3.341  20.914  0.00  0.00    +0.000 C 
ATOM      2  C   UNL     1       2.765   3.361  20.412  0.00  0.00    +0.000 C 
ATOM      3  C   UNL     1       3.392   4.296  19.655  0.00  0.00    +0.000 C 
ATOM      4  C   UNL     1       4.870   4.139  19.348  0.00  0.00    +0.000 C 
ATOM      5  N   UNL     1       5.363   2.814  19.663  0.00  0.00    +0.000 N 
ATOM      6  C   UNL     1       4.745   1.936  20.477  0.00  0.00    +0.000 C 
ATOM      7  O   UNL     1       5.288   0.901  20.842  0.00  0.00    +0.000 OA
ATOM      8  N   UNL     1       3.476   2.255  20.836  0.00  0.00    +0.000 N 
ATOM      9  H   UNL     1       6.303   2.554  19.397  0.00  0.00    +0.000 HD
ATOM     10  H   UNL     1       3.022   1.555  21.409  0.00  0.00    +0.000 HD
ENDROOT
BRANCH   4  11
ATOM     11  C   UNL     1       5.338   4.432  17.929  0.00  0.00    +0.000 A 
ATOM     12  C   UNL     1       6.409   5.320  17.728  0.00  0.00    +0.000 A 
ATOM     13  C   UNL     1       6.896   5.573  16.447  0.00  0.00    +0.000 A 
ATOM     14  C   UNL     1       6.324   4.944  15.337  0.00  0.00    +0.000 A 
ATOM     15  C   UNL     1       6.865   5.168  13.958  0.00  0.00    +0.000 C 
ATOM     16  C   UNL     1       5.250   4.066  15.531  0.00  0.00    +0.000 A 
ATOM     17  C   UNL     1       4.775   3.795  16.813  0.00  0.00    +0.000 A 
ENDBRANCH   4  11
BRANCH   3  18
ATOM     18  C   UNL     1       2.626   5.504  19.159  0.00  0.00    +0.000 C 
ATOM     19  O   UNL     1       2.037   5.464  18.079  0.00  0.00    +0.000 OA
ATOM     20  N   UNL     1       2.729   6.679  19.893  0.00  0.00    +0.000 N 
ATOM     21  H   UNL     1       3.579   6.824  20.411  0.00  0.00    +0.000 HD
BRANCH  20  22
ATOM     22  C   UNL     1       2.133   7.875  19.411  0.00  0.00    +0.000 A 
ATOM     23  C   UNL     1       2.508   8.314  18.133  0.00  0.00    +0.000 A 
ATOM     24  C   UNL     1       1.911   9.447  17.573  0.00  0.00    +0.000 A 
ATOM     25  C   UNL     1       0.970  10.175  18.299  0.00  0.00    +0.000 A 
ATOM     26  C   UNL     1       0.630   9.776  19.593  0.00  0.00    +0.000 A 
ATOM     27  C   UNL     1       1.207   8.630  20.152  0.00  0.00    +0.000 A 
ATOM     28 CL   UNL     1       0.849   8.285  21.810  0.00  0.00    +0.000 Cl
ENDBRANCH  20  22
ENDBRANCH   3  18
TORSDOF 3
ENDMDL
MODEL 2
REMARK VINA RESULT:      -9.0      1.127      1.482
REMARK  Name = 
REMARK  5 active torsions:
REMARK  status: ('A' for Active; 'I' for Inactive)
REMARK    1  A    between atoms: C_1  and  C_2
REMARK    2  A    between atoms: C_3  and  C_4
REMARK    3  A    between atoms: N_6  and  C_7
REMARK    4  A    between atoms: C_14  and  C_15
REMARK    5  A    between atoms: C_18  and  C_19
REMARK                            x       y       z     vdW  Elec       q    Type
REMARK                         _______ _______ _______ _____ _____    ______ ____
ROOT
ATOM      1  C   UNL     1       1.363   3.198  21.047  0.00  0.00    +0.000 C 
ATOM      2  C   UNL     1       2.778   3.244  20.523  0.00  0.00    +0.000 C 
ATOM      3  C   UNL     1       3.376   4.192  19.758  0.00  0.00    +0.000 C 
ATOM      4  C   UNL     1       4.852   4.062  19.428  0.00  0.00    +0.000 C 
ATOM      5  N   UNL     1       5.373   2.746  19.732  0.00  0.00    +0.000 N 
ATOM      6  C   UNL     1       4.783   1.855  20.554  0.00  0.00    +0.000 C 
ATOM      7  O   UNL     1       5.351   0.829  20.908  0.00  0.00    +0.000 OA
ATOM      8  N   UNL     1       3.515   2.150  20.933  0.00  0.00    +0.000 N 
ATOM      9  H   UNL     1       6.314   2.502  19.450  0.00  0.00    +0.000 HD
ATOM     10  H   UNL     1       3.083   1.440  21.512  0.00  0.00    +0.000 HD
ENDROOT
BRANCH   4  11
ATOM     11  C   UNL     1       5.292   4.366  18.002  0.00  0.00    +0.000 A 
ATOM     12  C   UNL     1       6.370   5.243  17.789  0.00  0.00    +0.000 A 
ATOM     13  C   UNL     1       6.832   5.505  16.500  0.00  0.00    +0.000 A 
ATOM     14  C   UNL     1       6.228   4.897  15.396  0.00  0.00    +0.000 A 
ATOM     15  C   UNL     1       6.741   5.132  14.008  0.00  0.00    +0.000 C 
ATOM     16  C   UNL     1       5.148   4.031  15.602  0.00  0.00    +0.000 A 
ATOM     17  C   UNL     1       4.697   3.750  16.892  0.00  0.00    +0.000 A 
ENDBRANCH   4  11
BRANCH   3  18
ATOM     18  C   UNL     1       2.581   5.387  19.277  0.00  0.00    +0.000 C 
ATOM     19  O   UNL     1       1.826   5.281  18.311  0.00  0.00    +0.000 OA
ATOM     20  N   UNL     1       2.838   6.615  19.873  0.00  0.00    +0.000 N 
ATOM     21  H   UNL     1       3.765   6.764  20.237  0.00  0.00    +0.000 HD
BRANCH  20  22
ATOM     22  C   UNL     1       2.214   7.791  19.380  0.00  0.00    +0.000 A 
ATOM     23  C   UNL     1       1.205   8.366  20.167  0.00  0.00    +0.000 A 
ATOM     24  C   UNL     1       0.596   9.560  19.771  0.00  0.00    +0.000 A 
ATOM     25  C   UNL     1       0.955  10.165  18.567  0.00  0.00    +0.000 A 
ATOM     26  C   UNL     1       1.919   9.571  17.751  0.00  0.00    +0.000 A 
ATOM     27  C   UNL     1       2.550   8.388  18.152  0.00  0.00    +0.000 A 
ATOM     28 CL   UNL     1       3.623   7.635  17.022  0.00  0.00    +0.000 Cl
ENDBRANCH  20  22
ENDBRANCH   3  18
TORSDOF 3
ENDMDL
MODEL 3
REMARK VINA RESULT:      -7.4      1.503      1.880
REMARK  Name = 
REMARK  5 active torsions:
REMARK  status: ('A' for Active; 'I' for Inactive)
REMARK    1  A    between atoms: C_1  and  C_2
REMARK    2  A    between atoms: C_3  and  C_4
REMARK    3  A    between atoms: N_6  and  C_7
REMARK    4  A    between atoms: C_14  and  C_15
REMARK    5  A    between atoms: C_18  and  C_19
REMARK                            x       y       z     vdW  Elec       q    Type
REMARK                         _______ _______ _______ _____ _____    ______ ____
ROOT
ATOM      1  C   UNL     1       1.029   2.848  18.603  0.00  0.00    +0.000 C 
ATOM      2  C   UNL     1       2.459   3.104  19.011  0.00  0.00    +0.000 C 
ATOM      3  C   UNL     1       3.107   4.288  19.160  0.00  0.00    +0.000 C 
ATOM      4  C   UNL     1       4.536   4.296  19.673  0.00  0.00    +0.000 C 
ATOM      5  N   UNL     1       5.140   2.980  19.650  0.00  0.00    +0.000 N 
ATOM      6  C   UNL     1       4.457   1.821  19.571  0.00  0.00    +0.000 C 
ATOM      7  O   UNL     1       5.005   0.737  19.727  0.00  0.00    +0.000 OA
ATOM      8  N   UNL     1       3.138   1.931  19.275  0.00  0.00    +0.000 N 
ATOM      9  H   UNL     1       6.124   2.877  19.860  0.00  0.00    +0.000 HD
ATOM     10  H   UNL     1       2.663   1.042  19.176  0.00  0.00    +0.000 HD
ENDROOT
BRANCH   4  11
ATOM     11  C   UNL     1       5.531   5.224  18.990  0.00  0.00    +0.000 A 
ATOM     12  C   UNL     1       5.132   5.936  17.846  0.00  0.00    +0.000 A 
ATOM     13  C   UNL     1       5.999   6.833  17.223  0.00  0.00    +0.000 A 
ATOM     14  C   UNL     1       7.285   7.038  17.731  0.00  0.00    +0.000 A 
ATOM     15  C   UNL     1       8.214   8.032  17.103  0.00  0.00    +0.000 C 
ATOM     16  C   UNL     1       7.691   6.324  18.865  0.00  0.00    +0.000 A 
ATOM     17  C   UNL     1       6.818   5.442  19.502  0.00  0.00    +0.000 A 
ENDBRANCH   4  11
BRANCH   3  18
ATOM     18  C   UNL     1       2.390   5.585  18.853  0.00  0.00    +0.000 C 
ATOM     19  O   UNL     1       1.753   5.710  17.809  0.00  0.00    +0.000 OA
ATOM     20  N   UNL     1       2.592   6.653  19.719  0.00  0.00    +0.000 N 
ATOM     21  H   UNL     1       3.471   6.689  20.207  0.00  0.00    +0.000 HD
BRANCH  20  22
ATOM     22  C   UNL     1       2.046   7.928  19.416  0.00  0.00    +0.000 A 
ATOM     23  C   UNL     1       2.365   8.490  18.171  0.00  0.00    +0.000 A 
ATOM     24  C   UNL     1       1.808   9.712  17.785  0.00  0.00    +0.000 A 
ATOM     25  C   UNL     1       0.964  10.403  18.653  0.00  0.00    +0.000 A 
ATOM     26  C   UNL     1       0.684   9.879  19.915  0.00  0.00    +0.000 A 
ATOM     27  C   UNL     1       1.220   8.644  20.301  0.00  0.00    +0.000 A 
ATOM     28 CL   UNL     1       0.948   8.132  21.931  0.00  0.00    +0.000 Cl
ENDBRANCH  20  22
ENDBRANCH   3  18
TORSDOF 3
ENDMDL
MODEL 4
REMARK VINA RESULT:      -7.3      2.149      5.437
REMARK  Name = 
REMARK  5 active torsions:
REMARK  status: ('A' for Active; 'I' for Inactive)
REMARK    1  A    between atoms: C_1  and  C_2
REMARK    2  A    between atoms: C_3  and  C_4
REMARK    3  A    between atoms: N_6  and  C_7
REMARK    4  A    between atoms: C_14  and  C_15
REMARK    5  A    between atoms: C_18  and  C_19
REMARK                            x       y       z     vdW  Elec       q    Type
REMARK                         _______ _______ _______ _____ _____    ______ ____
ROOT
ATOM      1  C   UNL     1       5.112   1.652  20.749  0.00  0.00    +0.000 C 
ATOM      2  C   UNL     1       3.867   2.480  20.551  0.00  0.00    +0.000 C 
ATOM      3  C   UNL     1       3.597   3.404  19.594  0.00  0.00    +0.000 C 
ATOM      4  C   UNL     1       2.223   4.048  19.546  0.00  0.00    +0.000 C 
ATOM      5  N   UNL     1       1.456   3.806  20.749  0.00  0.00    +0.000 N 
ATOM      6  C   UNL     1       1.714   2.832  21.644  0.00  0.00    +0.000 C 
ATOM      7  O   UNL     1       0.935   2.564  22.551  0.00  0.00    +0.000 OA
ATOM      8  N   UNL     1       2.901   2.193  21.496  0.00  0.00    +0.000 N 
ATOM      9  H   UNL     1       0.572   4.279  20.883  0.00  0.00    +0.000 HD
ATOM     10  H   UNL     1       3.087   1.499  22.210  0.00  0.00    +0.000 HD
ENDROOT
BRANCH   4  11
ATOM     11  C   UNL     1       2.150   5.550  19.300  0.00  0.00    +0.000 A 
ATOM     12  C   UNL     1       2.110   6.027  17.978  0.00  0.00    +0.000 A 
ATOM     13  C   UNL     1       1.992   7.391  17.715  0.00  0.00    +0.000 A 
ATOM     14  C   UNL     1       1.912   8.308  18.767  0.00  0.00    +0.000 A 
ATOM     15  C   UNL     1       1.739   9.773  18.502  0.00  0.00    +0.000 C 
ATOM     16  C   UNL     1       1.962   7.839  20.085  0.00  0.00    +0.000 A 
ATOM     17  C   UNL     1       2.058   6.473  20.351  0.00  0.00    +0.000 A 
ENDBRANCH   4  11
BRANCH   3  18
ATOM     18  C   UNL     1       4.649   3.752  18.563  0.00  0.00    +0.000 C 
ATOM     19  O   UNL     1       5.789   4.049  18.916  0.00  0.00    +0.000 OA
ATOM     20  N   UNL     1       4.244   3.854  17.237  0.00  0.00    +0.000 N 
ATOM     21  H   UNL     1       3.290   4.127  17.069  0.00  0.00    +0.000 HD
BRANCH  20  22
ATOM     22  C   UNL     1       5.157   4.297  16.245  0.00  0.00    +0.000 A 
ATOM     23  C   UNL     1       5.601   3.354  15.307  0.00  0.00    +0.000 A 
ATOM     24  C   UNL     1       6.450   3.740  14.266  0.00  0.00    +0.000 A 
ATOM     25  C   UNL     1       6.897   5.057  14.178  0.00  0.00    +0.000 A 
ATOM     26  C   UNL     1       6.504   5.991  15.138  0.00  0.00    +0.000 A 
ATOM     27  C   UNL     1       5.636   5.617  16.171  0.00  0.00    +0.000 A 
ATOM     28 CL   UNL     1       5.313   6.789  17.403  0.00  0.00    +0.000 Cl
ENDBRANCH  20  22
ENDBRANCH   3  18
TORSDOF 3
ENDMDL
MODEL 5
REMARK VINA RESULT:      -7.2      2.392      5.824
REMARK  Name = 
REMARK  5 active torsions:
REMARK  status: ('A' for Active; 'I' for Inactive)
REMARK    1  A    between atoms: C_1  and  C_2
REMARK    2  A    between atoms: C_3  and  C_4
REMARK    3  A    between atoms: N_6  and  C_7
REMARK    4  A    between atoms: C_14  and  C_15
REMARK    5  A    between atoms: C_18  and  C_19
REMARK                            x       y       z     vdW  Elec       q    Type
REMARK                         _______ _______ _______ _____ _____    ______ ____
ROOT
ATOM      1  C   UNL     1       5.118   2.086  20.260  0.00  0.00    +0.000 C 
ATOM      2  C   UNL     1       3.840   2.888  20.223  0.00  0.00    +0.000 C 
ATOM      3  C   UNL     1       3.490   3.901  19.390  0.00  0.00    +0.000 C 
ATOM      4  C   UNL     1       2.098   4.499  19.488  0.00  0.00    +0.000 C 
ATOM      5  N   UNL     1       1.408   4.100  20.696  0.00  0.00    +0.000 N 
ATOM      6  C   UNL     1       1.744   3.042  21.462  0.00  0.00    +0.000 C 
ATOM      7  O   UNL     1       1.026   2.651  22.373  0.00  0.00    +0.000 OA
ATOM      8  N   UNL     1       2.939   2.465  21.180  0.00  0.00    +0.000 N 
ATOM      9  H   UNL     1       0.520   4.524  20.929  0.00  0.00    +0.000 HD
ATOM     10  H   UNL     1       3.184   1.704  21.802  0.00  0.00    +0.000 HD
ENDROOT
BRANCH   4  11
ATOM     11  C   UNL     1       1.969   6.014  19.414  0.00  0.00    +0.000 A 
ATOM     12  C   UNL     1       2.054   6.650  18.164  0.00  0.00    +0.000 A 
ATOM     13  C   UNL     1       1.890   8.030  18.051  0.00  0.00    +0.000 A 
ATOM     14  C   UNL     1       1.637   8.805  19.187  0.00  0.00    +0.000 A 
ATOM     15  C   UNL     1       1.412  10.282  19.079  0.00  0.00    +0.000 C 
ATOM     16  C   UNL     1       1.561   8.178  20.436  0.00  0.00    +0.000 A 
ATOM     17  C   UNL     1       1.703   6.795  20.549  0.00  0.00    +0.000 A 
ENDBRANCH   4  11
BRANCH   3  18
ATOM     18  C   UNL     1       4.471   4.396  18.349  0.00  0.00    +0.000 C 
ATOM     19  O   UNL     1       4.854   5.565  18.364  0.00  0.00    +0.000 OA
ATOM     20  N   UNL     1       4.806   3.529  17.316  0.00  0.00    +0.000 N 
ATOM     21  H   UNL     1       4.118   2.846  17.047  0.00  0.00    +0.000 HD
BRANCH  20  22
ATOM     22  C   UNL     1       5.624   3.980  16.246  0.00  0.00    +0.000 A 
ATOM     23  C   UNL     1       5.099   3.890  14.948  0.00  0.00    +0.000 A 
ATOM     24  C   UNL     1       5.825   4.376  13.858  0.00  0.00    +0.000 A 
ATOM     25  C   UNL     1       7.097   4.914  14.047  0.00  0.00    +0.000 A 
ATOM     26  C   UNL     1       7.650   4.959  15.327  0.00  0.00    +0.000 A 
ATOM     27  C   UNL     1       6.920   4.494  16.427  0.00  0.00    +0.000 A 
ATOM     28 CL   UNL     1       7.728   4.445  17.957  0.00  0.00    +0.000 Cl
ENDBRANCH  20  22
ENDBRANCH   3  18
TORSDOF 3
ENDMDL
MODEL 6
REMARK VINA RESULT:      -7.1      2.099      2.525
REMARK  Name = 
REMARK  5 active torsions:
REMARK  status: ('A' for Active; 'I' for Inactive)
REMARK    1  A    between atoms: C_1  and  C_2
REMARK    2  A    between atoms: C_3  and  C_4
REMARK    3  A    between atoms: N_6  and  C_7
REMARK    4  A    between atoms: C_14  and  C_15
REMARK    5  A    between atoms: C_18  and  C_19
REMARK                            x       y       z     vdW  Elec       q    Type
REMARK                         _______ _______ _______ _____ _____    ______ ____
ROOT
ATOM      1  C   UNL     1       0.566   3.133  19.437  0.00  0.00    +0.000 C 
ATOM      2  C   UNL     1       2.065   3.130  19.255  0.00  0.00    +0.000 C 
ATOM      3  C   UNL     1       2.972   4.075  19.608  0.00  0.00    +0.000 C 
ATOM      4  C   UNL     1       4.451   3.804  19.402  0.00  0.00    +0.000 C 
ATOM      5  N   UNL     1       4.690   2.657  18.551  0.00  0.00    +0.000 N 
ATOM      6  C   UNL     1       3.782   1.698  18.279  0.00  0.00    +0.000 C 
ATOM      7  O   UNL     1       4.089   0.666  17.694  0.00  0.00    +0.000 OA
ATOM      8  N   UNL     1       2.508   1.964  18.660  0.00  0.00    +0.000 N 
ATOM      9  H   UNL     1       5.631   2.445  18.248  0.00  0.00    +0.000 HD
ATOM     10  H   UNL     1       1.842   1.247  18.400  0.00  0.00    +0.000 HD
ENDROOT
BRANCH   4  11
ATOM     11  C   UNL     1       5.309   4.928  18.837  0.00  0.00    +0.000 A 
ATOM     12  C   UNL     1       6.559   5.196  19.419  0.00  0.00    +0.000 A 
ATOM     13  C   UNL     1       7.394   6.183  18.897  0.00  0.00    +0.000 A 
ATOM     14  C   UNL     1       6.996   6.926  17.781  0.00  0.00    +0.000 A 
ATOM     15  C   UNL     1       7.898   7.958  17.179  0.00  0.00    +0.000 C 
ATOM     16  C   UNL     1       5.746   6.670  17.204  0.00  0.00    +0.000 A 
ATOM     17  C   UNL     1       4.919   5.668  17.711  0.00  0.00    +0.000 A 
ENDBRANCH   4  11
BRANCH   3  18
ATOM     18  C   UNL     1       2.506   5.370  20.239  0.00  0.00    +0.000 C 
ATOM     19  O   UNL     1       2.254   5.419  21.442  0.00  0.00    +0.000 OA
ATOM     20  N   UNL     1       2.248   6.443  19.394  0.00  0.00    +0.000 N 
ATOM     21  H   UNL     1       1.956   6.228  18.455  0.00  0.00    +0.000 HD
BRANCH  20  22
ATOM     22  C   UNL     1       1.693   7.641  19.914  0.00  0.00    +0.000 A 
ATOM     23  C   UNL     1       1.159   7.598  21.210  0.00  0.00    +0.000 A 
ATOM     24  C   UNL     1       0.656   8.758  21.805  0.00  0.00    +0.000 A 
ATOM     25  C   UNL     1       0.641   9.959  21.098  0.00  0.00    +0.000 A 
ATOM     26  C   UNL     1       1.121  10.001  19.788  0.00  0.00    +0.000 A 
ATOM     27  C   UNL     1       1.647   8.848  19.193  0.00  0.00    +0.000 A 
ATOM     28 CL   UNL     1       2.083   8.943  17.521  0.00  0.00    +0.000 Cl
ENDBRANCH  20  22
ENDBRANCH   3  18
TORSDOF 3
ENDMDL
MODEL 7
REMARK VINA RESULT:      -6.8      8.231     11.324
REMARK  Name = 
REMARK  5 active torsions:
REMARK  status: ('A' for Active; 'I' for Inactive)
REMARK    1  A    between atoms: C_1  and  C_2
REMARK    2  A    between atoms: C_3  and  C_4
REMARK    3  A    between atoms: N_6  and  C_7
REMARK    4  A    between atoms: C_14  and  C_15
REMARK    5  A    between atoms: C_18  and  C_19
REMARK                            x       y       z     vdW  Elec       q    Type
REMARK                         _______ _______ _______ _____ _____    ______ ____
ROOT
ATOM      1  C   UNL     1      -4.779  15.349  23.951  0.00  0.00    +0.000 C 
ATOM      2  C   UNL     1      -3.395  14.924  23.525  0.00  0.00    +0.000 C 
ATOM      3  C   UNL     1      -3.031  14.037  22.564  0.00  0.00    +0.000 C 
ATOM      4  C   UNL     1      -1.559  13.839  22.251  0.00  0.00    +0.000 C 
ATOM      5  N   UNL     1      -0.696  14.420  23.259  0.00  0.00    +0.000 N 
ATOM      6  C   UNL     1      -1.078  15.353  24.154  0.00  0.00    +0.000 C 
ATOM      7  O   UNL     1      -0.268  15.932  24.869  0.00  0.00    +0.000 OA
ATOM      8  N   UNL     1      -2.412  15.582  24.237  0.00  0.00    +0.000 N 
ATOM      9  H   UNL     1       0.301  14.255  23.221  0.00  0.00    +0.000 HD
ATOM     10  H   UNL     1      -2.671  16.253  24.950  0.00  0.00    +0.000 HD
ENDROOT
BRANCH   4  11
ATOM     11  C   UNL     1      -1.060  12.415  22.046  0.00  0.00    +0.000 A 
ATOM     12  C   UNL     1      -1.163  11.494  23.103  0.00  0.00    +0.000 A 
ATOM     13  C   UNL     1      -0.764  10.169  22.936  0.00  0.00    +0.000 A 
ATOM     14  C   UNL     1      -0.253   9.734  21.709  0.00  0.00    +0.000 A 
ATOM     15  C   UNL     1       0.137   8.304  21.498  0.00  0.00    +0.000 C 
ATOM     16  C   UNL     1      -0.140  10.651  20.657  0.00  0.00    +0.000 A 
ATOM     17  C   UNL     1      -0.558  11.972  20.814  0.00  0.00    +0.000 A 
ENDBRANCH   4  11
BRANCH   3  18
ATOM     18  C   UNL     1      -4.092  13.286  21.788  0.00  0.00    +0.000 C 
ATOM     19  O   UNL     1      -4.668  12.325  22.295  0.00  0.00    +0.000 OA
ATOM     20  N   UNL     1      -4.285  13.635  20.457  0.00  0.00    +0.000 N 
ATOM     21  H   UNL     1      -3.493  14.007  19.960  0.00  0.00    +0.000 HD
BRANCH  20  22
ATOM     22  C   UNL     1      -5.177  12.885  19.646  0.00  0.00    +0.000 A 
ATOM     23  C   UNL     1      -4.622  11.909  18.806  0.00  0.00    +0.000 A 
ATOM     24  C   UNL     1      -5.450  11.091  18.031  0.00  0.00    +0.000 A 
ATOM     25  C   UNL     1      -6.832  11.271  18.054  0.00  0.00    +0.000 A 
ATOM     26  C   UNL     1      -7.390  12.276  18.845  0.00  0.00    +0.000 A 
ATOM     27  C   UNL     1      -6.569  13.083  19.641  0.00  0.00    +0.000 A 
ATOM     28 CL   UNL     1      -7.318  14.400  20.479  0.00  0.00    +0.000 Cl
ENDBRANCH  20  22
ENDBRANCH   3  18
TORSDOF 3
ENDMDL
MODEL 8
REMARK VINA RESULT:      -6.8      2.159      4.272
REMARK  Name = 
REMARK  5 active torsions:
REMARK  status: ('A' for Active; 'I' for Inactive)
REMARK    1  A    between atoms: C_1  and  C_2
REMARK    2  A    between atoms: C_3  and  C_4
REMARK    3  A    between atoms: N_6  and  C_7
REMARK    4  A    between atoms: C_14  and  C_15
REMARK    5  A    between atoms: C_18  and  C_19
REMARK                            x       y       z     vdW  Elec       q    Type
REMARK                         _______ _______ _______ _____ _____    ______ ____
ROOT
ATOM      1  C   UNL     1       6.814   8.304  17.401  0.00  0.00    +0.000 C 
ATOM      2  C   UNL     1       6.377   6.861  17.352  0.00  0.00    +0.000 C 
ATOM      3  C   UNL     1       5.121   6.348  17.335  0.00  0.00    +0.000 C 
ATOM      4  C   UNL     1       4.929   4.849  17.190  0.00  0.00    +0.000 C 
ATOM      5  N   UNL     1       6.158   4.111  17.398  0.00  0.00    +0.000 N 
ATOM      6  C   UNL     1       7.394   4.643  17.337  0.00  0.00    +0.000 C 
ATOM      7  O   UNL     1       8.400   3.944  17.351  0.00  0.00    +0.000 OA
ATOM      8  N   UNL     1       7.454   5.998  17.296  0.00  0.00    +0.000 N 
ATOM      9  H   UNL     1       6.134   3.101  17.440  0.00  0.00    +0.000 HD
ATOM     10  H   UNL     1       8.396   6.368  17.299  0.00  0.00    +0.000 HD
ENDROOT
BRANCH   4  11
ATOM     11  C   UNL     1       3.885   4.177  18.071  0.00  0.00    +0.000 A 
ATOM     12  C   UNL     1       4.207   3.872  19.405  0.00  0.00    +0.000 A 
ATOM     13  C   UNL     1       3.261   3.303  20.256  0.00  0.00    +0.000 A 
ATOM     14  C   UNL     1       1.971   3.026  19.793  0.00  0.00    +0.000 A 
ATOM     15  C   UNL     1       0.928   2.457  20.706  0.00  0.00    +0.000 C 
ATOM     16  C   UNL     1       1.648   3.318  18.462  0.00  0.00    +0.000 A 
ATOM     17  C   UNL     1       2.587   3.907  17.615  0.00  0.00    +0.000 A 
ENDBRANCH   4  11
BRANCH   3  18
ATOM     18  C   UNL     1       3.926   7.273  17.419  0.00  0.00    +0.000 C 
ATOM     19  O   UNL     1       3.619   7.980  16.460  0.00  0.00    +0.000 OA
ATOM     20  N   UNL     1       3.286   7.390  18.648  0.00  0.00    +0.000 N 
ATOM     21  H   UNL     1       3.844   7.242  19.472  0.00  0.00    +0.000 HD
BRANCH  20  22
ATOM     22  C   UNL     1       2.239   8.334  18.819  0.00  0.00    +0.000 A 
ATOM     23  C   UNL     1       2.104   9.334  17.845  0.00  0.00    +0.000 A 
ATOM     24  C   UNL     1       1.055  10.254  17.919  0.00  0.00    +0.000 A 
ATOM     25  C   UNL     1       0.159  10.211  18.986  0.00  0.00    +0.000 A 
ATOM     26  C   UNL     1       0.317   9.253  19.988  0.00  0.00    +0.000 A 
ATOM     27  C   UNL     1       1.353   8.314  19.910  0.00  0.00    +0.000 A 
ATOM     28 CL   UNL     1       1.573   7.256  21.261  0.00  0.00    +0.000 Cl
ENDBRANCH  20  22
ENDBRANCH   3  18
TORSDOF 3
ENDMDL
MODEL 9
REMARK VINA RESULT:      -6.8      8.453     11.619
REMARK  Name = 
REMARK  5 active torsions:
REMARK  status: ('A' for Active; 'I' for Inactive)
REMARK    1  A    between atoms: C_1  and  C_2
REMARK    2  A    between atoms: C_3  and  C_4
REMARK    3  A    between atoms: N_6  and  C_7
REMARK    4  A    between atoms: C_14  and  C_15
REMARK    5  A    between atoms: C_18  and  C_19
REMARK                            x       y       z     vdW  Elec       q    Type
REMARK                         _______ _______ _______ _____ _____    ______ ____
ROOT
ATOM      1  C   UNL     1      -5.412  15.516  23.785  0.00  0.00    +0.000 C 
ATOM      2  C   UNL     1      -3.951  15.139  23.762  0.00  0.00    +0.000 C 
ATOM      3  C   UNL     1      -3.240  14.532  22.779  0.00  0.00    +0.000 C 
ATOM      4  C   UNL     1      -1.744  14.338  22.951  0.00  0.00    +0.000 C 
ATOM      5  N   UNL     1      -1.310  14.562  24.315  0.00  0.00    +0.000 N 
ATOM      6  C   UNL     1      -2.017  15.233  25.246  0.00  0.00    +0.000 C 
ATOM      7  O   UNL     1      -1.531  15.541  26.328  0.00  0.00    +0.000 OA
ATOM      8  N   UNL     1      -3.305  15.513  24.924  0.00  0.00    +0.000 N 
ATOM      9  H   UNL     1      -0.357  14.353  24.578  0.00  0.00    +0.000 HD
ATOM     10  H   UNL     1      -3.822  15.975  25.661  0.00  0.00    +0.000 HD
ENDROOT
BRANCH   4  11
ATOM     11  C   UNL     1      -1.149  12.997  22.540  0.00  0.00    +0.000 A 
ATOM     12  C   UNL     1      -1.489  11.844  23.268  0.00  0.00    +0.000 A 
ATOM     13  C   UNL     1      -1.004  10.593  22.890  0.00  0.00    +0.000 A 
ATOM     14  C   UNL     1      -0.168  10.467  21.777  0.00  0.00    +0.000 A 
ATOM     15  C   UNL     1       0.325   9.125  21.329  0.00  0.00    +0.000 C 
ATOM     16  C   UNL     1       0.182  11.614  21.055  0.00  0.00    +0.000 A 
ATOM     17  C   UNL     1      -0.319  12.864  21.417  0.00  0.00    +0.000 A 
ENDBRANCH   4  11
BRANCH   3  18
ATOM     18  C   UNL     1      -3.932  14.092  21.507  0.00  0.00    +0.000 C 
ATOM     19  O   UNL     1      -4.153  14.903  20.608  0.00  0.00    +0.000 OA
ATOM     20  N   UNL     1      -4.421  12.792  21.455  0.00  0.00    +0.000 N 
ATOM     21  H   UNL     1      -4.693  12.369  22.326  0.00  0.00    +0.000 HD
BRANCH  20  22
ATOM     22  C   UNL     1      -5.187  12.363  20.339  0.00  0.00    +0.000 A 
ATOM     23  C   UNL     1      -6.580  12.309  20.492  0.00  0.00    +0.000 A 
ATOM     24  C   UNL     1      -7.395  11.958  19.412  0.00  0.00    +0.000 A 
ATOM     25  C   UNL     1      -6.826  11.616  18.187  0.00  0.00    +0.000 A 
ATOM     26  C   UNL     1      -5.439  11.614  18.040  0.00  0.00    +0.000 A 
ATOM     27  C   UNL     1      -4.616  11.987  19.110  0.00  0.00    +0.000 A 
ATOM     28 CL   UNL     1      -2.907  11.818  18.898  0.00  0.00    +0.000 Cl
ENDBRANCH  20  22
ENDBRANCH   3  18
TORSDOF 3
ENDMDL
