MODEL 1
REMARK VINA RESULT:      -8.3      0.000      0.000
REMARK  Name = 
REMARK  6 active torsions:
REMARK  status: ('A' for Active; 'I' for Inactive)
REMARK    1  A    between atoms: C_1  and  C_2
REMARK    2  A    between atoms: C_5  and  C_6
REMARK    3  A    between atoms: N_8  and  C_9
REMARK    4  A    between atoms: C_15  and  C_16
REMARK    5  A    between atoms: C_19  and  O_20
REMARK    6  A    between atoms: O_20  and  C_21
REMARK                            x       y       z     vdW  Elec       q    Type
REMARK                         _______ _______ _______ _____ _____    ______ ____
ROOT
ATOM      1  C   UNL     1       5.102   4.632  17.132  0.00  0.00    +0.000 C 
ATOM      2  N   UNL     1       4.824   5.345  16.079  0.00  0.00    +0.000 NA
ATOM      3  N   UNL     1       6.024   5.502  15.370  0.00  0.00    +0.000 N 
ATOM      4  C   UNL     1       7.147   5.239  16.318  0.00  0.00    +0.000 C 
ATOM      5  C   UNL     1       6.525   4.130  17.168  0.00  0.00    +0.000 C 
ENDROOT
BRANCH   1  10
ATOM      6  C   UNL     1       1.226   3.221  21.187  0.00  0.00    +0.000 C 
ATOM      7  C   UNL     1       2.255   3.580  20.157  0.00  0.00    +0.000 A 
ATOM      8  C   UNL     1       3.521   2.981  20.138  0.00  0.00    +0.000 A 
ATOM      9  C   UNL     1       4.459   3.336  19.160  0.00  0.00    +0.000 A 
ATOM     10  C   UNL     1       4.135   4.295  18.194  0.00  0.00    +0.000 A 
ATOM     11  C   UNL     1       2.881   4.909  18.225  0.00  0.00    +0.000 A 
ATOM     12  C   UNL     1       1.947   4.552  19.199  0.00  0.00    +0.000 A 
ENDBRANCH   1  10
BRANCH   3  13
ATOM     13  C   UNL     1       6.101   4.736  14.158  0.00  0.00    +0.000 A 
ATOM     14  C   UNL     1       5.031   3.924  13.727  0.00  0.00    +0.000 A 
ATOM     15  C   UNL     1       5.095   3.182  12.543  0.00  0.00    +0.000 A 
ATOM     16  C   UNL     1       6.230   3.247  11.745  0.00  0.00    +0.000 A 
ATOM     17  C   UNL     1       7.303   4.042  12.144  0.00  0.00    +0.000 A 
ATOM     18  C   UNL     1       7.240   4.778  13.337  0.00  0.00    +0.000 A 
ENDBRANCH   3  13
BRANCH   4  19
ATOM     19  C   UNL     1       7.494   6.427  17.243  0.00  0.00    +0.000 A 
ATOM     20  C   UNL     1       8.065   6.270  18.522  0.00  0.00    +0.000 A 
ATOM     21  C   UNL     1       8.518   7.379  19.262  0.00  0.00    +0.000 A 
ATOM     22  C   UNL     1       8.416   8.669  18.740  0.00  0.00    +0.000 A 
ATOM     23  C   UNL     1       7.794   8.844  17.505  0.00  0.00    +0.000 A 
ATOM     24  C   UNL     1       7.330   7.741  16.773  0.00  0.00    +0.000 A 
BRANCH  22  25
ATOM     25  O   UNL     1       8.863   9.817  19.340  0.00  0.00    +0.000 OA
BRANCH  25  26
ATOM     26  C   UNL     1       9.662  10.720  18.568  0.00  0.00    +0.000 C 
ATOM     27  C   UNL     1       8.885  11.964  18.143  0.00  0.00    +0.000 C 
ATOM     28  C   UNL     1       9.931  13.055  17.996  0.00  0.00    +0.000 C 
ATOM     29  C   UNL     1      11.019  12.723  19.009  0.00  0.00    +0.000 C 
ATOM     30  C   UNL     1      10.786  11.281  19.450  0.00  0.00    +0.000 C 
ENDBRANCH  25  26
ENDBRANCH  22  25
ENDBRANCH   4  19
TORSDOF 5
ENDMDL
MODEL 2
REMARK VINA RESULT:      -8.1      7.212     10.800
REMARK  Name = 
REMARK  6 active torsions:
REMARK  status: ('A' for Active; 'I' for Inactive)
REMARK    1  A    between atoms: C_1  and  C_2
REMARK    2  A    between atoms: C_5  and  C_6
REMARK    3  A    between atoms: N_8  and  C_9
REMARK    4  A    between atoms: C_15  and  C_16
REMARK    5  A    between atoms: C_19  and  O_20
REMARK    6  A    between atoms: O_20  and  C_21
REMARK                            x       y       z     vdW  Elec       q    Type
REMARK                         _______ _______ _______ _____ _____    ______ ____
ROOT
ATOM      1  C   UNL     1      -1.361  10.917  18.793  0.00  0.00    +0.000 C 
ATOM      2  N   UNL     1      -1.689  10.485  19.977  0.00  0.00    +0.000 NA
ATOM      3  N   UNL     1      -0.646  10.847  20.841  0.00  0.00    +0.000 N 
ATOM      4  C   UNL     1       0.564  11.106  20.005  0.00  0.00    +0.000 C 
ATOM      5  C   UNL     1      -0.092  11.732  18.773  0.00  0.00    +0.000 C 
ENDROOT
BRANCH   1  10
ATOM      6  C   UNL     1      -4.389  10.127  13.928  0.00  0.00    +0.000 C 
ATOM      7  C   UNL     1      -3.595  10.300  15.188  0.00  0.00    +0.000 A 
ATOM      8  C   UNL     1      -2.450   9.536  15.450  0.00  0.00    +0.000 A 
ATOM      9  C   UNL     1      -1.729   9.725  16.636  0.00  0.00    +0.000 A 
ATOM     10  C   UNL     1      -2.149  10.680  17.568  0.00  0.00    +0.000 A 
ATOM     11  C   UNL     1      -3.303  11.426  17.318  0.00  0.00    +0.000 A 
ATOM     12  C   UNL     1      -4.019  11.239  16.135  0.00  0.00    +0.000 A 
ENDBRANCH   1  10
BRANCH   3  13
ATOM     13  C   UNL     1      -0.966  11.919  21.741  0.00  0.00    +0.000 A 
ATOM     14  C   UNL     1      -0.160  13.074  21.831  0.00  0.00    +0.000 A 
ATOM     15  C   UNL     1      -0.470  14.126  22.700  0.00  0.00    +0.000 A 
ATOM     16  C   UNL     1      -1.608  14.058  23.493  0.00  0.00    +0.000 A 
ATOM     17  C   UNL     1      -2.424  12.930  23.425  0.00  0.00    +0.000 A 
ATOM     18  C   UNL     1      -2.106  11.872  22.559  0.00  0.00    +0.000 A 
ENDBRANCH   3  13
BRANCH   4  19
ATOM     19  C   UNL     1       1.321   9.835  19.563  0.00  0.00    +0.000 A 
ATOM     20  C   UNL     1       1.469   8.698  20.383  0.00  0.00    +0.000 A 
ATOM     21  C   UNL     1       2.021   7.502  19.885  0.00  0.00    +0.000 A 
ATOM     22  C   UNL     1       2.431   7.412  18.554  0.00  0.00    +0.000 A 
ATOM     23  C   UNL     1       2.351   8.548  17.751  0.00  0.00    +0.000 A 
ATOM     24  C   UNL     1       1.815   9.744  18.250  0.00  0.00    +0.000 A 
BRANCH  22  25
ATOM     25  O   UNL     1       2.935   6.294  17.942  0.00  0.00    +0.000 OA
BRANCH  25  26
ATOM     26  C   UNL     1       2.679   5.019  18.541  0.00  0.00    +0.000 C 
ATOM     27  C   UNL     1       1.543   4.270  17.849  0.00  0.00    +0.000 C 
ATOM     28  C   UNL     1       1.843   2.799  18.074  0.00  0.00    +0.000 C 
ATOM     29  C   UNL     1       3.360   2.691  18.138  0.00  0.00    +0.000 C 
ATOM     30  C   UNL     1       3.895   4.108  18.328  0.00  0.00    +0.000 C 
ENDBRANCH  25  26
ENDBRANCH  22  25
ENDBRANCH   4  19
TORSDOF 5
ENDMDL
MODEL 3
REMARK VINA RESULT:      -8.1      0.732      1.041
REMARK  Name = 
REMARK  6 active torsions:
REMARK  status: ('A' for Active; 'I' for Inactive)
REMARK    1  A    between atoms: C_1  and  C_2
REMARK    2  A    between atoms: C_5  and  C_6
REMARK    3  A    between atoms: N_8  and  C_9
REMARK    4  A    between atoms: C_15  and  C_16
REMARK    5  A    between atoms: C_19  and  O_20
REMARK    6  A    between atoms: O_20  and  C_21
REMARK                            x       y       z     vdW  Elec       q    Type
REMARK                         _______ _______ _______ _____ _____    ______ ____
ROOT
ATOM      1  C   UNL     1       5.269   4.797  17.323  0.00  0.00    +0.000 C 
ATOM      2  N   UNL     1       4.926   5.474  16.265  0.00  0.00    +0.000 NA
ATOM      3  N   UNL     1       6.097   5.682  15.522  0.00  0.00    +0.000 N 
ATOM      4  C   UNL     1       7.256   5.499  16.445  0.00  0.00    +0.000 C 
ATOM      5  C   UNL     1       6.717   4.374  17.331  0.00  0.00    +0.000 C 
ENDROOT
BRANCH   1  10
ATOM      6  C   UNL     1       1.790   3.316  21.700  0.00  0.00    +0.000 C 
ATOM      7  C   UNL     1       2.675   3.727  20.561  0.00  0.00    +0.000 A 
ATOM      8  C   UNL     1       2.899   5.075  20.250  0.00  0.00    +0.000 A 
ATOM      9  C   UNL     1       3.733   5.426  19.181  0.00  0.00    +0.000 A 
ATOM     10  C   UNL     1       4.349   4.429  18.416  0.00  0.00    +0.000 A 
ATOM     11  C   UNL     1       4.108   3.085  18.711  0.00  0.00    +0.000 A 
ATOM     12  C   UNL     1       3.278   2.738  19.778  0.00  0.00    +0.000 A 
ENDBRANCH   1  10
BRANCH   3  13
ATOM     13  C   UNL     1       6.185   4.898  14.322  0.00  0.00    +0.000 A 
ATOM     14  C   UNL     1       5.123   4.070  13.900  0.00  0.00    +0.000 A 
ATOM     15  C   UNL     1       5.198   3.311  12.728  0.00  0.00    +0.000 A 
ATOM     16  C   UNL     1       6.336   3.372  11.934  0.00  0.00    +0.000 A 
ATOM     17  C   UNL     1       7.401   4.182  12.324  0.00  0.00    +0.000 A 
ATOM     18  C   UNL     1       7.327   4.936  13.505  0.00  0.00    +0.000 A 
ENDBRANCH   3  13
BRANCH   4  19
ATOM     19  C   UNL     1       7.562   6.721  17.338  0.00  0.00    +0.000 A 
ATOM     20  C   UNL     1       8.209   6.625  18.586  0.00  0.00    +0.000 A 
ATOM     21  C   UNL     1       8.615   7.775  19.291  0.00  0.00    +0.000 A 
ATOM     22  C   UNL     1       8.390   9.046  18.763  0.00  0.00    +0.000 A 
ATOM     23  C   UNL     1       7.692   9.158  17.561  0.00  0.00    +0.000 A 
ATOM     24  C   UNL     1       7.274   8.014  16.865  0.00  0.00    +0.000 A 
BRANCH  22  25
ATOM     25  O   UNL     1       8.780  10.232  19.328  0.00  0.00    +0.000 OA
BRANCH  25  26
ATOM     26  C   UNL     1      10.162  10.596  19.255  0.00  0.00    +0.000 C 
ATOM     27  C   UNL     1      10.480  11.426  18.013  0.00  0.00    +0.000 C 
ATOM     28  C   UNL     1      11.674  12.279  18.400  0.00  0.00    +0.000 C 
ATOM     29  C   UNL     1      11.531  12.537  19.894  0.00  0.00    +0.000 C 
ATOM     30  C   UNL     1      10.497  11.543  20.416  0.00  0.00    +0.000 C 
ENDBRANCH  25  26
ENDBRANCH  22  25
ENDBRANCH   4  19
TORSDOF 5
ENDMDL
MODEL 4
REMARK VINA RESULT:      -8.1      7.127     10.919
REMARK  Name = 
REMARK  6 active torsions:
REMARK  status: ('A' for Active; 'I' for Inactive)
REMARK    1  A    between atoms: C_1  and  C_2
REMARK    2  A    between atoms: C_5  and  C_6
REMARK    3  A    between atoms: N_8  and  C_9
REMARK    4  A    between atoms: C_15  and  C_16
REMARK    5  A    between atoms: C_19  and  O_20
REMARK    6  A    between atoms: O_20  and  C_21
REMARK                            x       y       z     vdW  Elec       q    Type
REMARK                         _______ _______ _______ _____ _____    ______ ____
ROOT
ATOM      1  C   UNL     1      -1.137  10.923  18.842  0.00  0.00    +0.000 C 
ATOM      2  N   UNL     1      -1.575  10.709  20.049  0.00  0.00    +0.000 NA
ATOM      3  N   UNL     1      -0.491  10.923  20.913  0.00  0.00    +0.000 N 
ATOM      4  C   UNL     1       0.760  10.812  20.106  0.00  0.00    +0.000 C 
ATOM      5  C   UNL     1       0.283  11.429  18.789  0.00  0.00    +0.000 C 
ENDROOT
BRANCH   1  10
ATOM      6  C   UNL     1      -4.344  10.053  14.107  0.00  0.00    +0.000 C 
ATOM      7  C   UNL     1      -3.521  10.310  15.334  0.00  0.00    +0.000 A 
ATOM      8  C   UNL     1      -3.847  11.326  16.241  0.00  0.00    +0.000 A 
ATOM      9  C   UNL     1      -3.059  11.538  17.380  0.00  0.00    +0.000 A 
ATOM     10  C   UNL     1      -1.938  10.735  17.617  0.00  0.00    +0.000 A 
ATOM     11  C   UNL     1      -1.599   9.737  16.700  0.00  0.00    +0.000 A 
ATOM     12  C   UNL     1      -2.386   9.525  15.568  0.00  0.00    +0.000 A 
ENDBRANCH   1  10
BRANCH   3  13
ATOM     13  C   UNL     1      -0.575  12.132  21.684  0.00  0.00    +0.000 A 
ATOM     14  C   UNL     1       0.289  13.221  21.447  0.00  0.00    +0.000 A 
ATOM     15  C   UNL     1       0.207  14.406  22.187  0.00  0.00    +0.000 A 
ATOM     16  C   UNL     1      -0.757  14.538  23.178  0.00  0.00    +0.000 A 
ATOM     17  C   UNL     1      -1.625  13.479  23.434  0.00  0.00    +0.000 A 
ATOM     18  C   UNL     1      -1.536  12.289  22.696  0.00  0.00    +0.000 A 
ENDBRANCH   3  13
BRANCH   4  19
ATOM     19  C   UNL     1       1.217   9.363  19.830  0.00  0.00    +0.000 A 
ATOM     20  C   UNL     1       1.799   8.954  18.613  0.00  0.00    +0.000 A 
ATOM     21  C   UNL     1       2.351   7.667  18.462  0.00  0.00    +0.000 A 
ATOM     22  C   UNL     1       2.341   6.762  19.524  0.00  0.00    +0.000 A 
ATOM     23  C   UNL     1       1.710   7.131  20.711  0.00  0.00    +0.000 A 
ATOM     24  C   UNL     1       1.147   8.408  20.859  0.00  0.00    +0.000 A 
BRANCH  22  25
ATOM     25  O   UNL     1       2.887   5.506  19.515  0.00  0.00    +0.000 OA
BRANCH  25  26
ATOM     26  C   UNL     1       2.309   4.520  18.653  0.00  0.00    +0.000 C 
ATOM     27  C   UNL     1       3.337   3.502  18.164  0.00  0.00    +0.000 C 
ATOM     28  C   UNL     1       2.545   2.233  17.902  0.00  0.00    +0.000 C 
ATOM     29  C   UNL     1       1.394   2.251  18.898  0.00  0.00    +0.000 C 
ATOM     30  C   UNL     1       1.312   3.671  19.452  0.00  0.00    +0.000 C 
ENDBRANCH  25  26
ENDBRANCH  22  25
ENDBRANCH   4  19
TORSDOF 5
ENDMDL
MODEL 5
REMARK VINA RESULT:      -8.1      0.538      1.028
REMARK  Name = 
REMARK  6 active torsions:
REMARK  status: ('A' for Active; 'I' for Inactive)
REMARK    1  A    between atoms: C_1  and  C_2
REMARK    2  A    between atoms: C_5  and  C_6
REMARK    3  A    between atoms: N_8  and  C_9
REMARK    4  A    between atoms: C_15  and  C_16
REMARK    5  A    between atoms: C_19  and  O_20
REMARK    6  A    between atoms: O_20  and  C_21
REMARK                            x       y       z     vdW  Elec       q    Type
REMARK                         _______ _______ _______ _____ _____    ______ ____
ROOT
ATOM      1  C   UNL     1       5.147   4.726  17.069  0.00  0.00    +0.000 C 
ATOM      2  N   UNL     1       4.888   5.435  16.007  0.00  0.00    +0.000 NA
ATOM      3  N   UNL     1       6.106   5.613  15.336  0.00  0.00    +0.000 N 
ATOM      4  C   UNL     1       7.205   5.370  16.317  0.00  0.00    +0.000 C 
ATOM      5  C   UNL     1       6.576   4.249  17.148  0.00  0.00    +0.000 C 
ENDROOT
BRANCH   1  10
ATOM      6  C   UNL     1       1.197   3.220  21.017  0.00  0.00    +0.000 C 
ATOM      7  C   UNL     1       2.244   3.611  20.017  0.00  0.00    +0.000 A 
ATOM      8  C   UNL     1       3.589   3.255  20.179  0.00  0.00    +0.000 A 
ATOM      9  C   UNL     1       4.542   3.634  19.224  0.00  0.00    +0.000 A 
ATOM     10  C   UNL     1       4.154   4.372  18.101  0.00  0.00    +0.000 A 
ATOM     11  C   UNL     1       2.817   4.747  17.950  0.00  0.00    +0.000 A 
ATOM     12  C   UNL     1       1.869   4.367  18.900  0.00  0.00    +0.000 A 
ENDBRANCH   1  10
BRANCH   3  13
ATOM     13  C   UNL     1       6.234   4.849  14.126  0.00  0.00    +0.000 A 
ATOM     14  C   UNL     1       7.383   4.939  13.313  0.00  0.00    +0.000 A 
ATOM     15  C   UNL     1       7.519   4.192  12.138  0.00  0.00    +0.000 A 
ATOM     16  C   UNL     1       6.511   3.318  11.753  0.00  0.00    +0.000 A 
ATOM     17  C   UNL     1       5.363   3.207  12.536  0.00  0.00    +0.000 A 
ATOM     18  C   UNL     1       5.226   3.965  13.709  0.00  0.00    +0.000 A 
ENDBRANCH   3  13
BRANCH   4  19
ATOM     19  C   UNL     1       7.503   6.563  17.252  0.00  0.00    +0.000 A 
ATOM     20  C   UNL     1       8.132   6.426  18.505  0.00  0.00    +0.000 A 
ATOM     21  C   UNL     1       8.534   7.551  19.250  0.00  0.00    +0.000 A 
ATOM     22  C   UNL     1       8.321   8.840  18.757  0.00  0.00    +0.000 A 
ATOM     23  C   UNL     1       7.640   8.991  17.551  0.00  0.00    +0.000 A 
ATOM     24  C   UNL     1       7.227   7.870  16.814  0.00  0.00    +0.000 A 
BRANCH  22  25
ATOM     25  O   UNL     1       8.709  10.006  19.363  0.00  0.00    +0.000 OA
BRANCH  25  26
ATOM     26  C   UNL     1      10.060  10.446  19.188  0.00  0.00    +0.000 C 
ATOM     27  C   UNL     1      10.231  11.311  17.942  0.00  0.00    +0.000 C 
ATOM     28  C   UNL     1      11.406  12.222  18.249  0.00  0.00    +0.000 C 
ATOM     29  C   UNL     1      11.371  12.447  19.755  0.00  0.00    +0.000 C 
ATOM     30  C   UNL     1      10.437  11.390  20.337  0.00  0.00    +0.000 C 
ENDBRANCH  25  26
ENDBRANCH  22  25
ENDBRANCH   4  19
TORSDOF 5
ENDMDL
MODEL 6
REMARK VINA RESULT:      -8.0      7.399     10.853
REMARK  Name = 
REMARK  6 active torsions:
REMARK  status: ('A' for Active; 'I' for Inactive)
REMARK    1  A    between atoms: C_1  and  C_2
REMARK    2  A    between atoms: C_5  and  C_6
REMARK    3  A    between atoms: N_8  and  C_9
REMARK    4  A    between atoms: C_15  and  C_16
REMARK    5  A    between atoms: C_19  and  O_20
REMARK    6  A    between atoms: O_20  and  C_21
REMARK                            x       y       z     vdW  Elec       q    Type
REMARK                         _______ _______ _______ _____ _____    ______ ____
ROOT
ATOM      1  C   UNL     1      -1.579  11.053  18.649  0.00  0.00    +0.000 C 
ATOM      2  N   UNL     1      -2.023  10.795  19.846  0.00  0.00    +0.000 NA
ATOM      3  N   UNL     1      -0.999  11.143  20.738  0.00  0.00    +0.000 N 
ATOM      4  C   UNL     1       0.280  11.179  19.968  0.00  0.00    +0.000 C 
ATOM      5  C   UNL     1      -0.229  11.725  18.633  0.00  0.00    +0.000 C 
ENDROOT
BRANCH   1  10
ATOM      6  C   UNL     1      -4.401  10.050  13.700  0.00  0.00    +0.000 C 
ATOM      7  C   UNL     1      -3.660  10.279  14.983  0.00  0.00    +0.000 A 
ATOM      8  C   UNL     1      -2.510   9.549  15.312  0.00  0.00    +0.000 A 
ATOM      9  C   UNL     1      -1.839   9.790  16.518  0.00  0.00    +0.000 A 
ATOM     10  C   UNL     1      -2.315  10.763  17.403  0.00  0.00    +0.000 A 
ATOM     11  C   UNL     1      -3.475  11.475  17.087  0.00  0.00    +0.000 A 
ATOM     12  C   UNL     1      -4.140  11.236  15.885  0.00  0.00    +0.000 A 
ENDBRANCH   1  10
BRANCH   3  13
ATOM     13  C   UNL     1      -1.251  12.337  21.495  0.00  0.00    +0.000 A 
ATOM     14  C   UNL     1      -2.561  12.732  21.838  0.00  0.00    +0.000 A 
ATOM     15  C   UNL     1      -2.814  13.889  22.583  0.00  0.00    +0.000 A 
ATOM     16  C   UNL     1      -1.757  14.677  23.019  0.00  0.00    +0.000 A 
ATOM     17  C   UNL     1      -0.452  14.312  22.696  0.00  0.00    +0.000 A 
ATOM     18  C   UNL     1      -0.201  13.156  21.942  0.00  0.00    +0.000 A 
ENDBRANCH   3  13
BRANCH   4  19
ATOM     19  C   UNL     1       0.915   9.794  19.719  0.00  0.00    +0.000 A 
ATOM     20  C   UNL     1       1.529   9.431  18.504  0.00  0.00    +0.000 A 
ATOM     21  C   UNL     1       2.240   8.222  18.374  0.00  0.00    +0.000 A 
ATOM     22  C   UNL     1       2.359   7.351  19.457  0.00  0.00    +0.000 A 
ATOM     23  C   UNL     1       1.701   7.666  20.645  0.00  0.00    +0.000 A 
ATOM     24  C   UNL     1       0.981   8.863  20.771  0.00  0.00    +0.000 A 
BRANCH  22  25
ATOM     25  O   UNL     1       3.062   6.175  19.469  0.00  0.00    +0.000 OA
BRANCH  25  26
ATOM     26  C   UNL     1       3.234   5.474  18.233  0.00  0.00    +0.000 C 
ATOM     27  C   UNL     1       4.402   4.491  18.280  0.00  0.00    +0.000 C 
ATOM     28  C   UNL     1       4.045   3.403  17.283  0.00  0.00    +0.000 C 
ATOM     29  C   UNL     1       2.525   3.315  17.293  0.00  0.00    +0.000 C 
ATOM     30  C   UNL     1       2.015   4.575  17.988  0.00  0.00    +0.000 C 
ENDBRANCH  25  26
ENDBRANCH  22  25
ENDBRANCH   4  19
TORSDOF 5
ENDMDL
MODEL 7
REMARK VINA RESULT:      -8.0      7.079     10.700
REMARK  Name = 
REMARK  6 active torsions:
REMARK  status: ('A' for Active; 'I' for Inactive)
REMARK    1  A    between atoms: C_1  and  C_2
REMARK    2  A    between atoms: C_5  and  C_6
REMARK    3  A    between atoms: N_8  and  C_9
REMARK    4  A    between atoms: C_15  and  C_16
REMARK    5  A    between atoms: C_19  and  O_20
REMARK    6  A    between atoms: O_20  and  C_21
REMARK                            x       y       z     vdW  Elec       q    Type
REMARK                         _______ _______ _______ _____ _____    ______ ____
ROOT
ATOM      1  C   UNL     1      -1.179  10.846  18.726  0.00  0.00    +0.000 C 
ATOM      2  N   UNL     1      -1.538  10.411  19.900  0.00  0.00    +0.000 NA
ATOM      3  N   UNL     1      -0.491  10.720  20.781  0.00  0.00    +0.000 N 
ATOM      4  C   UNL     1       0.738  10.943  19.962  0.00  0.00    +0.000 C 
ATOM      5  C   UNL     1       0.121  11.611  18.732  0.00  0.00    +0.000 C 
ENDROOT
BRANCH   1  10
ATOM      6  C   UNL     1      -4.317   9.978  13.945  0.00  0.00    +0.000 C 
ATOM      7  C   UNL     1      -3.511  10.235  15.184  0.00  0.00    +0.000 A 
ATOM      8  C   UNL     1      -3.834  11.268  16.073  0.00  0.00    +0.000 A 
ATOM      9  C   UNL     1      -3.062  11.479  17.223  0.00  0.00    +0.000 A 
ATOM     10  C   UNL     1      -1.961  10.657  17.489  0.00  0.00    +0.000 A 
ATOM     11  C   UNL     1      -1.625   9.642  16.591  0.00  0.00    +0.000 A 
ATOM     12  C   UNL     1      -2.397   9.431  15.448  0.00  0.00    +0.000 A 
ENDBRANCH   1  10
BRANCH   3  13
ATOM     13  C   UNL     1      -0.779  11.791  21.693  0.00  0.00    +0.000 A 
ATOM     14  C   UNL     1      -1.769  11.665  22.690  0.00  0.00    +0.000 A 
ATOM     15  C   UNL     1      -2.050  12.700  23.589  0.00  0.00    +0.000 A 
ATOM     16  C   UNL     1      -1.333  13.888  23.523  0.00  0.00    +0.000 A 
ATOM     17  C   UNL     1      -0.348  14.041  22.549  0.00  0.00    +0.000 A 
ATOM     18  C   UNL     1      -0.074  13.004  21.644  0.00  0.00    +0.000 A 
ENDBRANCH   3  13
BRANCH   4  19
ATOM     19  C   UNL     1       1.450   9.649  19.511  0.00  0.00    +0.000 A 
ATOM     20  C   UNL     1       1.556   8.501  20.321  0.00  0.00    +0.000 A 
ATOM     21  C   UNL     1       2.065   7.291  19.812  0.00  0.00    +0.000 A 
ATOM     22  C   UNL     1       2.475   7.198  18.482  0.00  0.00    +0.000 A 
ATOM     23  C   UNL     1       2.438   8.343  17.688  0.00  0.00    +0.000 A 
ATOM     24  C   UNL     1       1.943   9.554  18.198  0.00  0.00    +0.000 A 
BRANCH  22  25
ATOM     25  O   UNL     1       2.940   6.068  17.861  0.00  0.00    +0.000 OA
BRANCH  25  26
ATOM     26  C   UNL     1       2.746   4.808  18.512  0.00  0.00    +0.000 C 
ATOM     27  C   UNL     1       1.515   4.070  17.991  0.00  0.00    +0.000 C 
ATOM     28  C   UNL     1       1.818   2.596  18.200  0.00  0.00    +0.000 C 
ATOM     29  C   UNL     1       3.328   2.461  18.062  0.00  0.00    +0.000 C 
ATOM     30  C   UNL     1       3.907   3.870  18.153  0.00  0.00    +0.000 C 
ENDBRANCH  25  26
ENDBRANCH  22  25
ENDBRANCH   4  19
TORSDOF 5
ENDMDL
MODEL 8
REMARK VINA RESULT:      -7.8      7.626     11.254
REMARK  Name = 
REMARK  6 active torsions:
REMARK  status: ('A' for Active; 'I' for Inactive)
REMARK    1  A    between atoms: C_1  and  C_2
REMARK    2  A    between atoms: C_5  and  C_6
REMARK    3  A    between atoms: N_8  and  C_9
REMARK    4  A    between atoms: C_15  and  C_16
REMARK    5  A    between atoms: C_19  and  O_20
REMARK    6  A    between atoms: O_20  and  C_21
REMARK                            x       y       z     vdW  Elec       q    Type
REMARK                         _______ _______ _______ _____ _____    ______ ____
ROOT
ATOM      1  C   UNL     1      -1.577  11.298  19.053  0.00  0.00    +0.000 C 
ATOM      2  N   UNL     1      -2.063  11.096  20.244  0.00  0.00    +0.000 NA
ATOM      3  N   UNL     1      -1.082  11.512  21.155  0.00  0.00    +0.000 N 
ATOM      4  C   UNL     1       0.225  11.534  20.434  0.00  0.00    +0.000 C 
ATOM      5  C   UNL     1      -0.240  11.997  19.052  0.00  0.00    +0.000 C 
ENDROOT
BRANCH   1  10
ATOM      6  C   UNL     1      -4.184   9.972  14.062  0.00  0.00    +0.000 C 
ATOM      7  C   UNL     1      -3.497  10.285  15.358  0.00  0.00    +0.000 A 
ATOM      8  C   UNL     1      -2.332   9.617  15.756  0.00  0.00    +0.000 A 
ATOM      9  C   UNL     1      -1.712   9.936  16.971  0.00  0.00    +0.000 A 
ATOM     10  C   UNL     1      -2.257  10.925  17.797  0.00  0.00    +0.000 A 
ATOM     11  C   UNL     1      -3.432  11.575  17.412  0.00  0.00    +0.000 A 
ATOM     12  C   UNL     1      -4.046  11.258  16.200  0.00  0.00    +0.000 A 
ENDBRANCH   1  10
BRANCH   3  13
ATOM     13  C   UNL     1      -1.386  12.740  21.834  0.00  0.00    +0.000 A 
ATOM     14  C   UNL     1      -0.369  13.595  22.309  0.00  0.00    +0.000 A 
ATOM     15  C   UNL     1      -0.657  14.797  22.964  0.00  0.00    +0.000 A 
ATOM     16  C   UNL     1      -1.977  15.186  23.148  0.00  0.00    +0.000 A 
ATOM     17  C   UNL     1      -3.004  14.363  22.689  0.00  0.00    +0.000 A 
ATOM     18  C   UNL     1      -2.713  13.154  22.040  0.00  0.00    +0.000 A 
ENDBRANCH   3  13
BRANCH   4  19
ATOM     19  C   UNL     1       0.897  10.151  20.286  0.00  0.00    +0.000 A 
ATOM     20  C   UNL     1       0.913   9.185  21.311  0.00  0.00    +0.000 A 
ATOM     21  C   UNL     1       1.389   7.880  21.080  0.00  0.00    +0.000 A 
ATOM     22  C   UNL     1       1.854   7.508  19.818  0.00  0.00    +0.000 A 
ATOM     23  C   UNL     1       1.906   8.473  18.813  0.00  0.00    +0.000 A 
ATOM     24  C   UNL     1       1.445   9.778  19.046  0.00  0.00    +0.000 A 
BRANCH  22  25
ATOM     25  O   UNL     1       2.295   6.262  19.459  0.00  0.00    +0.000 OA
BRANCH  25  26
ATOM     26  C   UNL     1       2.254   5.219  20.439  0.00  0.00    +0.000 C 
ATOM     27  C   UNL     1       0.949   4.426  20.387  0.00  0.00    +0.000 C 
ATOM     28  C   UNL     1       1.305   3.044  20.905  0.00  0.00    +0.000 C 
ATOM     29  C   UNL     1       2.755   2.812  20.504  0.00  0.00    +0.000 C 
ATOM     30  C   UNL     1       3.325   4.171  20.108  0.00  0.00    +0.000 C 
ENDBRANCH  25  26
ENDBRANCH  22  25
ENDBRANCH   4  19
TORSDOF 5
ENDMDL
MODEL 9
REMARK VINA RESULT:      -7.8      7.261     10.951
REMARK  Name = 
REMARK  6 active torsions:
REMARK  status: ('A' for Active; 'I' for Inactive)
REMARK    1  A    between atoms: C_1  and  C_2
REMARK    2  A    between atoms: C_5  and  C_6
REMARK    3  A    between atoms: N_8  and  C_9
REMARK    4  A    between atoms: C_15  and  C_16
REMARK    5  A    between atoms: C_19  and  O_20
REMARK    6  A    between atoms: O_20  and  C_21
REMARK                            x       y       z     vdW  Elec       q    Type
REMARK                         _______ _______ _______ _____ _____    ______ ____
ROOT
ATOM      1  C   UNL     1      -1.209  11.035  19.004  0.00  0.00    +0.000 C 
ATOM      2  N   UNL     1      -1.609  10.771  20.215  0.00  0.00    +0.000 NA
ATOM      3  N   UNL     1      -0.548  11.102  21.070  0.00  0.00    +0.000 N 
ATOM      4  C   UNL     1       0.700  11.132  20.251  0.00  0.00    +0.000 C 
ATOM      5  C   UNL     1       0.146  11.695  18.941  0.00  0.00    +0.000 C 
ENDROOT
BRANCH   1  10
ATOM      6  C   UNL     1      -4.225  10.095  14.158  0.00  0.00    +0.000 C 
ATOM      7  C   UNL     1      -3.434  10.307  15.415  0.00  0.00    +0.000 A 
ATOM      8  C   UNL     1      -2.304   9.537  15.714  0.00  0.00    +0.000 A 
ATOM      9  C   UNL     1      -1.585   9.762  16.895  0.00  0.00    +0.000 A 
ATOM     10  C   UNL     1      -1.995  10.761  17.785  0.00  0.00    +0.000 A 
ATOM     11  C   UNL     1      -3.136  11.515  17.499  0.00  0.00    +0.000 A 
ATOM     12  C   UNL     1      -3.849  11.290  16.320  0.00  0.00    +0.000 A 
ENDBRANCH   1  10
BRANCH   3  13
ATOM     13  C   UNL     1      -0.759  12.292  21.845  0.00  0.00    +0.000 A 
ATOM     14  C   UNL     1      -1.800  12.382  22.794  0.00  0.00    +0.000 A 
ATOM     15  C   UNL     1      -2.006  13.535  23.559  0.00  0.00    +0.000 A 
ATOM     16  C   UNL     1      -1.163  14.628  23.406  0.00  0.00    +0.000 A 
ATOM     17  C   UNL     1      -0.126  14.569  22.477  0.00  0.00    +0.000 A 
ATOM     18  C   UNL     1       0.074  13.414  21.705  0.00  0.00    +0.000 A 
ENDBRANCH   3  13
BRANCH   4  19
ATOM     19  C   UNL     1       1.313   9.743  19.967  0.00  0.00    +0.000 A 
ATOM     20  C   UNL     1       1.322   8.695  20.908  0.00  0.00    +0.000 A 
ATOM     21  C   UNL     1       1.740   7.397  20.554  0.00  0.00    +0.000 A 
ATOM     22  C   UNL     1       2.152   7.116  19.251  0.00  0.00    +0.000 A 
ATOM     23  C   UNL     1       2.210   8.159  18.328  0.00  0.00    +0.000 A 
ATOM     24  C   UNL     1       1.808   9.455  18.683  0.00  0.00    +0.000 A 
BRANCH  22  25
ATOM     25  O   UNL     1       2.533   5.889  18.775  0.00  0.00    +0.000 OA
BRANCH  25  26
ATOM     26  C   UNL     1       1.788   4.739  19.192  0.00  0.00    +0.000 C 
ATOM     27  C   UNL     1       1.406   3.839  18.019  0.00  0.00    +0.000 C 
ATOM     28  C   UNL     1       1.292   2.445  18.609  0.00  0.00    +0.000 C 
ATOM     29  C   UNL     1       2.290   2.399  19.758  0.00  0.00    +0.000 C 
ATOM     30  C   UNL     1       2.685   3.843  20.057  0.00  0.00    +0.000 C 
ENDBRANCH  25  26
ENDBRANCH  22  25
ENDBRANCH   4  19
TORSDOF 5
ENDMDL
