MODEL 1
REMARK VINA RESULT:      -6.9      0.000      0.000
REMARK  Name = 
REMARK  17 active torsions:
REMARK  status: ('A' for Active; 'I' for Inactive)
REMARK    1  A    between atoms: C_1  and  C_2
REMARK    2  A    between atoms: C_2  and  C_3
REMARK    3  A    between atoms: C_3  and  C_4
REMARK    4  A    between atoms: C_4  and  C_5
REMARK    5  A    between atoms: C_5  and  C_6
REMARK    6  A    between atoms: C_6  and  C_7
REMARK    7  A    between atoms: C_6  and  C_12
REMARK    8  A    between atoms: C_7  and  C_8
REMARK    9  A    between atoms: N_10  and  O_11
REMARK   10  A    between atoms: N_14  and  C_15
REMARK   11  A    between atoms: C_15  and  C_16
REMARK   12  A    between atoms: C_15  and  C_20
REMARK   13  A    between atoms: C_16  and  C_17
REMARK   14  A    between atoms: C_17  and  C_18
REMARK   15  A    between atoms: C_17  and  C_19
REMARK   16  A    between atoms: C_20  and  O_22
REMARK   17  A    between atoms: O_22  and  C_23
REMARK                            x       y       z     vdW  Elec       q    Type
REMARK                         _______ _______ _______ _____ _____    ______ ____
ROOT
ATOM      1  C   UNL     1       3.555   4.345  18.003  0.00  0.00    +0.000 C 
ENDROOT
BRANCH   1   2
ATOM      2  C   UNL     1       4.382   5.394  17.254  0.00  0.00    +0.000 C 
ATOM      3  O   UNL     1       4.064   6.576  17.202  0.00  0.00    +0.000 OA
ATOM      4  N   UNL     1       5.532   4.914  16.677  0.00  0.00    +0.000 N 
ATOM      5  H   UNL     1       5.768   3.929  16.741  0.00  0.00    +0.000 HD
BRANCH   4   6
ATOM      6  C   UNL     1       6.397   5.762  15.840  0.00  0.00    +0.000 C 
BRANCH   6   7
ATOM      7  C   UNL     1       6.758   4.977  14.574  0.00  0.00    +0.000 C 
ATOM      8  O   UNL     1       7.699   5.256  13.835  0.00  0.00    +0.000 OA
BRANCH   7   9
ATOM      9  O   UNL     1       5.873   3.961  14.366  0.00  0.00    +0.000 OA
ATOM     10  C   UNL     1       5.746   3.542  13.005  0.00  0.00    +0.000 C 
ENDBRANCH   7   9
ENDBRANCH   6   7
BRANCH   6  11
ATOM     11  C   UNL     1       7.657   6.164  16.630  0.00  0.00    +0.000 C 
BRANCH  11  12
ATOM     12  C   UNL     1       7.405   6.900  17.965  0.00  0.00    +0.000 C 
ATOM     13  C   UNL     1       7.894   6.131  19.195  0.00  0.00    +0.000 C 
ATOM     14  C   UNL     1       8.067   8.281  17.973  0.00  0.00    +0.000 C 
ENDBRANCH  11  12
ENDBRANCH   6  11
ENDBRANCH   4   6
ENDBRANCH   1   2
BRANCH   1  15
ATOM     15  C   UNL     1       2.125   4.890  18.193  0.00  0.00    +0.000 C 
BRANCH  15  16
ATOM     16  C   UNL     1       1.047   3.826  17.935  0.00  0.00    +0.000 C 
BRANCH  16  17
ATOM     17  C   UNL     1       0.857   2.833  19.082  0.00  0.00    +0.000 C 
BRANCH  17  19
ATOM     18  C   UNL     1       1.492   2.775  21.518  0.00  0.00    +0.000 C 
ATOM     19  C   UNL     1       0.864   3.591  20.406  0.00  0.00    +0.000 C 
ENDBRANCH  17  19
ENDBRANCH  16  17
ENDBRANCH  15  16
ENDBRANCH   1  15
BRANCH   1  20
ATOM     20  C   UNL     1       4.280   4.019  19.316  0.00  0.00    +0.000 C 
BRANCH  20  21
ATOM     21  C   UNL     1       4.561   2.542  19.527  0.00  0.00    +0.000 C 
ATOM     22  O   UNL     1       5.034   2.071  20.559  0.00  0.00    +0.000 OA
ATOM     23  N   UNL     1       4.197   1.762  18.463  0.00  0.00    +0.000 N 
ATOM     24  H   UNL     1       3.773   2.101  17.598  0.00  0.00    +0.000 HD
BRANCH  23  25
ATOM     25  O   UNL     1       4.470   0.379  18.533  0.00  0.00    +0.000 OA
ATOM     26  H   UNL     1       4.371   0.095  17.597  0.00  0.00    +0.000 HD
ENDBRANCH  23  25
ENDBRANCH  20  21
ENDBRANCH   1  20
TORSDOF 13
ENDMDL
MODEL 2
REMARK VINA RESULT:      -6.6      2.172      6.415
REMARK  Name = 
REMARK  17 active torsions:
REMARK  status: ('A' for Active; 'I' for Inactive)
REMARK    1  A    between atoms: C_1  and  C_2
REMARK    2  A    between atoms: C_2  and  C_3
REMARK    3  A    between atoms: C_3  and  C_4
REMARK    4  A    between atoms: C_4  and  C_5
REMARK    5  A    between atoms: C_5  and  C_6
REMARK    6  A    between atoms: C_6  and  C_7
REMARK    7  A    between atoms: C_6  and  C_12
REMARK    8  A    between atoms: C_7  and  C_8
REMARK    9  A    between atoms: N_10  and  O_11
REMARK   10  A    between atoms: N_14  and  C_15
REMARK   11  A    between atoms: C_15  and  C_16
REMARK   12  A    between atoms: C_15  and  C_20
REMARK   13  A    between atoms: C_16  and  C_17
REMARK   14  A    between atoms: C_17  and  C_18
REMARK   15  A    between atoms: C_17  and  C_19
REMARK   16  A    between atoms: C_20  and  O_22
REMARK   17  A    between atoms: O_22  and  C_23
REMARK                            x       y       z     vdW  Elec       q    Type
REMARK                         _______ _______ _______ _____ _____    ______ ____
ROOT
ATOM      1  C   UNL     1       5.892   5.161  15.831  0.00  0.00    +0.000 C 
ENDROOT
BRANCH   1   2
ATOM      2  C   UNL     1       4.681   5.254  16.763  0.00  0.00    +0.000 C 
ATOM      3  O   UNL     1       3.999   6.267  16.867  0.00  0.00    +0.000 OA
ATOM      4  N   UNL     1       4.393   4.098  17.447  0.00  0.00    +0.000 N 
ATOM      5  H   UNL     1       4.976   3.275  17.336  0.00  0.00    +0.000 HD
BRANCH   4   6
ATOM      6  C   UNL     1       3.322   4.036  18.455  0.00  0.00    +0.000 C 
BRANCH   6   7
ATOM      7  C   UNL     1       3.595   5.111  19.514  0.00  0.00    +0.000 C 
ATOM      8  O   UNL     1       4.709   5.369  19.964  0.00  0.00    +0.000 OA
BRANCH   7   9
ATOM      9  O   UNL     1       2.434   5.706  19.909  0.00  0.00    +0.000 OA
ATOM     10  C   UNL     1       2.387   7.121  19.716  0.00  0.00    +0.000 C 
ENDBRANCH   7   9
ENDBRANCH   6   7
BRANCH   6  11
ATOM     11  C   UNL     1       3.275   2.630  19.083  0.00  0.00    +0.000 C 
BRANCH  11  12
ATOM     12  C   UNL     1       1.890   2.166  19.586  0.00  0.00    +0.000 C 
ATOM     13  C   UNL     1       1.610   2.533  21.046  0.00  0.00    +0.000 C 
ATOM     14  C   UNL     1       0.763   2.744  18.726  0.00  0.00    +0.000 C 
ENDBRANCH  11  12
ENDBRANCH   6  11
ENDBRANCH   4   6
ENDBRANCH   1   2
BRANCH   1  15
ATOM     15  C   UNL     1       5.523   4.263  14.633  0.00  0.00    +0.000 C 
BRANCH  15  16
ATOM     16  C   UNL     1       6.679   4.104  13.634  0.00  0.00    +0.000 C 
BRANCH  16  17
ATOM     17  C   UNL     1       6.252   3.612  12.251  0.00  0.00    +0.000 C 
BRANCH  17  19
ATOM     18  C   UNL     1       4.092   3.390  10.975  0.00  0.00    +0.000 C 
ATOM     19  C   UNL     1       4.790   3.178  12.304  0.00  0.00    +0.000 C 
ENDBRANCH  17  19
ENDBRANCH  16  17
ENDBRANCH  15  16
ENDBRANCH   1  15
BRANCH   1  20
ATOM     20  C   UNL     1       7.084   4.649  16.653  0.00  0.00    +0.000 C 
BRANCH  20  21
ATOM     21  C   UNL     1       7.448   5.522  17.840  0.00  0.00    +0.000 C 
ATOM     22  O   UNL     1       7.689   6.725  17.763  0.00  0.00    +0.000 OA
ATOM     23  N   UNL     1       7.445   4.849  19.031  0.00  0.00    +0.000 N 
ATOM     24  H   UNL     1       7.222   3.859  19.152  0.00  0.00    +0.000 HD
BRANCH  23  25
ATOM     25  O   UNL     1       7.828   5.556  20.192  0.00  0.00    +0.000 OA
ATOM     26  H   UNL     1       7.286   5.126  20.890  0.00  0.00    +0.000 HD
ENDBRANCH  23  25
ENDBRANCH  20  21
ENDBRANCH   1  20
TORSDOF 13
ENDMDL
MODEL 3
REMARK VINA RESULT:      -6.6      2.109      6.562
REMARK  Name = 
REMARK  17 active torsions:
REMARK  status: ('A' for Active; 'I' for Inactive)
REMARK    1  A    between atoms: C_1  and  C_2
REMARK    2  A    between atoms: C_2  and  C_3
REMARK    3  A    between atoms: C_3  and  C_4
REMARK    4  A    between atoms: C_4  and  C_5
REMARK    5  A    between atoms: C_5  and  C_6
REMARK    6  A    between atoms: C_6  and  C_7
REMARK    7  A    between atoms: C_6  and  C_12
REMARK    8  A    between atoms: C_7  and  C_8
REMARK    9  A    between atoms: N_10  and  O_11
REMARK   10  A    between atoms: N_14  and  C_15
REMARK   11  A    between atoms: C_15  and  C_16
REMARK   12  A    between atoms: C_15  and  C_20
REMARK   13  A    between atoms: C_16  and  C_17
REMARK   14  A    between atoms: C_17  and  C_18
REMARK   15  A    between atoms: C_17  and  C_19
REMARK   16  A    between atoms: C_20  and  O_22
REMARK   17  A    between atoms: O_22  and  C_23
REMARK                            x       y       z     vdW  Elec       q    Type
REMARK                         _______ _______ _______ _____ _____    ______ ____
ROOT
ATOM      1  C   UNL     1       5.290   4.621  17.366  0.00  0.00    +0.000 C 
ENDROOT
BRANCH   1   2
ATOM      2  C   UNL     1       3.825   4.746  17.792  0.00  0.00    +0.000 C 
ATOM      3  O   UNL     1       2.905   4.239  17.163  0.00  0.00    +0.000 OA
ATOM      4  N   UNL     1       3.625   5.440  18.960  0.00  0.00    +0.000 N 
ATOM      5  H   UNL     1       4.409   5.846  19.460  0.00  0.00    +0.000 HD
BRANCH   4   6
ATOM      6  C   UNL     1       2.275   5.738  19.467  0.00  0.00    +0.000 C 
BRANCH   6   7
ATOM      7  C   UNL     1       2.065   7.256  19.412  0.00  0.00    +0.000 C 
ATOM      8  O   UNL     1       1.874   7.963  20.398  0.00  0.00    +0.000 OA
BRANCH   7   9
ATOM      9  O   UNL     1       2.080   7.699  18.122  0.00  0.00    +0.000 OA
ATOM     10  C   UNL     1       2.023   9.119  17.973  0.00  0.00    +0.000 C 
ENDBRANCH   7   9
ENDBRANCH   6   7
BRANCH   6  11
ATOM     11  C   UNL     1       2.127   5.204  20.905  0.00  0.00    +0.000 C 
BRANCH  11  12
ATOM     12  C   UNL     1       1.519   3.789  21.035  0.00  0.00    +0.000 C 
ATOM     13  C   UNL     1       0.828   3.296  19.761  0.00  0.00    +0.000 C 
ATOM     14  C   UNL     1       2.582   2.760  21.429  0.00  0.00    +0.000 C 
ENDBRANCH  11  12
ENDBRANCH   6  11
ENDBRANCH   4   6
ENDBRANCH   1   2
BRANCH   1  15
ATOM     15  C   UNL     1       6.184   4.881  18.596  0.00  0.00    +0.000 C 
BRANCH  15  16
ATOM     16  C   UNL     1       7.589   5.370  18.214  0.00  0.00    +0.000 C 
BRANCH  16  17
ATOM     17  C   UNL     1       7.946   6.751  18.764  0.00  0.00    +0.000 C 
BRANCH  17  19
ATOM     18  C   UNL     1       8.263   9.161  18.107  0.00  0.00    +0.000 C 
ATOM     19  C   UNL     1       7.911   7.767  17.627  0.00  0.00    +0.000 C 
ENDBRANCH  17  19
ENDBRANCH  16  17
ENDBRANCH  15  16
ENDBRANCH   1  15
BRANCH   1  20
ATOM     20  C   UNL     1       5.530   5.592  16.202  0.00  0.00    +0.000 C 
BRANCH  20  21
ATOM     21  C   UNL     1       6.342   5.013  15.058  0.00  0.00    +0.000 C 
ATOM     22  O   UNL     1       7.473   5.386  14.757  0.00  0.00    +0.000 OA
ATOM     23  N   UNL     1       5.708   3.990  14.405  0.00  0.00    +0.000 N 
ATOM     24  H   UNL     1       4.783   3.623  14.636  0.00  0.00    +0.000 HD
BRANCH  23  25
ATOM     25  O   UNL     1       6.353   3.420  13.286  0.00  0.00    +0.000 OA
ATOM     26  H   UNL     1       6.173   4.078  12.579  0.00  0.00    +0.000 HD
ENDBRANCH  23  25
ENDBRANCH  20  21
ENDBRANCH   1  20
TORSDOF 13
ENDMDL
MODEL 4
REMARK VINA RESULT:      -6.5      2.109      6.727
REMARK  Name = 
REMARK  17 active torsions:
REMARK  status: ('A' for Active; 'I' for Inactive)
REMARK    1  A    between atoms: C_1  and  C_2
REMARK    2  A    between atoms: C_2  and  C_3
REMARK    3  A    between atoms: C_3  and  C_4
REMARK    4  A    between atoms: C_4  and  C_5
REMARK    5  A    between atoms: C_5  and  C_6
REMARK    6  A    between atoms: C_6  and  C_7
REMARK    7  A    between atoms: C_6  and  C_12
REMARK    8  A    between atoms: C_7  and  C_8
REMARK    9  A    between atoms: N_10  and  O_11
REMARK   10  A    between atoms: N_14  and  C_15
REMARK   11  A    between atoms: C_15  and  C_16
REMARK   12  A    between atoms: C_15  and  C_20
REMARK   13  A    between atoms: C_16  and  C_17
REMARK   14  A    between atoms: C_17  and  C_18
REMARK   15  A    between atoms: C_17  and  C_19
REMARK   16  A    between atoms: C_20  and  O_22
REMARK   17  A    between atoms: O_22  and  C_23
REMARK                            x       y       z     vdW  Elec       q    Type
REMARK                         _______ _______ _______ _____ _____    ______ ____
ROOT
ATOM      1  C   UNL     1       5.483   4.794  17.368  0.00  0.00    +0.000 C 
ENDROOT
BRANCH   1   2
ATOM      2  C   UNL     1       3.994   4.858  17.719  0.00  0.00    +0.000 C 
ATOM      3  O   UNL     1       3.140   4.233  17.102  0.00  0.00    +0.000 OA
ATOM      4  N   UNL     1       3.693   5.641  18.806  0.00  0.00    +0.000 N 
ATOM      5  H   UNL     1       4.425   6.144  19.297  0.00  0.00    +0.000 HD
BRANCH   4   6
ATOM      6  C   UNL     1       2.304   5.891  19.226  0.00  0.00    +0.000 C 
BRANCH   6   7
ATOM      7  C   UNL     1       2.118   7.404  19.394  0.00  0.00    +0.000 C 
ATOM      8  O   UNL     1       2.392   8.233  18.531  0.00  0.00    +0.000 OA
BRANCH   7   9
ATOM      9  O   UNL     1       1.647   7.697  20.640  0.00  0.00    +0.000 OA
ATOM     10  C   UNL     1       0.938   8.933  20.740  0.00  0.00    +0.000 C 
ENDBRANCH   7   9
ENDBRANCH   6   7
BRANCH   6  11
ATOM     11  C   UNL     1       2.011   5.140  20.539  0.00  0.00    +0.000 C 
BRANCH  11  12
ATOM     12  C   UNL     1       2.076   3.599  20.458  0.00  0.00    +0.000 C 
ATOM     13  C   UNL     1       2.163   2.914  21.824  0.00  0.00    +0.000 C 
ATOM     14  C   UNL     1       0.863   3.029  19.717  0.00  0.00    +0.000 C 
ENDBRANCH  11  12
ENDBRANCH   6  11
ENDBRANCH   4   6
ENDBRANCH   1   2
BRANCH   1  15
ATOM     15  C   UNL     1       6.298   5.233  18.602  0.00  0.00    +0.000 C 
BRANCH  15  16
ATOM     16  C   UNL     1       7.750   5.592  18.255  0.00  0.00    +0.000 C 
BRANCH  16  17
ATOM     17  C   UNL     1       8.185   6.980  18.727  0.00  0.00    +0.000 C 
BRANCH  17  19
ATOM     18  C   UNL     1       8.309   9.397  18.031  0.00  0.00    +0.000 C 
ATOM     19  C   UNL     1       7.851   8.004  17.647  0.00  0.00    +0.000 C 
ENDBRANCH  17  19
ENDBRANCH  16  17
ENDBRANCH  15  16
ENDBRANCH   1  15
BRANCH   1  20
ATOM     20  C   UNL     1       5.714   5.663  16.124  0.00  0.00    +0.000 C 
BRANCH  20  21
ATOM     21  C   UNL     1       6.469   4.969  15.006  0.00  0.00    +0.000 C 
ATOM     22  O   UNL     1       7.596   5.288  14.633  0.00  0.00    +0.000 OA
ATOM     23  N   UNL     1       5.789   3.910  14.466  0.00  0.00    +0.000 N 
ATOM     24  H   UNL     1       4.866   3.586  14.762  0.00  0.00    +0.000 HD
BRANCH  23  25
ATOM     25  O   UNL     1       6.379   3.231  13.378  0.00  0.00    +0.000 OA
ATOM     26  H   UNL     1       5.605   2.798  12.954  0.00  0.00    +0.000 HD
ENDBRANCH  23  25
ENDBRANCH  20  21
ENDBRANCH   1  20
TORSDOF 13
ENDMDL
MODEL 5
REMARK VINA RESULT:      -6.5      2.360      6.664
REMARK  Name = 
REMARK  17 active torsions:
REMARK  status: ('A' for Active; 'I' for Inactive)
REMARK    1  A    between atoms: C_1  and  C_2
REMARK    2  A    between atoms: C_2  and  C_3
REMARK    3  A    between atoms: C_3  and  C_4
REMARK    4  A    between atoms: C_4  and  C_5
REMARK    5  A    between atoms: C_5  and  C_6
REMARK    6  A    between atoms: C_6  and  C_7
REMARK    7  A    between atoms: C_6  and  C_12
REMARK    8  A    between atoms: C_7  and  C_8
REMARK    9  A    between atoms: N_10  and  O_11
REMARK   10  A    between atoms: N_14  and  C_15
REMARK   11  A    between atoms: C_15  and  C_16
REMARK   12  A    between atoms: C_15  and  C_20
REMARK   13  A    between atoms: C_16  and  C_17
REMARK   14  A    between atoms: C_17  and  C_18
REMARK   15  A    between atoms: C_17  and  C_19
REMARK   16  A    between atoms: C_20  and  O_22
REMARK   17  A    between atoms: O_22  and  C_23
REMARK                            x       y       z     vdW  Elec       q    Type
REMARK                         _______ _______ _______ _____ _____    ______ ____
ROOT
ATOM      1  C   UNL     1       5.623   4.954  16.714  0.00  0.00    +0.000 C 
ENDROOT
BRANCH   1   2
ATOM      2  C   UNL     1       4.252   4.767  17.368  0.00  0.00    +0.000 C 
ATOM      3  O   UNL     1       3.480   3.872  17.048  0.00  0.00    +0.000 OA
ATOM      4  N   UNL     1       3.969   5.660  18.373  0.00  0.00    +0.000 N 
ATOM      5  H   UNL     1       4.632   6.389  18.616  0.00  0.00    +0.000 HD
BRANCH   4   6
ATOM      6  C   UNL     1       2.660   5.687  19.046  0.00  0.00    +0.000 C 
BRANCH   6   7
ATOM      7  C   UNL     1       2.321   7.144  19.381  0.00  0.00    +0.000 C 
ATOM      8  O   UNL     1       1.755   7.502  20.410  0.00  0.00    +0.000 OA
BRANCH   7   9
ATOM      9  O   UNL     1       2.699   7.973  18.366  0.00  0.00    +0.000 OA
ATOM     10  C   UNL     1       1.708   8.920  17.962  0.00  0.00    +0.000 C 
ENDBRANCH   7   9
ENDBRANCH   6   7
BRANCH   6  11
ATOM     11  C   UNL     1       2.708   4.816  20.316  0.00  0.00    +0.000 C 
BRANCH  11  12
ATOM     12  C   UNL     1       1.451   3.959  20.589  0.00  0.00    +0.000 C 
ATOM     13  C   UNL     1       0.903   3.256  19.344  0.00  0.00    +0.000 C 
ATOM     14  C   UNL     1       1.724   2.894  21.656  0.00  0.00    +0.000 C 
ENDBRANCH  11  12
ENDBRANCH   6  11
ENDBRANCH   4   6
ENDBRANCH   1   2
BRANCH   1  15
ATOM     15  C   UNL     1       5.779   3.907  15.592  0.00  0.00    +0.000 C 
BRANCH  15  16
ATOM     16  C   UNL     1       6.202   4.532  14.254  0.00  0.00    +0.000 C 
BRANCH  16  17
ATOM     17  C   UNL     1       6.181   3.562  13.072  0.00  0.00    +0.000 C 
BRANCH  17  19
ATOM     18  C   UNL     1       4.674   2.653  11.271  0.00  0.00    +0.000 C 
ATOM     19  C   UNL     1       4.884   3.754  12.291  0.00  0.00    +0.000 C 
ENDBRANCH  17  19
ENDBRANCH  16  17
ENDBRANCH  15  16
ENDBRANCH   1  15
BRANCH   1  20
ATOM     20  C   UNL     1       6.690   4.857  17.813  0.00  0.00    +0.000 C 
BRANCH  20  21
ATOM     21  C   UNL     1       7.438   6.151  18.077  0.00  0.00    +0.000 C 
ATOM     22  O   UNL     1       8.109   6.367  19.084  0.00  0.00    +0.000 OA
ATOM     23  N   UNL     1       7.332   7.058  17.057  0.00  0.00    +0.000 N 
ATOM     24  H   UNL     1       6.814   6.914  16.188  0.00  0.00    +0.000 HD
BRANCH  23  25
ATOM     25  O   UNL     1       7.944   8.319  17.227  0.00  0.00    +0.000 OA
ATOM     26  H   UNL     1       8.625   8.321  16.519  0.00  0.00    +0.000 HD
ENDBRANCH  23  25
ENDBRANCH  20  21
ENDBRANCH   1  20
TORSDOF 13
ENDMDL
MODEL 6
REMARK VINA RESULT:      -6.5      2.226      6.866
REMARK  Name = 
REMARK  17 active torsions:
REMARK  status: ('A' for Active; 'I' for Inactive)
REMARK    1  A    between atoms: C_1  and  C_2
REMARK    2  A    between atoms: C_2  and  C_3
REMARK    3  A    between atoms: C_3  and  C_4
REMARK    4  A    between atoms: C_4  and  C_5
REMARK    5  A    between atoms: C_5  and  C_6
REMARK    6  A    between atoms: C_6  and  C_7
REMARK    7  A    between atoms: C_6  and  C_12
REMARK    8  A    between atoms: C_7  and  C_8
REMARK    9  A    between atoms: N_10  and  O_11
REMARK   10  A    between atoms: N_14  and  C_15
REMARK   11  A    between atoms: C_15  and  C_16
REMARK   12  A    between atoms: C_15  and  C_20
REMARK   13  A    between atoms: C_16  and  C_17
REMARK   14  A    between atoms: C_17  and  C_18
REMARK   15  A    between atoms: C_17  and  C_19
REMARK   16  A    between atoms: C_20  and  O_22
REMARK   17  A    between atoms: O_22  and  C_23
REMARK                            x       y       z     vdW  Elec       q    Type
REMARK                         _______ _______ _______ _____ _____    ______ ____
ROOT
ATOM      1  C   UNL     1       5.391   4.752  17.689  0.00  0.00    +0.000 C 
ENDROOT
BRANCH   1   2
ATOM      2  C   UNL     1       3.904   4.811  18.053  0.00  0.00    +0.000 C 
ATOM      3  O   UNL     1       3.032   4.294  17.367  0.00  0.00    +0.000 OA
ATOM      4  N   UNL     1       3.628   5.457  19.233  0.00  0.00    +0.000 N 
ATOM      5  H   UNL     1       4.375   5.873  19.780  0.00  0.00    +0.000 HD
BRANCH   4   6
ATOM      6  C   UNL     1       2.248   5.690  19.689  0.00  0.00    +0.000 C 
BRANCH   6   7
ATOM      7  C   UNL     1       2.008   7.203  19.742  0.00  0.00    +0.000 C 
ATOM      8  O   UNL     1       2.325   7.984  18.848  0.00  0.00    +0.000 OA
BRANCH   7   9
ATOM      9  O   UNL     1       1.433   7.560  20.926  0.00  0.00    +0.000 OA
ATOM     10  C   UNL     1       0.956   8.906  20.982  0.00  0.00    +0.000 C 
ENDBRANCH   7   9
ENDBRANCH   6   7
BRANCH   6  11
ATOM     11  C   UNL     1       2.037   5.040  21.070  0.00  0.00    +0.000 C 
BRANCH  11  12
ATOM     12  C   UNL     1       1.516   3.586  21.054  0.00  0.00    +0.000 C 
ATOM     13  C   UNL     1       0.821   3.195  19.747  0.00  0.00    +0.000 C 
ATOM     14  C   UNL     1       2.647   2.586  21.310  0.00  0.00    +0.000 C 
ENDBRANCH  11  12
ENDBRANCH   6  11
ENDBRANCH   4   6
ENDBRANCH   1   2
BRANCH   1  15
ATOM     15  C   UNL     1       6.046   6.092  18.079  0.00  0.00    +0.000 C 
BRANCH  15  16
ATOM     16  C   UNL     1       7.330   5.906  18.902  0.00  0.00    +0.000 C 
BRANCH  16  17
ATOM     17  C   UNL     1       8.317   7.069  18.799  0.00  0.00    +0.000 C 
BRANCH  17  19
ATOM     18  C   UNL     1       8.312   9.441  17.952  0.00  0.00    +0.000 C 
ATOM     19  C   UNL     1       7.860   8.018  17.695  0.00  0.00    +0.000 C 
ENDBRANCH  17  19
ENDBRANCH  16  17
ENDBRANCH  15  16
ENDBRANCH   1  15
BRANCH   1  20
ATOM     20  C   UNL     1       5.499   4.413  16.195  0.00  0.00    +0.000 C 
BRANCH  20  21
ATOM     21  C   UNL     1       6.866   4.675  15.590  0.00  0.00    +0.000 C 
ATOM     22  O   UNL     1       7.927   4.340  16.113  0.00  0.00    +0.000 OA
ATOM     23  N   UNL     1       6.812   5.294  14.370  0.00  0.00    +0.000 N 
ATOM     24  H   UNL     1       5.957   5.565  13.881  0.00  0.00    +0.000 HD
BRANCH  23  25
ATOM     25  O   UNL     1       8.032   5.637  13.748  0.00  0.00    +0.000 OA
ATOM     26  H   UNL     1       7.907   5.292  12.835  0.00  0.00    +0.000 HD
ENDBRANCH  23  25
ENDBRANCH  20  21
ENDBRANCH   1  20
TORSDOF 13
ENDMDL
MODEL 7
REMARK VINA RESULT:      -6.5      2.440      6.309
REMARK  Name = 
REMARK  17 active torsions:
REMARK  status: ('A' for Active; 'I' for Inactive)
REMARK    1  A    between atoms: C_1  and  C_2
REMARK    2  A    between atoms: C_2  and  C_3
REMARK    3  A    between atoms: C_3  and  C_4
REMARK    4  A    between atoms: C_4  and  C_5
REMARK    5  A    between atoms: C_5  and  C_6
REMARK    6  A    between atoms: C_6  and  C_7
REMARK    7  A    between atoms: C_6  and  C_12
REMARK    8  A    between atoms: C_7  and  C_8
REMARK    9  A    between atoms: N_10  and  O_11
REMARK   10  A    between atoms: N_14  and  C_15
REMARK   11  A    between atoms: C_15  and  C_16
REMARK   12  A    between atoms: C_15  and  C_20
REMARK   13  A    between atoms: C_16  and  C_17
REMARK   14  A    between atoms: C_17  and  C_18
REMARK   15  A    between atoms: C_17  and  C_19
REMARK   16  A    between atoms: C_20  and  O_22
REMARK   17  A    between atoms: O_22  and  C_23
REMARK                            x       y       z     vdW  Elec       q    Type
REMARK                         _______ _______ _______ _____ _____    ______ ____
ROOT
ATOM      1  C   UNL     1       6.258   5.851  16.215  0.00  0.00    +0.000 C 
ENDROOT
BRANCH   1   2
ATOM      2  C   UNL     1       4.906   5.538  16.860  0.00  0.00    +0.000 C 
ATOM      3  O   UNL     1       4.388   4.429  16.810  0.00  0.00    +0.000 OA
ATOM      4  N   UNL     1       4.336   6.588  17.536  0.00  0.00    +0.000 N 
ATOM      5  H   UNL     1       4.792   7.494  17.561  0.00  0.00    +0.000 HD
BRANCH   4   6
ATOM      6  C   UNL     1       2.994   6.492  18.136  0.00  0.00    +0.000 C 
BRANCH   6   7
ATOM      7  C   UNL     1       2.398   7.903  18.206  0.00  0.00    +0.000 C 
ATOM      8  O   UNL     1       2.388   8.696  17.269  0.00  0.00    +0.000 OA
BRANCH   7   9
ATOM      9  O   UNL     1       1.920   8.163  19.457  0.00  0.00    +0.000 OA
ATOM     10  C   UNL     1       1.033   9.281  19.542  0.00  0.00    +0.000 C 
ENDBRANCH   7   9
ENDBRANCH   6   7
BRANCH   6  11
ATOM     11  C   UNL     1       3.091   5.854  19.534  0.00  0.00    +0.000 C 
BRANCH  11  12
ATOM     12  C   UNL     1       2.299   4.541  19.728  0.00  0.00    +0.000 C 
ATOM     13  C   UNL     1       1.516   4.106  18.487  0.00  0.00    +0.000 C 
ATOM     14  C   UNL     1       3.221   3.390  20.138  0.00  0.00    +0.000 C 
ENDBRANCH  11  12
ENDBRANCH   6  11
ENDBRANCH   4   6
ENDBRANCH   1   2
BRANCH   1  15
ATOM     15  C   UNL     1       6.816   4.557  15.587  0.00  0.00    +0.000 C 
BRANCH  15  16
ATOM     16  C   UNL     1       6.678   4.534  14.057  0.00  0.00    +0.000 C 
BRANCH  16  17
ATOM     17  C   UNL     1       5.529   3.666  13.543  0.00  0.00    +0.000 C 
BRANCH  17  19
ATOM     18  C   UNL     1       4.309   3.098  11.414  0.00  0.00    +0.000 C 
ATOM     19  C   UNL     1       5.613   3.575  12.022  0.00  0.00    +0.000 C 
ENDBRANCH  17  19
ENDBRANCH  16  17
ENDBRANCH  15  16
ENDBRANCH   1  15
BRANCH   1  20
ATOM     20  C   UNL     1       7.165   6.466  17.290  0.00  0.00    +0.000 C 
BRANCH  20  21
ATOM     21  C   UNL     1       7.621   5.491  18.359  0.00  0.00    +0.000 C 
ATOM     22  O   UNL     1       7.822   4.295  18.161  0.00  0.00    +0.000 OA
ATOM     23  N   UNL     1       7.831   6.079  19.577  0.00  0.00    +0.000 N 
ATOM     24  H   UNL     1       7.709   7.072  19.785  0.00  0.00    +0.000 HD
BRANCH  23  25
ATOM     25  O   UNL     1       8.201   5.248  20.658  0.00  0.00    +0.000 OA
ATOM     26  H   UNL     1       9.155   5.086  20.483  0.00  0.00    +0.000 HD
ENDBRANCH  23  25
ENDBRANCH  20  21
ENDBRANCH   1  20
TORSDOF 13
ENDMDL
MODEL 8
REMARK VINA RESULT:      -6.5      1.967      6.254
REMARK  Name = 
REMARK  17 active torsions:
REMARK  status: ('A' for Active; 'I' for Inactive)
REMARK    1  A    between atoms: C_1  and  C_2
REMARK    2  A    between atoms: C_2  and  C_3
REMARK    3  A    between atoms: C_3  and  C_4
REMARK    4  A    between atoms: C_4  and  C_5
REMARK    5  A    between atoms: C_5  and  C_6
REMARK    6  A    between atoms: C_6  and  C_7
REMARK    7  A    between atoms: C_6  and  C_12
REMARK    8  A    between atoms: C_7  and  C_8
REMARK    9  A    between atoms: N_10  and  O_11
REMARK   10  A    between atoms: N_14  and  C_15
REMARK   11  A    between atoms: C_15  and  C_16
REMARK   12  A    between atoms: C_15  and  C_20
REMARK   13  A    between atoms: C_16  and  C_17
REMARK   14  A    between atoms: C_17  and  C_18
REMARK   15  A    between atoms: C_17  and  C_19
REMARK   16  A    between atoms: C_20  and  O_22
REMARK   17  A    between atoms: O_22  and  C_23
REMARK                            x       y       z     vdW  Elec       q    Type
REMARK                         _______ _______ _______ _____ _____    ______ ____
ROOT
ATOM      1  C   UNL     1       5.905   5.593  16.349  0.00  0.00    +0.000 C 
ENDROOT
BRANCH   1   2
ATOM      2  C   UNL     1       4.902   5.348  17.479  0.00  0.00    +0.000 C 
ATOM      3  O   UNL     1       4.621   6.200  18.313  0.00  0.00    +0.000 OA
ATOM      4  N   UNL     1       4.311   4.109  17.462  0.00  0.00    +0.000 N 
ATOM      5  H   UNL     1       4.564   3.426  16.756  0.00  0.00    +0.000 HD
BRANCH   4   6
ATOM      6  C   UNL     1       3.394   3.669  18.527  0.00  0.00    +0.000 C 
BRANCH   6   7
ATOM      7  C   UNL     1       3.218   2.150  18.412  0.00  0.00    +0.000 C 
ATOM      8  O   UNL     1       2.396   1.604  17.681  0.00  0.00    +0.000 OA
BRANCH   7   9
ATOM      9  O   UNL     1       4.067   1.500  19.259  0.00  0.00    +0.000 OA
ATOM     10  C   UNL     1       4.328   2.181  20.488  0.00  0.00    +0.000 C 
ENDBRANCH   7   9
ENDBRANCH   6   7
BRANCH   6  11
ATOM     11  C   UNL     1       2.045   4.402  18.392  0.00  0.00    +0.000 C 
BRANCH  11  12
ATOM     12  C   UNL     1       1.270   4.627  19.709  0.00  0.00    +0.000 C 
ATOM     13  C   UNL     1       0.734   3.338  20.337  0.00  0.00    +0.000 C 
ATOM     14  C   UNL     1       2.137   5.340  20.751  0.00  0.00    +0.000 C 
ENDBRANCH  11  12
ENDBRANCH   6  11
ENDBRANCH   4   6
ENDBRANCH   1   2
BRANCH   1  15
ATOM     15  C   UNL     1       6.128   4.268  15.593  0.00  0.00    +0.000 C 
BRANCH  15  16
ATOM     16  C   UNL     1       5.795   4.376  14.097  0.00  0.00    +0.000 C 
BRANCH  16  17
ATOM     17  C   UNL     1       7.019   4.494  13.188  0.00  0.00    +0.000 C 
BRANCH  17  19
ATOM     18  C   UNL     1       5.396   3.067  11.894  0.00  0.00    +0.000 C 
ATOM     19  C   UNL     1       6.791   3.660  11.931  0.00  0.00    +0.000 C 
ENDBRANCH  17  19
ENDBRANCH  16  17
ENDBRANCH  15  16
ENDBRANCH   1  15
BRANCH   1  20
ATOM     20  C   UNL     1       7.181   6.184  16.967  0.00  0.00    +0.000 C 
BRANCH  20  21
ATOM     21  C   UNL     1       7.742   5.385  18.129  0.00  0.00    +0.000 C 
ATOM     22  O   UNL     1       8.266   4.279  18.017  0.00  0.00    +0.000 OA
ATOM     23  N   UNL     1       7.648   6.035  19.330  0.00  0.00    +0.000 N 
ATOM     24  H   UNL     1       7.250   6.966  19.471  0.00  0.00    +0.000 HD
BRANCH  23  25
ATOM     25  O   UNL     1       8.088   5.354  20.486  0.00  0.00    +0.000 OA
ATOM     26  H   UNL     1       7.326   5.461  21.098  0.00  0.00    +0.000 HD
ENDBRANCH  23  25
ENDBRANCH  20  21
ENDBRANCH   1  20
TORSDOF 13
ENDMDL
MODEL 9
REMARK VINA RESULT:      -6.5      2.232      6.388
REMARK  Name = 
REMARK  17 active torsions:
REMARK  status: ('A' for Active; 'I' for Inactive)
REMARK    1  A    between atoms: C_1  and  C_2
REMARK    2  A    between atoms: C_2  and  C_3
REMARK    3  A    between atoms: C_3  and  C_4
REMARK    4  A    between atoms: C_4  and  C_5
REMARK    5  A    between atoms: C_5  and  C_6
REMARK    6  A    between atoms: C_6  and  C_7
REMARK    7  A    between atoms: C_6  and  C_12
REMARK    8  A    between atoms: C_7  and  C_8
REMARK    9  A    between atoms: N_10  and  O_11
REMARK   10  A    between atoms: N_14  and  C_15
REMARK   11  A    between atoms: C_15  and  C_16
REMARK   12  A    between atoms: C_15  and  C_20
REMARK   13  A    between atoms: C_16  and  C_17
REMARK   14  A    between atoms: C_17  and  C_18
REMARK   15  A    between atoms: C_17  and  C_19
REMARK   16  A    between atoms: C_20  and  O_22
REMARK   17  A    between atoms: O_22  and  C_23
REMARK                            x       y       z     vdW  Elec       q    Type
REMARK                         _______ _______ _______ _____ _____    ______ ____
ROOT
ATOM      1  C   UNL     1       6.258   4.446  17.043  0.00  0.00    +0.000 C 
ENDROOT
BRANCH   1   2
ATOM      2  C   UNL     1       5.174   4.596  18.114  0.00  0.00    +0.000 C 
ATOM      3  O   UNL     1       5.311   4.184  19.259  0.00  0.00    +0.000 OA
ATOM      4  N   UNL     1       4.049   5.266  17.701  0.00  0.00    +0.000 N 
ATOM      5  H   UNL     1       3.968   5.598  16.745  0.00  0.00    +0.000 HD
BRANCH   4   6
ATOM      6  C   UNL     1       2.870   5.418  18.570  0.00  0.00    +0.000 C 
BRANCH   6   7
ATOM      7  C   UNL     1       1.930   4.234  18.317  0.00  0.00    +0.000 C 
ATOM      8  O   UNL     1       1.346   4.031  17.256  0.00  0.00    +0.000 OA
BRANCH   7   9
ATOM      9  O   UNL     1       1.805   3.468  19.439  0.00  0.00    +0.000 OA
ATOM     10  C   UNL     1       2.138   2.089  19.266  0.00  0.00    +0.000 C 
ENDBRANCH   7   9
ENDBRANCH   6   7
BRANCH   6  11
ATOM     11  C   UNL     1       2.173   6.761  18.276  0.00  0.00    +0.000 C 
BRANCH  11  12
ATOM     12  C   UNL     1       2.179   7.786  19.432  0.00  0.00    +0.000 C 
ATOM     13  C   UNL     1       1.398   9.066  19.123  0.00  0.00    +0.000 C 
ATOM     14  C   UNL     1       1.609   7.179  20.717  0.00  0.00    +0.000 C 
ENDBRANCH  11  12
ENDBRANCH   6  11
ENDBRANCH   4   6
ENDBRANCH   1   2
BRANCH   1  15
ATOM     15  C   UNL     1       7.505   5.236  17.491  0.00  0.00    +0.000 C 
BRANCH  15  16
ATOM     16  C   UNL     1       7.283   6.755  17.469  0.00  0.00    +0.000 C 
BRANCH  16  17
ATOM     17  C   UNL     1       8.216   7.540  18.393  0.00  0.00    +0.000 C 
BRANCH  17  19
ATOM     18  C   UNL     1       9.023   9.865  18.926  0.00  0.00    +0.000 C 
ATOM     19  C   UNL     1       8.231   9.004  17.963  0.00  0.00    +0.000 C 
ENDBRANCH  17  19
ENDBRANCH  16  17
ENDBRANCH  15  16
ENDBRANCH   1  15
BRANCH   1  20
ATOM     20  C   UNL     1       5.669   4.914  15.704  0.00  0.00    +0.000 C 
BRANCH  20  21
ATOM     21  C   UNL     1       6.534   4.603  14.496  0.00  0.00    +0.000 C 
ATOM     22  O   UNL     1       7.551   5.226  14.198  0.00  0.00    +0.000 OA
ATOM     23  N   UNL     1       6.097   3.523  13.778  0.00  0.00    +0.000 N 
ATOM     24  H   UNL     1       5.278   2.955  14.001  0.00  0.00    +0.000 HD
BRANCH  23  25
ATOM     25  O   UNL     1       6.798   3.185  12.599  0.00  0.00    +0.000 OA
ATOM     26  H   UNL     1       7.031   4.067  12.232  0.00  0.00    +0.000 HD
ENDBRANCH  23  25
ENDBRANCH  20  21
ENDBRANCH   1  20
TORSDOF 13
ENDMDL
