MODEL 1
REMARK VINA RESULT:      -7.7      0.000      0.000
REMARK  Name = 
REMARK  3 active torsions:
REMARK  status: ('A' for Active; 'I' for Inactive)
REMARK    1  A    between atoms: N_1  and  C_2
REMARK    2  A    between atoms: C_5  and  N_6
REMARK    3  A    between atoms: N_6  and  C_7
REMARK                            x       y       z     vdW  Elec       q    Type
REMARK                         _______ _______ _______ _____ _____    ______ ____
ROOT
ATOM      1  N   UNL     1       3.684   4.936  17.745  0.00  0.00    +0.000 NA
ATOM      2  H   UNL     1       4.408   5.252  18.422  0.00  0.00    +0.000 HD
ENDROOT
BRANCH   1   3
ATOM      3  C   UNL     1       4.214   4.104  16.631  0.00  0.00    +0.000 C 
ATOM      4  C   UNL     1       5.173   4.578  15.518  0.00  0.00    +0.000 C 
ATOM      5  C   UNL     1       5.823   5.968  15.414  0.00  0.00    +0.000 C 
ATOM      6  C   UNL     1       6.599   6.094  16.653  0.00  0.00    +0.000 A 
ATOM      7  C   UNL     1       7.322   7.211  17.073  0.00  0.00    +0.000 A 
ATOM      8  C   UNL     1       7.963   7.164  18.317  0.00  0.00    +0.000 A 
ATOM      9  C   UNL     1       7.885   5.998  19.107  0.00  0.00    +0.000 A 
ATOM     10  C   UNL     1       7.180   4.876  18.642  0.00  0.00    +0.000 A 
ATOM     11  C   UNL     1       6.546   4.940  17.399  0.00  0.00    +0.000 A 
ATOM     12  C   UNL     1       5.726   3.855  16.765  0.00  0.00    +0.000 C 
ENDBRANCH   1   3
BRANCH   1  16
ATOM     13  C   UNL     1       1.424   2.885  20.944  0.00  0.00    +0.000 C 
ATOM     14  C   UNL     1       1.157   4.372  20.627  0.00  0.00    +0.000 C 
ATOM     15  C   UNL     1       2.310   5.018  19.834  0.00  0.00    +0.000 C 
ATOM     16  C   UNL     1       2.606   4.246  18.513  0.00  0.00    +0.000 C 
ATOM     17  C   UNL     1       2.914   2.759  18.875  0.00  0.00    +0.000 C 
ATOM     18  C   UNL     1       1.734   2.130  19.644  0.00  0.00    +0.000 C 
BRANCH  13  19
ATOM     19  N   UNL     1       2.498   2.707  21.929  0.00  0.00    +0.000 NA
ATOM     20  H   UNL     1       2.558   3.556  22.536  0.00  0.00    +0.000 HD
ATOM     21  H   UNL     1       3.429   2.555  21.484  0.00  0.00    +0.000 HD
ENDBRANCH  13  19
ENDBRANCH   1  16
TORSDOF 3
ENDMDL
MODEL 2
REMARK VINA RESULT:      -7.6      1.529      5.574
REMARK  Name = 
REMARK  3 active torsions:
REMARK  status: ('A' for Active; 'I' for Inactive)
REMARK    1  A    between atoms: N_1  and  C_2
REMARK    2  A    between atoms: C_5  and  N_6
REMARK    3  A    between atoms: N_6  and  C_7
REMARK                            x       y       z     vdW  Elec       q    Type
REMARK                         _______ _______ _______ _____ _____    ______ ____
ROOT
ATOM      1  N   UNL     1       4.806   3.224  18.601  0.00  0.00    +0.000 NA
ATOM      2  H   UNL     1       4.377   3.764  19.380  0.00  0.00    +0.000 HD
ENDROOT
BRANCH   1   3
ATOM      3  C   UNL     1       3.848   2.839  17.528  0.00  0.00    +0.000 C 
ATOM      4  C   UNL     1       2.350   2.521  17.718  0.00  0.00    +0.000 C 
ATOM      5  C   UNL     1       1.560   2.634  19.032  0.00  0.00    +0.000 C 
ATOM      6  C   UNL     1       1.692   4.046  19.410  0.00  0.00    +0.000 A 
ATOM      7  C   UNL     1       1.208   4.647  20.573  0.00  0.00    +0.000 A 
ATOM      8  C   UNL     1       1.475   6.004  20.785  0.00  0.00    +0.000 A 
ATOM      9  C   UNL     1       2.203   6.739  19.826  0.00  0.00    +0.000 A 
ATOM     10  C   UNL     1       2.647   6.116  18.648  0.00  0.00    +0.000 A 
ATOM     11  C   UNL     1       2.372   4.761  18.451  0.00  0.00    +0.000 A 
ATOM     12  C   UNL     1       2.796   3.931  17.275  0.00  0.00    +0.000 C 
ENDBRANCH   1   3
BRANCH   1  16
ATOM     13  C   UNL     1       7.345   6.516  17.095  0.00  0.00    +0.000 C 
ATOM     14  C   UNL     1       7.487   6.020  18.549  0.00  0.00    +0.000 C 
ATOM     15  C   UNL     1       6.257   5.219  19.018  0.00  0.00    +0.000 C 
ATOM     16  C   UNL     1       5.964   4.010  18.079  0.00  0.00    +0.000 C 
ATOM     17  C   UNL     1       5.783   4.552  16.627  0.00  0.00    +0.000 C 
ATOM     18  C   UNL     1       7.037   5.326  16.174  0.00  0.00    +0.000 C 
BRANCH  13  19
ATOM     19  N   UNL     1       6.329   7.567  16.959  0.00  0.00    +0.000 NA
ATOM     20  H   UNL     1       6.551   8.161  16.128  0.00  0.00    +0.000 HD
ATOM     21  H   UNL     1       6.275   8.183  17.798  0.00  0.00    +0.000 HD
ENDBRANCH  13  19
ENDBRANCH   1  16
TORSDOF 3
ENDMDL
MODEL 3
REMARK VINA RESULT:      -7.5      1.616      5.991
REMARK  Name = 
REMARK  3 active torsions:
REMARK  status: ('A' for Active; 'I' for Inactive)
REMARK    1  A    between atoms: N_1  and  C_2
REMARK    2  A    between atoms: C_5  and  N_6
REMARK    3  A    between atoms: N_6  and  C_7
REMARK                            x       y       z     vdW  Elec       q    Type
REMARK                         _______ _______ _______ _____ _____    ______ ____
ROOT
ATOM      1  N   UNL     1       4.710   5.125  19.408  0.00  0.00    +0.000 NA
ATOM      2  H   UNL     1       5.239   5.201  20.300  0.00  0.00    +0.000 HD
ENDROOT
BRANCH   1   3
ATOM      3  C   UNL     1       3.796   6.270  19.143  0.00  0.00    +0.000 C 
ATOM      4  C   UNL     1       2.493   6.221  18.317  0.00  0.00    +0.000 C 
ATOM      5  C   UNL     1       1.859   4.962  17.700  0.00  0.00    +0.000 C 
ATOM      6  C   UNL     1       1.605   4.088  18.851  0.00  0.00    +0.000 A 
ATOM      7  C   UNL     1       1.098   2.788  18.814  0.00  0.00    +0.000 A 
ATOM      8  C   UNL     1       0.970   2.086  20.018  0.00  0.00    +0.000 A 
ATOM      9  C   UNL     1       1.332   2.700  21.235  0.00  0.00    +0.000 A 
ATOM     10  C   UNL     1       1.806   4.022  21.245  0.00  0.00    +0.000 A 
ATOM     11  C   UNL     1       1.927   4.709  20.035  0.00  0.00    +0.000 A 
ATOM     12  C   UNL     1       2.444   6.106  19.856  0.00  0.00    +0.000 C 
ENDBRANCH   1   3
BRANCH   1  16
ATOM     13  C   UNL     1       6.761   5.234  15.493  0.00  0.00    +0.000 C 
ATOM     14  C   UNL     1       7.265   6.102  16.665  0.00  0.00    +0.000 C 
ATOM     15  C   UNL     1       6.199   6.281  17.763  0.00  0.00    +0.000 C 
ATOM     16  C   UNL     1       5.694   4.910  18.306  0.00  0.00    +0.000 C 
ATOM     17  C   UNL     1       5.152   4.077  17.102  0.00  0.00    +0.000 C 
ATOM     18  C   UNL     1       6.246   3.892  16.031  0.00  0.00    +0.000 C 
BRANCH  13  19
ATOM     19  N   UNL     1       5.732   5.914  14.696  0.00  0.00    +0.000 NA
ATOM     20  H   UNL     1       6.053   5.989  13.704  0.00  0.00    +0.000 HD
ATOM     21  H   UNL     1       5.522   6.874  15.046  0.00  0.00    +0.000 HD
ENDBRANCH  13  19
ENDBRANCH   1  16
TORSDOF 3
ENDMDL
MODEL 4
REMARK VINA RESULT:      -7.5      1.624      3.006
REMARK  Name = 
REMARK  3 active torsions:
REMARK  status: ('A' for Active; 'I' for Inactive)
REMARK    1  A    between atoms: N_1  and  C_2
REMARK    2  A    between atoms: C_5  and  N_6
REMARK    3  A    between atoms: N_6  and  C_7
REMARK                            x       y       z     vdW  Elec       q    Type
REMARK                         _______ _______ _______ _____ _____    ______ ____
ROOT
ATOM      1  N   UNL     1       5.138   3.187  19.039  0.00  0.00    +0.000 NA
ATOM      2  H   UNL     1       5.199   3.090  18.005  0.00  0.00    +0.000 HD
ENDROOT
BRANCH   1   3
ATOM      3  C   UNL     1       5.340   4.577  19.532  0.00  0.00    +0.000 C 
ATOM      4  C   UNL     1       6.515   5.510  19.168  0.00  0.00    +0.000 C 
ATOM      5  C   UNL     1       7.635   5.203  18.160  0.00  0.00    +0.000 C 
ATOM      6  C   UNL     1       6.927   4.982  16.894  0.00  0.00    +0.000 A 
ATOM      7  C   UNL     1       7.495   4.602  15.677  0.00  0.00    +0.000 A 
ATOM      8  C   UNL     1       6.650   4.390  14.582  0.00  0.00    +0.000 A 
ATOM      9  C   UNL     1       5.258   4.579  14.717  0.00  0.00    +0.000 A 
ATOM     10  C   UNL     1       4.719   4.998  15.945  0.00  0.00    +0.000 A 
ATOM     11  C   UNL     1       5.577   5.205  17.028  0.00  0.00    +0.000 A 
ATOM     12  C   UNL     1       5.172   5.617  18.413  0.00  0.00    +0.000 C 
ENDBRANCH   1   3
BRANCH   1  16
ATOM     13  C   UNL     1       0.901   2.721  20.215  0.00  0.00    +0.000 C 
ATOM     14  C   UNL     1       1.378   2.281  18.814  0.00  0.00    +0.000 C 
ATOM     15  C   UNL     1       2.727   2.918  18.427  0.00  0.00    +0.000 C 
ATOM     16  C   UNL     1       3.834   2.607  19.479  0.00  0.00    +0.000 C 
ATOM     17  C   UNL     1       3.338   3.103  20.873  0.00  0.00    +0.000 C 
ATOM     18  C   UNL     1       2.001   2.431  21.246  0.00  0.00    +0.000 C 
BRANCH  13  19
ATOM     19  N   UNL     1       0.500   4.133  20.251  0.00  0.00    +0.000 NA
ATOM     20  H   UNL     1      -0.543   4.198  20.283  0.00  0.00    +0.000 HD
ATOM     21  H   UNL     1       0.838   4.667  19.422  0.00  0.00    +0.000 HD
ENDBRANCH  13  19
ENDBRANCH   1  16
TORSDOF 3
ENDMDL
MODEL 5
REMARK VINA RESULT:      -7.4      1.703      5.741
REMARK  Name = 
REMARK  3 active torsions:
REMARK  status: ('A' for Active; 'I' for Inactive)
REMARK    1  A    between atoms: N_1  and  C_2
REMARK    2  A    between atoms: C_5  and  N_6
REMARK    3  A    between atoms: N_6  and  C_7
REMARK                            x       y       z     vdW  Elec       q    Type
REMARK                         _______ _______ _______ _____ _____    ______ ____
ROOT
ATOM      1  N   UNL     1       3.261   4.914  17.697  0.00  0.00    +0.000 NA
ATOM      2  H   UNL     1       2.603   5.610  17.292  0.00  0.00    +0.000 HD
ENDROOT
BRANCH   1   3
ATOM      3  C   UNL     1       3.267   3.601  16.994  0.00  0.00    +0.000 C 
ATOM      4  C   UNL     1       3.771   2.262  17.573  0.00  0.00    +0.000 C 
ATOM      5  C   UNL     1       4.271   2.027  19.008  0.00  0.00    +0.000 C 
ATOM      6  C   UNL     1       3.126   2.390  19.851  0.00  0.00    +0.000 A 
ATOM      7  C   UNL     1       3.093   2.416  21.246  0.00  0.00    +0.000 A 
ATOM      8  C   UNL     1       1.918   2.838  21.878  0.00  0.00    +0.000 A 
ATOM      9  C   UNL     1       0.795   3.208  21.109  0.00  0.00    +0.000 A 
ATOM     10  C   UNL     1       0.846   3.137  19.707  0.00  0.00    +0.000 A 
ATOM     11  C   UNL     1       2.026   2.714  19.091  0.00  0.00    +0.000 A 
ATOM     12  C   UNL     1       2.267   2.610  17.614  0.00  0.00    +0.000 C 
ENDBRANCH   1   3
BRANCH   1  16
ATOM     13  C   UNL     1       7.641   5.514  17.702  0.00  0.00    +0.000 C 
ATOM     14  C   UNL     1       6.803   5.872  16.456  0.00  0.00    +0.000 C 
ATOM     15  C   UNL     1       5.420   5.193  16.465  0.00  0.00    +0.000 C 
ATOM     16  C   UNL     1       4.616   5.539  17.754  0.00  0.00    +0.000 C 
ATOM     17  C   UNL     1       5.473   5.124  18.991  0.00  0.00    +0.000 C 
ATOM     18  C   UNL     1       6.840   5.837  18.971  0.00  0.00    +0.000 C 
BRANCH  13  19
ATOM     19  N   UNL     1       8.081   4.113  17.696  0.00  0.00    +0.000 NA
ATOM     20  H   UNL     1       8.235   3.801  16.711  0.00  0.00    +0.000 HD
ATOM     21  H   UNL     1       7.387   3.473  18.140  0.00  0.00    +0.000 HD
ENDBRANCH  13  19
ENDBRANCH   1  16
TORSDOF 3
ENDMDL
MODEL 6
REMARK VINA RESULT:      -7.4      1.030      1.272
REMARK  Name = 
REMARK  3 active torsions:
REMARK  status: ('A' for Active; 'I' for Inactive)
REMARK    1  A    between atoms: N_1  and  C_2
REMARK    2  A    between atoms: C_5  and  N_6
REMARK    3  A    between atoms: N_6  and  C_7
REMARK                            x       y       z     vdW  Elec       q    Type
REMARK                         _______ _______ _______ _____ _____    ______ ____
ROOT
ATOM      1  N   UNL     1       4.000   4.641  17.287  0.00  0.00    +0.000 NA
ATOM      2  H   UNL     1       4.625   5.221  17.882  0.00  0.00    +0.000 HD
ENDROOT
BRANCH   1   3
ATOM      3  C   UNL     1       4.650   4.112  16.056  0.00  0.00    +0.000 C 
ATOM      4  C   UNL     1       5.594   4.894  15.118  0.00  0.00    +0.000 C 
ATOM      5  C   UNL     1       6.103   6.328  15.337  0.00  0.00    +0.000 C 
ATOM      6  C   UNL     1       6.819   6.263  16.617  0.00  0.00    +0.000 A 
ATOM      7  C   UNL     1       7.411   7.329  17.296  0.00  0.00    +0.000 A 
ATOM      8  C   UNL     1       8.010   7.081  18.536  0.00  0.00    +0.000 A 
ATOM      9  C   UNL     1       8.023   5.774  19.066  0.00  0.00    +0.000 A 
ATOM     10  C   UNL     1       7.451   4.714  18.342  0.00  0.00    +0.000 A 
ATOM     11  C   UNL     1       6.857   4.979  17.106  0.00  0.00    +0.000 A 
ATOM     12  C   UNL     1       6.173   3.980  16.219  0.00  0.00    +0.000 C 
ENDBRANCH   1   3
BRANCH   1  16
ATOM     13  C   UNL     1       1.529   2.428  20.209  0.00  0.00    +0.000 C 
ATOM     14  C   UNL     1       1.274   2.276  18.695  0.00  0.00    +0.000 C 
ATOM     15  C   UNL     1       1.895   3.426  17.878  0.00  0.00    +0.000 C 
ATOM     16  C   UNL     1       3.425   3.559  18.141  0.00  0.00    +0.000 C 
ATOM     17  C   UNL     1       3.643   3.754  19.674  0.00  0.00    +0.000 C 
ATOM     18  C   UNL     1       3.035   2.577  20.465  0.00  0.00    +0.000 C 
BRANCH  13  19
ATOM     19  N   UNL     1       0.779   3.546  20.794  0.00  0.00    +0.000 NA
ATOM     20  H   UNL     1      -0.104   3.187  21.224  0.00  0.00    +0.000 HD
ATOM     21  H   UNL     1       0.528   4.273  20.089  0.00  0.00    +0.000 HD
ENDBRANCH  13  19
ENDBRANCH   1  16
TORSDOF 3
ENDMDL
MODEL 7
REMARK VINA RESULT:      -7.3      1.867      5.962
REMARK  Name = 
REMARK  3 active torsions:
REMARK  status: ('A' for Active; 'I' for Inactive)
REMARK    1  A    between atoms: N_1  and  C_2
REMARK    2  A    between atoms: C_5  and  N_6
REMARK    3  A    between atoms: N_6  and  C_7
REMARK                            x       y       z     vdW  Elec       q    Type
REMARK                         _______ _______ _______ _____ _____    ______ ____
ROOT
ATOM      1  N   UNL     1       4.546   5.616  18.961  0.00  0.00    +0.000 NA
ATOM      2  H   UNL     1       5.042   5.750  19.864  0.00  0.00    +0.000 HD
ENDROOT
BRANCH   1   3
ATOM      3  C   UNL     1       3.429   6.573  18.732  0.00  0.00    +0.000 C 
ATOM      4  C   UNL     1       2.035   6.226  18.166  0.00  0.00    +0.000 C 
ATOM      5  C   UNL     1       1.522   4.817  17.823  0.00  0.00    +0.000 C 
ATOM      6  C   UNL     1       1.600   4.088  19.094  0.00  0.00    +0.000 A 
ATOM      7  C   UNL     1       1.310   2.739  19.300  0.00  0.00    +0.000 A 
ATOM      8  C   UNL     1       1.491   2.205  20.581  0.00  0.00    +0.000 A 
ATOM      9  C   UNL     1       1.939   3.030  21.634  0.00  0.00    +0.000 A 
ATOM     10  C   UNL     1       2.188   4.393  21.405  0.00  0.00    +0.000 A 
ATOM     11  C   UNL     1       2.003   4.910  20.121  0.00  0.00    +0.000 A 
ATOM     12  C   UNL     1       2.252   6.326  19.691  0.00  0.00    +0.000 C 
ENDBRANCH   1   3
BRANCH   1  16
ATOM     13  C   UNL     1       6.874   4.667  15.324  0.00  0.00    +0.000 C 
ATOM     14  C   UNL     1       5.871   5.840  15.328  0.00  0.00    +0.000 C 
ATOM     15  C   UNL     1       4.855   5.738  16.482  0.00  0.00    +0.000 C 
ATOM     16  C   UNL     1       5.562   5.650  17.867  0.00  0.00    +0.000 C 
ATOM     17  C   UNL     1       6.534   4.430  17.843  0.00  0.00    +0.000 C 
ATOM     18  C   UNL     1       7.556   4.570  16.696  0.00  0.00    +0.000 C 
BRANCH  13  19
ATOM     19  N   UNL     1       6.244   3.393  14.954  0.00  0.00    +0.000 NA
ATOM     20  H   UNL     1       6.980   2.715  14.654  0.00  0.00    +0.000 HD
ATOM     21  H   UNL     1       5.556   3.497  14.178  0.00  0.00    +0.000 HD
ENDBRANCH  13  19
ENDBRANCH   1  16
TORSDOF 3
ENDMDL
MODEL 8
REMARK VINA RESULT:      -7.3      1.660      5.591
REMARK  Name = 
REMARK  3 active torsions:
REMARK  status: ('A' for Active; 'I' for Inactive)
REMARK    1  A    between atoms: N_1  and  C_2
REMARK    2  A    between atoms: C_5  and  N_6
REMARK    3  A    between atoms: N_6  and  C_7
REMARK                            x       y       z     vdW  Elec       q    Type
REMARK                         _______ _______ _______ _____ _____    ______ ____
ROOT
ATOM      1  N   UNL     1       3.978   2.716  18.488  0.00  0.00    +0.000 NA
ATOM      2  H   UNL     1       3.975   2.928  19.506  0.00  0.00    +0.000 HD
ENDROOT
BRANCH   1   3
ATOM      3  C   UNL     1       2.659   2.280  17.953  0.00  0.00    +0.000 C 
ATOM      4  C   UNL     1       1.303   2.378  18.685  0.00  0.00    +0.000 C 
ATOM      5  C   UNL     1       1.060   3.027  20.057  0.00  0.00    +0.000 C 
ATOM      6  C   UNL     1       1.488   4.419  19.876  0.00  0.00    +0.000 A 
ATOM      7  C   UNL     1       1.532   5.412  20.856  0.00  0.00    +0.000 A 
ATOM      8  C   UNL     1       2.018   6.676  20.505  0.00  0.00    +0.000 A 
ATOM      9  C   UNL     1       2.434   6.931  19.181  0.00  0.00    +0.000 A 
ATOM     10  C   UNL     1       2.345   5.922  18.208  0.00  0.00    +0.000 A 
ATOM     11  C   UNL     1       1.857   4.666  18.575  0.00  0.00    +0.000 A 
ATOM     12  C   UNL     1       1.726   3.470  17.678  0.00  0.00    +0.000 C 
ENDBRANCH   1   3
BRANCH   1  16
ATOM     13  C   UNL     1       6.613   5.442  16.213  0.00  0.00    +0.000 C 
ATOM     14  C   UNL     1       5.426   4.741  15.520  0.00  0.00    +0.000 C 
ATOM     15  C   UNL     1       4.920   3.522  16.315  0.00  0.00    +0.000 C 
ATOM     16  C   UNL     1       4.521   3.908  17.771  0.00  0.00    +0.000 C 
ATOM     17  C   UNL     1       5.756   4.574  18.455  0.00  0.00    +0.000 C 
ATOM     18  C   UNL     1       6.225   5.805  17.654  0.00  0.00    +0.000 C 
BRANCH  13  19
ATOM     19  N   UNL     1       7.837   4.632  16.183  0.00  0.00    +0.000 NA
ATOM     20  H   UNL     1       8.573   5.133  15.635  0.00  0.00    +0.000 HD
ATOM     21  H   UNL     1       7.687   3.695  15.752  0.00  0.00    +0.000 HD
ENDBRANCH  13  19
ENDBRANCH   1  16
TORSDOF 3
ENDMDL
MODEL 9
REMARK VINA RESULT:      -7.2      1.710      5.932
REMARK  Name = 
REMARK  3 active torsions:
REMARK  status: ('A' for Active; 'I' for Inactive)
REMARK    1  A    between atoms: N_1  and  C_2
REMARK    2  A    between atoms: C_5  and  N_6
REMARK    3  A    between atoms: N_6  and  C_7
REMARK                            x       y       z     vdW  Elec       q    Type
REMARK                         _______ _______ _______ _____ _____    ______ ____
ROOT
ATOM      1  N   UNL     1       4.245   5.909  19.541  0.00  0.00    +0.000 NA
ATOM      2  H   UNL     1       4.885   6.249  20.286  0.00  0.00    +0.000 HD
ENDROOT
BRANCH   1   3
ATOM      3  C   UNL     1       3.033   6.751  19.348  0.00  0.00    +0.000 C 
ATOM      4  C   UNL     1       1.805   6.393  18.484  0.00  0.00    +0.000 C 
ATOM      5  C   UNL     1       1.574   5.064  17.745  0.00  0.00    +0.000 C 
ATOM      6  C   UNL     1       1.589   4.055  18.809  0.00  0.00    +0.000 A 
ATOM      7  C   UNL     1       1.491   2.672  18.648  0.00  0.00    +0.000 A 
ATOM      8  C   UNL     1       1.574   1.859  19.784  0.00  0.00    +0.000 A 
ATOM      9  C   UNL     1       1.736   2.441  21.059  0.00  0.00    +0.000 A 
ATOM     10  C   UNL     1       1.795   3.838  21.194  0.00  0.00    +0.000 A 
ATOM     11  C   UNL     1       1.710   4.635  20.051  0.00  0.00    +0.000 A 
ATOM     12  C   UNL     1       1.789   6.133  20.006  0.00  0.00    +0.000 C 
ENDBRANCH   1   3
BRANCH   1  16
ATOM     13  C   UNL     1       7.335   4.700  16.619  0.00  0.00    +0.000 C 
ATOM     14  C   UNL     1       5.939   4.042  16.599  0.00  0.00    +0.000 C 
ATOM     15  C   UNL     1       5.178   4.244  17.924  0.00  0.00    +0.000 C 
ATOM     16  C   UNL     1       5.040   5.753  18.287  0.00  0.00    +0.000 C 
ATOM     17  C   UNL     1       6.470   6.375  18.340  0.00  0.00    +0.000 C 
ATOM     18  C   UNL     1       7.199   6.183  16.995  0.00  0.00    +0.000 C 
BRANCH  13  19
ATOM     19  N   UNL     1       8.267   4.009  17.518  0.00  0.00    +0.000 NA
ATOM     20  H   UNL     1       8.499   4.632  18.325  0.00  0.00    +0.000 HD
ATOM     21  H   UNL     1       9.156   3.739  17.045  0.00  0.00    +0.000 HD
ENDBRANCH  13  19
ENDBRANCH   1  16
TORSDOF 3
ENDMDL
