MODEL 1
REMARK VINA RESULT:      -8.0      0.000      0.000
REMARK  Name = 
REMARK  6 active torsions:
REMARK  status: ('A' for Active; 'I' for Inactive)
REMARK    1  A    between atoms: C_1  and  N_2
REMARK    2  A    between atoms: N_2  and  C_3
REMARK    3  A    between atoms: C_3  and  C_4
REMARK    4  A    between atoms: C_12  and  C_14
REMARK    5  A    between atoms: C_18  and  N_19
REMARK    6  A    between atoms: C_20  and  C_22
REMARK                            x       y       z     vdW  Elec       q    Type
REMARK                         _______ _______ _______ _____ _____    ______ ____
ROOT
ATOM      1  C   UNL     1       3.985   3.616  18.354  0.00  0.00    +0.000 A 
ATOM      2  C   UNL     1       3.757   2.193  18.265  0.00  0.00    +0.000 A 
ATOM      3  C   UNL     1       2.428   1.842  18.184  0.00  0.00    +0.000 A 
ATOM      4  S   UNL     1       1.416   3.193  18.381  0.00  0.00    +0.000 S 
ATOM      5  C   UNL     1       2.749   4.251  18.391  0.00  0.00    +0.000 A 
ENDROOT
BRANCH   1   8
ATOM      6  C   UNL     1       7.148   5.669  17.933  0.00  0.00    +0.000 C 
ATOM      7  N   UNL     1       5.938   4.974  17.531  0.00  0.00    +0.000 N 
ATOM      8  C   UNL     1       5.263   4.315  18.582  0.00  0.00    +0.000 C 
ATOM      9  O   UNL     1       5.797   4.251  19.695  0.00  0.00    +0.000 OA
BRANCH   7  10
ATOM     10  C   UNL     1       5.357   5.353  16.242  0.00  0.00    +0.000 C 
BRANCH  10  11
ATOM     11  C   UNL     1       6.299   5.177  15.091  0.00  0.00    +0.000 A 
ATOM     12  N   UNL     1       7.546   5.639  15.049  0.00  0.00    +0.000 NA
ATOM     13  N   UNL     1       8.123   5.307  13.831  0.00  0.00    +0.000 NA
ATOM     14  C   UNL     1       7.219   4.643  13.172  0.00  0.00    +0.000 A 
ATOM     15  N   UNL     1       6.092   4.521  13.926  0.00  0.00    +0.000 N 
ATOM     16  C   UNL     1       5.076   3.736  13.266  0.00  0.00    +0.000 C 
ATOM     17  C   UNL     1       5.867   3.059  12.127  0.00  0.00    +0.000 C 
ATOM     18  C   UNL     1       7.091   3.968  11.869  0.00  0.00    +0.000 C 
ENDBRANCH  10  11
ENDBRANCH   7  10
ENDBRANCH   1   8
BRANCH   5  19
ATOM     19  N   UNL     1       2.337   5.561  18.486  0.00  0.00    +0.000 N 
ATOM     20  C   UNL     1       2.156   6.216  19.692  0.00  0.00    +0.000 C 
ATOM     21  O   UNL     1       2.343   5.693  20.789  0.00  0.00    +0.000 OA
ATOM     22  H   UNL     1       2.549   6.156  17.696  0.00  0.00    +0.000 HD
BRANCH  20  23
ATOM     23  C   UNL     1       1.835   7.643  19.544  0.00  0.00    +0.000 A 
ATOM     24  C   UNL     1       1.308   8.494  20.499  0.00  0.00    +0.000 A 
ATOM     25  C   UNL     1       1.100   9.818  20.008  0.00  0.00    +0.000 A 
ATOM     26  C   UNL     1       1.485   9.944  18.693  0.00  0.00    +0.000 A 
ATOM     27  S   UNL     1       2.096   8.482  18.063  0.00  0.00    +0.000 S 
ENDBRANCH  20  23
ENDBRANCH   5  19
TORSDOF 5
ENDMDL
MODEL 2
REMARK VINA RESULT:      -7.8      1.223      1.329
REMARK  Name = 
REMARK  6 active torsions:
REMARK  status: ('A' for Active; 'I' for Inactive)
REMARK    1  A    between atoms: C_1  and  N_2
REMARK    2  A    between atoms: N_2  and  C_3
REMARK    3  A    between atoms: C_3  and  C_4
REMARK    4  A    between atoms: C_12  and  C_14
REMARK    5  A    between atoms: C_18  and  N_19
REMARK    6  A    between atoms: C_20  and  C_22
REMARK                            x       y       z     vdW  Elec       q    Type
REMARK                         _______ _______ _______ _____ _____    ______ ____
ROOT
ATOM      1  C   UNL     1       4.454   4.112  19.174  0.00  0.00    +0.000 A 
ATOM      2  C   UNL     1       4.339   2.676  19.081  0.00  0.00    +0.000 A 
ATOM      3  C   UNL     1       3.096   2.189  19.420  0.00  0.00    +0.000 A 
ATOM      4  S   UNL     1       2.089   3.421  20.017  0.00  0.00    +0.000 S 
ATOM      5  C   UNL     1       3.248   4.612  19.651  0.00  0.00    +0.000 A 
ENDROOT
BRANCH   1   8
ATOM      6  C   UNL     1       7.343   6.109  17.739  0.00  0.00    +0.000 C 
ATOM      7  N   UNL     1       6.185   5.233  17.732  0.00  0.00    +0.000 N 
ATOM      8  C   UNL     1       5.665   4.935  19.010  0.00  0.00    +0.000 C 
ATOM      9  O   UNL     1       6.287   5.302  20.014  0.00  0.00    +0.000 OA
BRANCH   7  10
ATOM     10  C   UNL     1       5.471   5.096  16.461  0.00  0.00    +0.000 C 
BRANCH  10  11
ATOM     11  C   UNL     1       6.375   5.104  15.267  0.00  0.00    +0.000 A 
ATOM     12  N   UNL     1       7.559   5.708  15.212  0.00  0.00    +0.000 NA
ATOM     13  N   UNL     1       8.115   5.523  13.953  0.00  0.00    +0.000 NA
ATOM     14  C   UNL     1       7.263   4.803  13.284  0.00  0.00    +0.000 A 
ATOM     15  N   UNL     1       6.191   4.505  14.069  0.00  0.00    +0.000 N 
ATOM     16  C   UNL     1       5.242   3.651  13.394  0.00  0.00    +0.000 C 
ATOM     17  C   UNL     1       6.053   3.144  12.183  0.00  0.00    +0.000 C 
ATOM     18  C   UNL     1       7.154   4.203  11.943  0.00  0.00    +0.000 C 
ENDBRANCH  10  11
ENDBRANCH   7  10
ENDBRANCH   1   8
BRANCH   5  19
ATOM     19  N   UNL     1       2.774   5.870  19.953  0.00  0.00    +0.000 N 
ATOM     20  C   UNL     1       2.466   6.818  18.992  0.00  0.00    +0.000 C 
ATOM     21  O   UNL     1       2.588   6.630  17.783  0.00  0.00    +0.000 OA
ATOM     22  H   UNL     1       2.279   5.963  20.830  0.00  0.00    +0.000 HD
BRANCH  20  23
ATOM     23  C   UNL     1       1.861   8.038  19.543  0.00  0.00    +0.000 A 
ATOM     24  C   UNL     1       1.524   9.196  18.864  0.00  0.00    +0.000 A 
ATOM     25  C   UNL     1       0.971  10.199  19.715  0.00  0.00    +0.000 A 
ATOM     26  C   UNL     1       0.890   9.774  21.022  0.00  0.00    +0.000 A 
ATOM     27  S   UNL     1       1.470   8.182  21.214  0.00  0.00    +0.000 S 
ENDBRANCH  20  23
ENDBRANCH   5  19
TORSDOF 5
ENDMDL
MODEL 3
REMARK VINA RESULT:      -7.5      2.702      7.398
REMARK  Name = 
REMARK  6 active torsions:
REMARK  status: ('A' for Active; 'I' for Inactive)
REMARK    1  A    between atoms: C_1  and  N_2
REMARK    2  A    between atoms: N_2  and  C_3
REMARK    3  A    between atoms: C_3  and  C_4
REMARK    4  A    between atoms: C_12  and  C_14
REMARK    5  A    between atoms: C_18  and  N_19
REMARK    6  A    between atoms: C_20  and  C_22
REMARK                            x       y       z     vdW  Elec       q    Type
REMARK                         _______ _______ _______ _____ _____    ______ ____
ROOT
ATOM      1  C   UNL     1       5.104   4.688  18.329  0.00  0.00    +0.000 A 
ATOM      2  C   UNL     1       5.748   5.196  19.516  0.00  0.00    +0.000 A 
ATOM      3  C   UNL     1       7.097   5.429  19.366  0.00  0.00    +0.000 A 
ATOM      4  S   UNL     1       7.656   4.889  17.855  0.00  0.00    +0.000 S 
ATOM      5  C   UNL     1       6.075   4.517  17.349  0.00  0.00    +0.000 A 
ENDROOT
BRANCH   1   8
ATOM      6  C   UNL     1       1.363   4.182  18.711  0.00  0.00    +0.000 C 
ATOM      7  N   UNL     1       2.685   4.696  19.023  0.00  0.00    +0.000 N 
ATOM      8  C   UNL     1       3.715   4.215  18.186  0.00  0.00    +0.000 C 
ATOM      9  O   UNL     1       3.462   3.318  17.373  0.00  0.00    +0.000 OA
BRANCH   7  10
ATOM     10  C   UNL     1       2.744   5.900  19.853  0.00  0.00    +0.000 C 
BRANCH  10  11
ATOM     11  C   UNL     1       2.422   7.155  19.101  0.00  0.00    +0.000 A 
ATOM     12  N   UNL     1       2.765   7.398  17.839  0.00  0.00    +0.000 NA
ATOM     13  N   UNL     1       2.318   8.659  17.470  0.00  0.00    +0.000 NA
ATOM     14  C   UNL     1       1.705   9.143  18.511  0.00  0.00    +0.000 A 
ATOM     15  N   UNL     1       1.728   8.236  19.526  0.00  0.00    +0.000 N 
ATOM     16  C   UNL     1       1.004   8.698  20.687  0.00  0.00    +0.000 C 
ATOM     17  C   UNL     1       0.198   9.888  20.125  0.00  0.00    +0.000 C 
ATOM     18  C   UNL     1       0.977  10.370  18.878  0.00  0.00    +0.000 C 
ENDBRANCH  10  11
ENDBRANCH   7  10
ENDBRANCH   1   8
BRANCH   5  19
ATOM     19  N   UNL     1       6.068   4.062  16.049  0.00  0.00    +0.000 N 
ATOM     20  C   UNL     1       5.778   4.868  14.962  0.00  0.00    +0.000 C 
ATOM     21  O   UNL     1       5.498   6.062  15.051  0.00  0.00    +0.000 OA
ATOM     22  H   UNL     1       6.652   3.260  15.853  0.00  0.00    +0.000 HD
BRANCH  20  23
ATOM     23  C   UNL     1       5.953   4.194  13.667  0.00  0.00    +0.000 A 
ATOM     24  C   UNL     1       5.035   3.409  12.992  0.00  0.00    +0.000 A 
ATOM     25  C   UNL     1       5.545   2.891  11.764  0.00  0.00    +0.000 A 
ATOM     26  C   UNL     1       6.837   3.305  11.530  0.00  0.00    +0.000 A 
ATOM     27  S   UNL     1       7.422   4.311  12.776  0.00  0.00    +0.000 S 
ENDBRANCH  20  23
ENDBRANCH   5  19
TORSDOF 5
ENDMDL
MODEL 4
REMARK VINA RESULT:      -7.5      2.741      7.541
REMARK  Name = 
REMARK  6 active torsions:
REMARK  status: ('A' for Active; 'I' for Inactive)
REMARK    1  A    between atoms: C_1  and  N_2
REMARK    2  A    between atoms: N_2  and  C_3
REMARK    3  A    between atoms: C_3  and  C_4
REMARK    4  A    between atoms: C_12  and  C_14
REMARK    5  A    between atoms: C_18  and  N_19
REMARK    6  A    between atoms: C_20  and  C_22
REMARK                            x       y       z     vdW  Elec       q    Type
REMARK                         _______ _______ _______ _____ _____    ______ ____
ROOT
ATOM      1  C   UNL     1       5.190   4.687  18.384  0.00  0.00    +0.000 A 
ATOM      2  C   UNL     1       5.808   5.209  19.580  0.00  0.00    +0.000 A 
ATOM      3  C   UNL     1       7.150   5.486  19.443  0.00  0.00    +0.000 A 
ATOM      4  S   UNL     1       7.739   4.973  17.934  0.00  0.00    +0.000 S 
ATOM      5  C   UNL     1       6.174   4.554  17.411  0.00  0.00    +0.000 A 
ENDROOT
BRANCH   1   8
ATOM      6  C   UNL     1       1.436   4.381  17.926  0.00  0.00    +0.000 C 
ATOM      7  N   UNL     1       2.710   5.043  18.147  0.00  0.00    +0.000 N 
ATOM      8  C   UNL     1       3.818   4.172  18.225  0.00  0.00    +0.000 C 
ATOM      9  O   UNL     1       3.625   2.951  18.246  0.00  0.00    +0.000 OA
BRANCH   7  10
ATOM     10  C   UNL     1       2.764   6.479  17.868  0.00  0.00    +0.000 C 
BRANCH  10  11
ATOM     11  C   UNL     1       2.184   7.320  18.963  0.00  0.00    +0.000 A 
ATOM     12  N   UNL     1       2.077   6.947  20.235  0.00  0.00    +0.000 NA
ATOM     13  N   UNL     1       1.482   7.964  20.969  0.00  0.00    +0.000 NA
ATOM     14  C   UNL     1       1.256   8.931  20.128  0.00  0.00    +0.000 A 
ATOM     15  N   UNL     1       1.697   8.580  18.888  0.00  0.00    +0.000 N 
ATOM     16  C   UNL     1       1.528   9.644  17.927  0.00  0.00    +0.000 C 
ATOM     17  C   UNL     1       1.251  10.865  18.829  0.00  0.00    +0.000 C 
ATOM     18  C   UNL     1       0.692  10.291  20.152  0.00  0.00    +0.000 C 
ENDBRANCH  10  11
ENDBRANCH   7  10
ENDBRANCH   1   8
BRANCH   5  19
ATOM     19  N   UNL     1       6.193   4.107  16.109  0.00  0.00    +0.000 N 
ATOM     20  C   UNL     1       5.877   4.907  15.025  0.00  0.00    +0.000 C 
ATOM     21  O   UNL     1       5.550   6.088  15.119  0.00  0.00    +0.000 OA
ATOM     22  H   UNL     1       6.810   3.330  15.911  0.00  0.00    +0.000 HD
BRANCH  20  23
ATOM     23  C   UNL     1       6.087   4.249  13.727  0.00  0.00    +0.000 A 
ATOM     24  C   UNL     1       5.228   3.388  13.067  0.00  0.00    +0.000 A 
ATOM     25  C   UNL     1       5.759   2.914  11.830  0.00  0.00    +0.000 A 
ATOM     26  C   UNL     1       7.007   3.436  11.574  0.00  0.00    +0.000 A 
ATOM     27  S   UNL     1       7.525   4.489  12.810  0.00  0.00    +0.000 S 
ENDBRANCH  20  23
ENDBRANCH   5  19
TORSDOF 5
ENDMDL
MODEL 5
REMARK VINA RESULT:      -7.2      4.255      6.476
REMARK  Name = 
REMARK  6 active torsions:
REMARK  status: ('A' for Active; 'I' for Inactive)
REMARK    1  A    between atoms: C_1  and  N_2
REMARK    2  A    between atoms: N_2  and  C_3
REMARK    3  A    between atoms: C_3  and  C_4
REMARK    4  A    between atoms: C_12  and  C_14
REMARK    5  A    between atoms: C_18  and  N_19
REMARK    6  A    between atoms: C_20  and  C_22
REMARK                            x       y       z     vdW  Elec       q    Type
REMARK                         _______ _______ _______ _____ _____    ______ ____
ROOT
ATOM      1  C   UNL     1       0.955   9.150  20.423  0.00  0.00    +0.000 A 
ATOM      2  C   UNL     1       1.528   9.146  21.748  0.00  0.00    +0.000 A 
ATOM      3  C   UNL     1       0.687   9.632  22.725  0.00  0.00    +0.000 A 
ATOM      4  S   UNL     1      -0.743  10.259  22.056  0.00  0.00    +0.000 S 
ATOM      5  C   UNL     1      -0.312   9.717  20.501  0.00  0.00    +0.000 A 
ENDROOT
BRANCH   1   8
ATOM      6  C   UNL     1       2.932   7.444  17.671  0.00  0.00    +0.000 C 
ATOM      7  N   UNL     1       2.400   7.654  19.006  0.00  0.00    +0.000 N 
ATOM      8  C   UNL     1       1.620   8.823  19.149  0.00  0.00    +0.000 C 
ATOM      9  O   UNL     1       1.566   9.629  18.214  0.00  0.00    +0.000 OA
BRANCH   7  10
ATOM     10  C   UNL     1       2.380   6.494  19.898  0.00  0.00    +0.000 C 
BRANCH  10  11
ATOM     11  C   UNL     1       3.229   5.358  19.414  0.00  0.00    +0.000 A 
ATOM     12  N   UNL     1       4.550   5.283  19.548  0.00  0.00    +0.000 NA
ATOM     13  N   UNL     1       5.008   4.104  18.974  0.00  0.00    +0.000 NA
ATOM     14  C   UNL     1       3.954   3.491  18.519  0.00  0.00    +0.000 A 
ATOM     15  N   UNL     1       2.838   4.221  18.794  0.00  0.00    +0.000 N 
ATOM     16  C   UNL     1       1.631   3.554  18.366  0.00  0.00    +0.000 C 
ATOM     17  C   UNL     1       2.121   2.113  18.110  0.00  0.00    +0.000 C 
ATOM     18  C   UNL     1       3.637   2.229  17.829  0.00  0.00    +0.000 C 
ENDBRANCH  10  11
ENDBRANCH   7  10
ENDBRANCH   1   8
BRANCH   5  19
ATOM     19  N   UNL     1      -1.304   9.996  19.589  0.00  0.00    +0.000 N 
ATOM     20  C   UNL     1      -1.385  11.191  18.894  0.00  0.00    +0.000 C 
ATOM     21  O   UNL     1      -0.583  12.113  19.026  0.00  0.00    +0.000 OA
ATOM     22  H   UNL     1      -1.733   9.200  19.136  0.00  0.00    +0.000 HD
BRANCH  20  23
ATOM     23  C   UNL     1      -2.454  11.213  17.886  0.00  0.00    +0.000 A 
ATOM     24  C   UNL     1      -2.357  10.890  16.543  0.00  0.00    +0.000 A 
ATOM     25  C   UNL     1      -3.592  11.043  15.845  0.00  0.00    +0.000 A 
ATOM     26  C   UNL     1      -4.603  11.469  16.678  0.00  0.00    +0.000 A 
ATOM     27  S   UNL     1      -4.065  11.675  18.282  0.00  0.00    +0.000 S 
ENDBRANCH  20  23
ENDBRANCH   5  19
TORSDOF 5
ENDMDL
MODEL 6
REMARK VINA RESULT:      -7.1      2.911      7.527
REMARK  Name = 
REMARK  6 active torsions:
REMARK  status: ('A' for Active; 'I' for Inactive)
REMARK    1  A    between atoms: C_1  and  N_2
REMARK    2  A    between atoms: N_2  and  C_3
REMARK    3  A    between atoms: C_3  and  C_4
REMARK    4  A    between atoms: C_12  and  C_14
REMARK    5  A    between atoms: C_18  and  N_19
REMARK    6  A    between atoms: C_20  and  C_22
REMARK                            x       y       z     vdW  Elec       q    Type
REMARK                         _______ _______ _______ _____ _____    ______ ____
ROOT
ATOM      1  C   UNL     1       5.282   4.976  18.421  0.00  0.00    +0.000 A 
ATOM      2  C   UNL     1       5.962   5.378  19.629  0.00  0.00    +0.000 A 
ATOM      3  C   UNL     1       7.335   5.405  19.518  0.00  0.00    +0.000 A 
ATOM      4  S   UNL     1       7.847   4.791  18.018  0.00  0.00    +0.000 S 
ATOM      5  C   UNL     1       6.243   4.664  17.467  0.00  0.00    +0.000 A 
ENDROOT
BRANCH   1   8
ATOM      6  C   UNL     1       1.559   5.349  17.788  0.00  0.00    +0.000 C 
ATOM      7  N   UNL     1       2.930   5.774  18.015  0.00  0.00    +0.000 N 
ATOM      8  C   UNL     1       3.842   4.719  18.237  0.00  0.00    +0.000 C 
ATOM      9  O   UNL     1       3.412   3.567  18.364  0.00  0.00    +0.000 OA
BRANCH   7  10
ATOM     10  C   UNL     1       3.274   7.135  17.604  0.00  0.00    +0.000 C 
BRANCH  10  11
ATOM     11  C   UNL     1       2.330   8.172  18.131  0.00  0.00    +0.000 A 
ATOM     12  N   UNL     1       1.805   9.160  17.411  0.00  0.00    +0.000 NA
ATOM     13  N   UNL     1       0.988   9.939  18.220  0.00  0.00    +0.000 NA
ATOM     14  C   UNL     1       1.030   9.398  19.403  0.00  0.00    +0.000 A 
ATOM     15  N   UNL     1       1.826   8.294  19.380  0.00  0.00    +0.000 N 
ATOM     16  C   UNL     1       1.856   7.616  20.654  0.00  0.00    +0.000 C 
ATOM     17  C   UNL     1       0.659   8.249  21.395  0.00  0.00    +0.000 C 
ATOM     18  C   UNL     1       0.435   9.627  20.731  0.00  0.00    +0.000 C 
ENDBRANCH  10  11
ENDBRANCH   7  10
ENDBRANCH   1   8
BRANCH   5  19
ATOM     19  N   UNL     1       6.203   4.219  16.164  0.00  0.00    +0.000 N 
ATOM     20  C   UNL     1       5.958   5.048  15.083  0.00  0.00    +0.000 C 
ATOM     21  O   UNL     1       5.752   6.256  15.182  0.00  0.00    +0.000 OA
ATOM     22  H   UNL     1       6.737   3.385  15.960  0.00  0.00    +0.000 HD
BRANCH  20  23
ATOM     23  C   UNL     1       6.088   4.374  13.784  0.00  0.00    +0.000 A 
ATOM     24  C   UNL     1       5.179   3.525  13.177  0.00  0.00    +0.000 A 
ATOM     25  C   UNL     1       5.636   3.029  11.920  0.00  0.00    +0.000 A 
ATOM     26  C   UNL     1       6.879   3.522  11.595  0.00  0.00    +0.000 A 
ATOM     27  S   UNL     1       7.482   4.575  12.792  0.00  0.00    +0.000 S 
ENDBRANCH  20  23
ENDBRANCH   5  19
TORSDOF 5
ENDMDL
MODEL 7
REMARK VINA RESULT:      -7.0      2.938      7.228
REMARK  Name = 
REMARK  6 active torsions:
REMARK  status: ('A' for Active; 'I' for Inactive)
REMARK    1  A    between atoms: C_1  and  N_2
REMARK    2  A    between atoms: N_2  and  C_3
REMARK    3  A    between atoms: C_3  and  C_4
REMARK    4  A    between atoms: C_12  and  C_14
REMARK    5  A    between atoms: C_18  and  N_19
REMARK    6  A    between atoms: C_20  and  C_22
REMARK                            x       y       z     vdW  Elec       q    Type
REMARK                         _______ _______ _______ _____ _____    ______ ____
ROOT
ATOM      1  C   UNL     1       5.785   6.250  17.397  0.00  0.00    +0.000 A 
ATOM      2  C   UNL     1       6.601   6.370  18.581  0.00  0.00    +0.000 A 
ATOM      3  C   UNL     1       7.653   5.483  18.631  0.00  0.00    +0.000 A 
ATOM      4  S   UNL     1       7.592   4.376  17.343  0.00  0.00    +0.000 S 
ATOM      5  C   UNL     1       6.278   5.195  16.637  0.00  0.00    +0.000 A 
ENDROOT
BRANCH   1   8
ATOM      6  C   UNL     1       2.277   7.685  17.564  0.00  0.00    +0.000 C 
ATOM      7  N   UNL     1       3.422   6.891  17.975  0.00  0.00    +0.000 N 
ATOM      8  C   UNL     1       4.523   6.948  17.093  0.00  0.00    +0.000 C 
ATOM      9  O   UNL     1       4.396   7.523  16.006  0.00  0.00    +0.000 OA
BRANCH   7  10
ATOM     10  C   UNL     1       3.466   6.476  19.378  0.00  0.00    +0.000 C 
BRANCH  10  11
ATOM     11  C   UNL     1       2.608   5.284  19.672  0.00  0.00    +0.000 A 
ATOM     12  N   UNL     1       1.631   5.251  20.574  0.00  0.00    +0.000 NA
ATOM     13  N   UNL     1       1.058   3.987  20.592  0.00  0.00    +0.000 NA
ATOM     14  C   UNL     1       1.691   3.291  19.693  0.00  0.00    +0.000 A 
ATOM     15  N   UNL     1       2.636   4.064  19.089  0.00  0.00    +0.000 N 
ATOM     16  C   UNL     1       3.326   3.357  18.036  0.00  0.00    +0.000 C 
ATOM     17  C   UNL     1       2.421   2.128  17.811  0.00  0.00    +0.000 C 
ATOM     18  C   UNL     1       1.647   1.929  19.135  0.00  0.00    +0.000 C 
ENDBRANCH  10  11
ENDBRANCH   7  10
ENDBRANCH   1   8
BRANCH   5  19
ATOM     19  N   UNL     1       5.916   4.610  15.445  0.00  0.00    +0.000 N 
ATOM     20  C   UNL     1       6.634   4.765  14.271  0.00  0.00    +0.000 C 
ATOM     21  O   UNL     1       7.659   5.439  14.182  0.00  0.00    +0.000 OA
ATOM     22  H   UNL     1       5.368   3.762  15.510  0.00  0.00    +0.000 HD
BRANCH  20  23
ATOM     23  C   UNL     1       6.128   3.949  13.159  0.00  0.00    +0.000 A 
ATOM     24  C   UNL     1       4.809   3.744  12.793  0.00  0.00    +0.000 A 
ATOM     25  C   UNL     1       4.673   2.873  11.671  0.00  0.00    +0.000 A 
ATOM     26  C   UNL     1       5.895   2.444  11.204  0.00  0.00    +0.000 A 
ATOM     27  S   UNL     1       7.188   3.092  12.107  0.00  0.00    +0.000 S 
ENDBRANCH  20  23
ENDBRANCH   5  19
TORSDOF 5
ENDMDL
MODEL 8
REMARK VINA RESULT:      -6.8      3.403      8.356
REMARK  Name = 
REMARK  6 active torsions:
REMARK  status: ('A' for Active; 'I' for Inactive)
REMARK    1  A    between atoms: C_1  and  N_2
REMARK    2  A    between atoms: N_2  and  C_3
REMARK    3  A    between atoms: C_3  and  C_4
REMARK    4  A    between atoms: C_12  and  C_14
REMARK    5  A    between atoms: C_18  and  N_19
REMARK    6  A    between atoms: C_20  and  C_22
REMARK                            x       y       z     vdW  Elec       q    Type
REMARK                         _______ _______ _______ _____ _____    ______ ____
ROOT
ATOM      1  C   UNL     1       2.569   6.472  19.448  0.00  0.00    +0.000 A 
ATOM      2  C   UNL     1       1.758   6.024  20.556  0.00  0.00    +0.000 A 
ATOM      3  C   UNL     1       2.044   4.746  20.979  0.00  0.00    +0.000 A 
ATOM      4  S   UNL     1       3.171   3.990  19.957  0.00  0.00    +0.000 S 
ATOM      5  C   UNL     1       3.402   5.424  19.071  0.00  0.00    +0.000 A 
ENDROOT
BRANCH   1   8
ATOM      6  C   UNL     1       1.635   9.959  18.280  0.00  0.00    +0.000 C 
ATOM      7  N   UNL     1       1.603   8.772  19.117  0.00  0.00    +0.000 N 
ATOM      8  C   UNL     1       2.438   7.721  18.677  0.00  0.00    +0.000 C 
ATOM      9  O   UNL     1       3.002   7.818  17.582  0.00  0.00    +0.000 OA
BRANCH   7  10
ATOM     10  C   UNL     1       1.065   8.932  20.468  0.00  0.00    +0.000 C 
BRANCH  10  11
ATOM     11  C   UNL     1       0.534  10.307  20.737  0.00  0.00    +0.000 A 
ATOM     12  N   UNL     1       1.090  11.192  21.560  0.00  0.00    +0.000 NA
ATOM     13  N   UNL     1       0.327  12.352  21.578  0.00  0.00    +0.000 NA
ATOM     14  C   UNL     1      -0.662  12.146  20.758  0.00  0.00    +0.000 A 
ATOM     15  N   UNL     1      -0.554  10.908  20.203  0.00  0.00    +0.000 N 
ATOM     16  C   UNL     1      -1.594  10.652  19.235  0.00  0.00    +0.000 C 
ATOM     17  C   UNL     1      -2.168  12.062  18.983  0.00  0.00    +0.000 C 
ATOM     18  C   UNL     1      -1.830  12.885  20.248  0.00  0.00    +0.000 C 
ENDBRANCH  10  11
ENDBRANCH   7  10
ENDBRANCH   1   8
BRANCH   5  19
ATOM     19  N   UNL     1       4.359   5.252  18.096  0.00  0.00    +0.000 N 
ATOM     20  C   UNL     1       4.185   4.428  16.997  0.00  0.00    +0.000 C 
ATOM     21  O   UNL     1       3.166   3.773  16.788  0.00  0.00    +0.000 OA
ATOM     22  H   UNL     1       5.011   6.014  17.969  0.00  0.00    +0.000 HD
BRANCH  20  23
ATOM     23  C   UNL     1       5.289   4.500  16.029  0.00  0.00    +0.000 A 
ATOM     24  C   UNL     1       5.256   4.172  14.684  0.00  0.00    +0.000 A 
ATOM     25  C   UNL     1       6.519   4.341  14.041  0.00  0.00    +0.000 A 
ATOM     26  C   UNL     1       7.479   4.805  14.911  0.00  0.00    +0.000 A 
ATOM     27  S   UNL     1       6.860   5.038  16.482  0.00  0.00    +0.000 S 
ENDBRANCH  20  23
ENDBRANCH   5  19
TORSDOF 5
ENDMDL
MODEL 9
REMARK VINA RESULT:      -6.8      1.372      1.865
REMARK  Name = 
REMARK  6 active torsions:
REMARK  status: ('A' for Active; 'I' for Inactive)
REMARK    1  A    between atoms: C_1  and  N_2
REMARK    2  A    between atoms: N_2  and  C_3
REMARK    3  A    between atoms: C_3  and  C_4
REMARK    4  A    between atoms: C_12  and  C_14
REMARK    5  A    between atoms: C_18  and  N_19
REMARK    6  A    between atoms: C_20  and  C_22
REMARK                            x       y       z     vdW  Elec       q    Type
REMARK                         _______ _______ _______ _____ _____    ______ ____
ROOT
ATOM      1  C   UNL     1       4.856   4.382  19.147  0.00  0.00    +0.000 A 
ATOM      2  C   UNL     1       4.810   2.947  19.001  0.00  0.00    +0.000 A 
ATOM      3  C   UNL     1       3.584   2.392  19.291  0.00  0.00    +0.000 A 
ATOM      4  S   UNL     1       2.507   3.554  19.905  0.00  0.00    +0.000 S 
ATOM      5  C   UNL     1       3.618   4.809  19.611  0.00  0.00    +0.000 A 
ENDROOT
BRANCH   1   8
ATOM      6  C   UNL     1       7.467   6.857  17.943  0.00  0.00    +0.000 C 
ATOM      7  N   UNL     1       6.311   5.983  17.861  0.00  0.00    +0.000 N 
ATOM      8  C   UNL     1       6.032   5.265  19.044  0.00  0.00    +0.000 C 
ATOM      9  O   UNL     1       6.837   5.312  19.981  0.00  0.00    +0.000 OA
BRANCH   7  10
ATOM     10  C   UNL     1       5.370   6.235  16.768  0.00  0.00    +0.000 C 
BRANCH  10  11
ATOM     11  C   UNL     1       5.435   5.209  15.679  0.00  0.00    +0.000 A 
ATOM     12  N   UNL     1       4.535   4.251  15.480  0.00  0.00    +0.000 NA
ATOM     13  N   UNL     1       4.917   3.473  14.395  0.00  0.00    +0.000 NA
ATOM     14  C   UNL     1       6.029   3.986  13.957  0.00  0.00    +0.000 A 
ATOM     15  N   UNL     1       6.366   5.071  14.708  0.00  0.00    +0.000 N 
ATOM     16  C   UNL     1       7.563   5.718  14.223  0.00  0.00    +0.000 C 
ATOM     17  C   UNL     1       7.732   5.098  12.821  0.00  0.00    +0.000 C 
ATOM     18  C   UNL     1       6.993   3.740  12.870  0.00  0.00    +0.000 C 
ENDBRANCH  10  11
ENDBRANCH   7  10
ENDBRANCH   1   8
BRANCH   5  19
ATOM     19  N   UNL     1       3.079   6.032  19.945  0.00  0.00    +0.000 N 
ATOM     20  C   UNL     1       2.403   6.837  19.044  0.00  0.00    +0.000 C 
ATOM     21  O   UNL     1       2.221   6.540  17.865  0.00  0.00    +0.000 OA
ATOM     22  H   UNL     1       2.829   6.161  20.916  0.00  0.00    +0.000 HD
BRANCH  20  23
ATOM     23  C   UNL     1       1.811   8.035  19.656  0.00  0.00    +0.000 A 
ATOM     24  C   UNL     1       1.448   8.217  20.979  0.00  0.00    +0.000 A 
ATOM     25  C   UNL     1       0.880   9.503  21.227  0.00  0.00    +0.000 A 
ATOM     26  C   UNL     1       0.835  10.272  20.086  0.00  0.00    +0.000 A 
ATOM     27  S   UNL     1       1.477   9.453  18.736  0.00  0.00    +0.000 S 
ENDBRANCH  20  23
ENDBRANCH   5  19
TORSDOF 5
ENDMDL
