MODEL 1
REMARK VINA RESULT:      -7.9      0.000      0.000
REMARK  Name = 
REMARK  7 active torsions:
REMARK  status: ('A' for Active; 'I' for Inactive)
REMARK    1  A    between atoms: C_1  and  C_2
REMARK    2  A    between atoms: C_4  and  C_5
REMARK    3  A    between atoms: C_8  and  S_9
REMARK    4  A    between atoms: S_9  and  C_10
REMARK    5  A    between atoms: C_10  and  C_11
REMARK    6  A    between atoms: C_14  and  C_15
REMARK    7  A    between atoms: C_15  and  O_17
REMARK                            x       y       z     vdW  Elec       q    Type
REMARK                         _______ _______ _______ _____ _____    ______ ____
ROOT
ATOM      1  S   UNL     1       7.373   4.882  17.830  0.00  0.00    +0.000 S 
ENDROOT
BRANCH   1   9
ATOM      2  C   UNL     1       1.244   2.726  21.566  0.00  0.00    +0.000 C 
ATOM      3  C   UNL     1       2.256   3.534  20.781  0.00  0.00    +0.000 A 
ATOM      4  C   UNL     1       1.849   4.934  20.431  0.00  0.00    +0.000 A 
ATOM      5  C   UNL     1       2.741   5.656  19.733  0.00  0.00    +0.000 A 
ATOM      6  C   UNL     1       2.495   7.068  19.301  0.00  0.00    +0.000 C 
ATOM      7  N   UNL     1       3.962   5.066  19.389  0.00  0.00    +0.000 N 
ATOM      8  N   UNL     1       4.986   5.602  18.700  0.00  0.00    +0.000 NA
ATOM      9  C   UNL     1       5.868   4.606  18.665  0.00  0.00    +0.000 A 
ATOM     10  N   UNL     1       5.481   3.458  19.291  0.00  0.00    +0.000 NA
ATOM     11  C   UNL     1       4.275   3.750  19.752  0.00  0.00    +0.000 A 
ATOM     12  N   UNL     1       3.394   2.979  20.463  0.00  0.00    +0.000 NA
ENDBRANCH   1   9
BRANCH   1  13
ATOM     13  C   UNL     1       6.940   6.001  16.477  0.00  0.00    +0.000 C 
BRANCH  13  14
ATOM     14  C   UNL     1       6.544   5.196  15.247  0.00  0.00    +0.000 A 
ATOM     15  C   UNL     1       5.356   4.449  15.232  0.00  0.00    +0.000 A 
ATOM     16  C   UNL     1       5.012   3.672  14.119  0.00  0.00    +0.000 A 
ATOM     17  C   UNL     1       5.854   3.619  13.001  0.00  0.00    +0.000 A 
ATOM     18  C   UNL     1       7.037   4.369  13.000  0.00  0.00    +0.000 A 
ATOM     19  C   UNL     1       7.382   5.141  14.119  0.00  0.00    +0.000 A 
BRANCH  17  20
ATOM     20  C   UNL     1       5.417   2.798  11.839  0.00  0.00    +0.000 C 
ATOM     21  O   UNL     1       4.392   3.025  11.219  0.00  0.00    +0.000 OA
BRANCH  20  22
ATOM     22  O   UNL     1       6.230   1.760  11.546  0.00  0.00    +0.000 OA
ATOM     23  H   UNL     1       6.560   1.259  12.313  0.00  0.00    +0.000 HD
ENDBRANCH  20  22
ENDBRANCH  17  20
ENDBRANCH  13  14
ENDBRANCH   1  13
TORSDOF 5
ENDMDL
MODEL 2
REMARK VINA RESULT:      -7.7      0.217      1.052
REMARK  Name = 
REMARK  7 active torsions:
REMARK  status: ('A' for Active; 'I' for Inactive)
REMARK    1  A    between atoms: C_1  and  C_2
REMARK    2  A    between atoms: C_4  and  C_5
REMARK    3  A    between atoms: C_8  and  S_9
REMARK    4  A    between atoms: S_9  and  C_10
REMARK    5  A    between atoms: C_10  and  C_11
REMARK    6  A    between atoms: C_14  and  C_15
REMARK    7  A    between atoms: C_15  and  O_17
REMARK                            x       y       z     vdW  Elec       q    Type
REMARK                         _______ _______ _______ _____ _____    ______ ____
ROOT
ATOM      1  S   UNL     1       7.397   5.126  18.064  0.00  0.00    +0.000 S 
ENDROOT
BRANCH   1   9
ATOM      2  C   UNL     1       1.182   2.690  21.472  0.00  0.00    +0.000 C 
ATOM      3  C   UNL     1       2.203   3.550  20.756  0.00  0.00    +0.000 A 
ATOM      4  C   UNL     1       1.773   4.950  20.437  0.00  0.00    +0.000 A 
ATOM      5  C   UNL     1       2.673   5.718  19.801  0.00  0.00    +0.000 A 
ATOM      6  C   UNL     1       2.408   7.137  19.406  0.00  0.00    +0.000 C 
ATOM      7  N   UNL     1       3.922   5.171  19.487  0.00  0.00    +0.000 N 
ATOM      8  N   UNL     1       4.959   5.756  18.859  0.00  0.00    +0.000 NA
ATOM      9  C   UNL     1       5.868   4.784  18.827  0.00  0.00    +0.000 A 
ATOM     10  N   UNL     1       5.486   3.606  19.398  0.00  0.00    +0.000 NA
ATOM     11  C   UNL     1       4.255   3.851  19.818  0.00  0.00    +0.000 A 
ATOM     12  N   UNL     1       3.367   3.035  20.467  0.00  0.00    +0.000 NA
ENDBRANCH   1   9
BRANCH   1  13
ATOM     13  C   UNL     1       6.972   6.164  16.646  0.00  0.00    +0.000 C 
BRANCH  13  14
ATOM     14  C   UNL     1       6.603   5.289  15.456  0.00  0.00    +0.000 A 
ATOM     15  C   UNL     1       7.452   5.201  14.341  0.00  0.00    +0.000 A 
ATOM     16  C   UNL     1       7.093   4.433  13.227  0.00  0.00    +0.000 A 
ATOM     17  C   UNL     1       5.874   3.744  13.200  0.00  0.00    +0.000 A 
ATOM     18  C   UNL     1       5.024   3.816  14.311  0.00  0.00    +0.000 A 
ATOM     19  C   UNL     1       5.383   4.591  15.424  0.00  0.00    +0.000 A 
BRANCH  17  20
ATOM     20  C   UNL     1       5.565   2.922  11.998  0.00  0.00    +0.000 C 
ATOM     21  O   UNL     1       4.516   3.020  11.384  0.00  0.00    +0.000 OA
BRANCH  20  22
ATOM     22  O   UNL     1       6.524   2.034  11.662  0.00  0.00    +0.000 OA
ATOM     23  H   UNL     1       7.416   2.235  11.998  0.00  0.00    +0.000 HD
ENDBRANCH  20  22
ENDBRANCH  17  20
ENDBRANCH  13  14
ENDBRANCH   1  13
TORSDOF 5
ENDMDL
MODEL 3
REMARK VINA RESULT:      -7.7      3.842      6.892
REMARK  Name = 
REMARK  7 active torsions:
REMARK  status: ('A' for Active; 'I' for Inactive)
REMARK    1  A    between atoms: C_1  and  C_2
REMARK    2  A    between atoms: C_4  and  C_5
REMARK    3  A    between atoms: C_8  and  S_9
REMARK    4  A    between atoms: S_9  and  C_10
REMARK    5  A    between atoms: C_10  and  C_11
REMARK    6  A    between atoms: C_14  and  C_15
REMARK    7  A    between atoms: C_15  and  O_17
REMARK                            x       y       z     vdW  Elec       q    Type
REMARK                         _______ _______ _______ _____ _____    ______ ____
ROOT
ATOM      1  S   UNL     1       3.439   1.668  18.625  0.00  0.00    +0.000 S 
ENDROOT
BRANCH   1   9
ATOM      2  C   UNL     1       8.216   7.441  18.466  0.00  0.00    +0.000 C 
ATOM      3  C   UNL     1       7.278   6.322  18.064  0.00  0.00    +0.000 A 
ATOM      4  C   UNL     1       7.063   6.142  16.591  0.00  0.00    +0.000 A 
ATOM      5  C   UNL     1       6.231   5.152  16.228  0.00  0.00    +0.000 A 
ATOM      6  C   UNL     1       5.904   4.837  14.802  0.00  0.00    +0.000 C 
ATOM      7  N   UNL     1       5.636   4.374  17.227  0.00  0.00    +0.000 N 
ATOM      8  N   UNL     1       4.780   3.344  17.087  0.00  0.00    +0.000 NA
ATOM      9  C   UNL     1       4.539   2.991  18.348  0.00  0.00    +0.000 A 
ATOM     10  N   UNL     1       5.189   3.725  19.296  0.00  0.00    +0.000 NA
ATOM     11  C   UNL     1       5.884   4.600  18.586  0.00  0.00    +0.000 A 
ATOM     12  N   UNL     1       6.725   5.598  19.000  0.00  0.00    +0.000 NA
ENDBRANCH   1   9
BRANCH   1  13
ATOM     13  C   UNL     1       1.800   2.378  18.341  0.00  0.00    +0.000 C 
BRANCH  13  14
ATOM     14  C   UNL     1       1.759   3.808  18.860  0.00  0.00    +0.000 A 
ATOM     15  C   UNL     1       1.887   4.894  17.979  0.00  0.00    +0.000 A 
ATOM     16  C   UNL     1       1.895   6.209  18.459  0.00  0.00    +0.000 A 
ATOM     17  C   UNL     1       1.783   6.466  19.831  0.00  0.00    +0.000 A 
ATOM     18  C   UNL     1       1.643   5.392  20.719  0.00  0.00    +0.000 A 
ATOM     19  C   UNL     1       1.642   4.075  20.235  0.00  0.00    +0.000 A 
BRANCH  17  20
ATOM     20  C   UNL     1       1.769   7.887  20.274  0.00  0.00    +0.000 C 
ATOM     21  O   UNL     1       1.678   8.820  19.494  0.00  0.00    +0.000 OA
BRANCH  20  22
ATOM     22  O   UNL     1       1.898   8.063  21.606  0.00  0.00    +0.000 OA
ATOM     23  H   UNL     1       1.413   8.821  21.977  0.00  0.00    +0.000 HD
ENDBRANCH  20  22
ENDBRANCH  17  20
ENDBRANCH  13  14
ENDBRANCH   1  13
TORSDOF 5
ENDMDL
MODEL 4
REMARK VINA RESULT:      -7.5      3.855      7.400
REMARK  Name = 
REMARK  7 active torsions:
REMARK  status: ('A' for Active; 'I' for Inactive)
REMARK    1  A    between atoms: C_1  and  C_2
REMARK    2  A    between atoms: C_4  and  C_5
REMARK    3  A    between atoms: C_8  and  S_9
REMARK    4  A    between atoms: S_9  and  C_10
REMARK    5  A    between atoms: C_10  and  C_11
REMARK    6  A    between atoms: C_14  and  C_15
REMARK    7  A    between atoms: C_15  and  O_17
REMARK                            x       y       z     vdW  Elec       q    Type
REMARK                         _______ _______ _______ _____ _____    ______ ____
ROOT
ATOM      1  S   UNL     1       7.166   4.920  18.024  0.00  0.00    +0.000 S 
ENDROOT
BRANCH   1   9
ATOM      2  C   UNL     1       5.086   2.742  11.161  0.00  0.00    +0.000 C 
ATOM      3  C   UNL     1       5.790   3.420  12.317  0.00  0.00    +0.000 A 
ATOM      4  C   UNL     1       6.903   4.357  11.949  0.00  0.00    +0.000 A 
ATOM      5  C   UNL     1       7.532   4.962  12.970  0.00  0.00    +0.000 A 
ATOM      6  C   UNL     1       8.664   5.923  12.781  0.00  0.00    +0.000 C 
ATOM      7  N   UNL     1       7.116   4.684  14.276  0.00  0.00    +0.000 N 
ATOM      8  N   UNL     1       7.604   5.173  15.432  0.00  0.00    +0.000 NA
ATOM      9  C   UNL     1       6.848   4.569  16.347  0.00  0.00    +0.000 A 
ATOM     10  N   UNL     1       5.898   3.722  15.855  0.00  0.00    +0.000 NA
ATOM     11  C   UNL     1       6.067   3.796  14.545  0.00  0.00    +0.000 A 
ATOM     12  N   UNL     1       5.398   3.158  13.534  0.00  0.00    +0.000 NA
ENDBRANCH   1   9
BRANCH   1  13
ATOM     13  C   UNL     1       5.845   6.058  18.505  0.00  0.00    +0.000 C 
BRANCH  13  14
ATOM     14  C   UNL     1       4.715   5.286  19.172  0.00  0.00    +0.000 A 
ATOM     15  C   UNL     1       4.818   3.901  19.378  0.00  0.00    +0.000 A 
ATOM     16  C   UNL     1       3.761   3.182  19.950  0.00  0.00    +0.000 A 
ATOM     17  C   UNL     1       2.577   3.831  20.321  0.00  0.00    +0.000 A 
ATOM     18  C   UNL     1       2.467   5.215  20.130  0.00  0.00    +0.000 A 
ATOM     19  C   UNL     1       3.525   5.931  19.551  0.00  0.00    +0.000 A 
BRANCH  17  20
ATOM     20  C   UNL     1       1.503   3.015  20.951  0.00  0.00    +0.000 C 
ATOM     21  O   UNL     1       1.676   2.375  21.974  0.00  0.00    +0.000 OA
BRANCH  20  22
ATOM     22  O   UNL     1       0.332   3.012  20.280  0.00  0.00    +0.000 OA
ATOM     23  H   UNL     1      -0.026   3.890  20.060  0.00  0.00    +0.000 HD
ENDBRANCH  20  22
ENDBRANCH  17  20
ENDBRANCH  13  14
ENDBRANCH   1  13
TORSDOF 5
ENDMDL
MODEL 5
REMARK VINA RESULT:      -7.4      3.849      6.864
REMARK  Name = 
REMARK  7 active torsions:
REMARK  status: ('A' for Active; 'I' for Inactive)
REMARK    1  A    between atoms: C_1  and  C_2
REMARK    2  A    between atoms: C_4  and  C_5
REMARK    3  A    between atoms: C_8  and  S_9
REMARK    4  A    between atoms: S_9  and  C_10
REMARK    5  A    between atoms: C_10  and  C_11
REMARK    6  A    between atoms: C_14  and  C_15
REMARK    7  A    between atoms: C_15  and  O_17
REMARK                            x       y       z     vdW  Elec       q    Type
REMARK                         _______ _______ _______ _____ _____    ______ ____
ROOT
ATOM      1  S   UNL     1       3.434   1.698  18.658  0.00  0.00    +0.000 S 
ENDROOT
BRANCH   1   9
ATOM      2  C   UNL     1       8.187   7.488  18.421  0.00  0.00    +0.000 C 
ATOM      3  C   UNL     1       7.254   6.360  18.035  0.00  0.00    +0.000 A 
ATOM      4  C   UNL     1       7.040   6.158  16.564  0.00  0.00    +0.000 A 
ATOM      5  C   UNL     1       6.213   5.160  16.215  0.00  0.00    +0.000 A 
ATOM      6  C   UNL     1       5.888   4.824  14.792  0.00  0.00    +0.000 C 
ATOM      7  N   UNL     1       5.621   4.393  17.223  0.00  0.00    +0.000 N 
ATOM      8  N   UNL     1       4.769   3.358  17.097  0.00  0.00    +0.000 NA
ATOM      9  C   UNL     1       4.529   3.021  18.363  0.00  0.00    +0.000 A 
ATOM     10  N   UNL     1       5.175   3.771  19.301  0.00  0.00    +0.000 NA
ATOM     11  C   UNL     1       5.867   4.638  18.580  0.00  0.00    +0.000 A 
ATOM     12  N   UNL     1       6.704   5.646  18.980  0.00  0.00    +0.000 NA
ENDBRANCH   1   9
BRANCH   1  13
ATOM     13  C   UNL     1       1.789   2.431  18.503  0.00  0.00    +0.000 C 
BRANCH  13  14
ATOM     14  C   UNL     1       1.824   3.883  18.957  0.00  0.00    +0.000 A 
ATOM     15  C   UNL     1       1.663   4.214  20.312  0.00  0.00    +0.000 A 
ATOM     16  C   UNL     1       1.650   5.552  20.725  0.00  0.00    +0.000 A 
ATOM     17  C   UNL     1       1.789   6.586  19.793  0.00  0.00    +0.000 A 
ATOM     18  C   UNL     1       1.961   6.268  18.439  0.00  0.00    +0.000 A 
ATOM     19  C   UNL     1       1.968   4.927  18.027  0.00  0.00    +0.000 A 
BRANCH  17  20
ATOM     20  C   UNL     1       1.796   7.986  20.300  0.00  0.00    +0.000 C 
ATOM     21  O   UNL     1       1.828   8.955  19.561  0.00  0.00    +0.000 OA
BRANCH  20  22
ATOM     22  O   UNL     1       1.800   8.096  21.646  0.00  0.00    +0.000 OA
ATOM     23  H   UNL     1       2.214   8.904  21.998  0.00  0.00    +0.000 HD
ENDBRANCH  20  22
ENDBRANCH  17  20
ENDBRANCH  13  14
ENDBRANCH   1  13
TORSDOF 5
ENDMDL
MODEL 6
REMARK VINA RESULT:      -7.4      3.557      7.047
REMARK  Name = 
REMARK  7 active torsions:
REMARK  status: ('A' for Active; 'I' for Inactive)
REMARK    1  A    between atoms: C_1  and  C_2
REMARK    2  A    between atoms: C_4  and  C_5
REMARK    3  A    between atoms: C_8  and  S_9
REMARK    4  A    between atoms: S_9  and  C_10
REMARK    5  A    between atoms: C_10  and  C_11
REMARK    6  A    between atoms: C_14  and  C_15
REMARK    7  A    between atoms: C_15  and  O_17
REMARK                            x       y       z     vdW  Elec       q    Type
REMARK                         _______ _______ _______ _____ _____    ______ ____
ROOT
ATOM      1  S   UNL     1       6.424   6.326  17.777  0.00  0.00    +0.000 S 
ENDROOT
BRANCH   1   9
ATOM      2  C   UNL     1       5.340   2.443  11.459  0.00  0.00    +0.000 C 
ATOM      3  C   UNL     1       5.896   3.385  12.506  0.00  0.00    +0.000 A 
ATOM      4  C   UNL     1       7.125   4.150  12.115  0.00  0.00    +0.000 A 
ATOM      5  C   UNL     1       7.624   4.987  13.039  0.00  0.00    +0.000 A 
ATOM      6  C   UNL     1       8.845   5.823  12.814  0.00  0.00    +0.000 C 
ATOM      7  N   UNL     1       6.977   5.087  14.275  0.00  0.00    +0.000 N 
ATOM      8  N   UNL     1       7.304   5.854  15.332  0.00  0.00    +0.000 NA
ATOM      9  C   UNL     1       6.361   5.546  16.220  0.00  0.00    +0.000 A 
ATOM     10  N   UNL     1       5.441   4.629  15.803  0.00  0.00    +0.000 NA
ATOM     11  C   UNL     1       5.829   4.340  14.571  0.00  0.00    +0.000 A 
ATOM     12  N   UNL     1       5.288   3.475  13.658  0.00  0.00    +0.000 NA
ENDBRANCH   1   9
BRANCH   1  13
ATOM     13  C   UNL     1       6.379   4.966  18.966  0.00  0.00    +0.000 C 
BRANCH  13  14
ATOM     14  C   UNL     1       4.954   4.447  19.105  0.00  0.00    +0.000 A 
ATOM     15  C   UNL     1       4.706   3.078  19.294  0.00  0.00    +0.000 A 
ATOM     16  C   UNL     1       3.395   2.593  19.376  0.00  0.00    +0.000 A 
ATOM     17  C   UNL     1       2.305   3.464  19.263  0.00  0.00    +0.000 A 
ATOM     18  C   UNL     1       2.541   4.834  19.085  0.00  0.00    +0.000 A 
ATOM     19  C   UNL     1       3.855   5.316  18.997  0.00  0.00    +0.000 A 
BRANCH  17  20
ATOM     20  C   UNL     1       0.938   2.890  19.388  0.00  0.00    +0.000 C 
ATOM     21  O   UNL     1       0.370   2.332  18.465  0.00  0.00    +0.000 OA
BRANCH  20  22
ATOM     22  O   UNL     1       0.362   3.065  20.597  0.00  0.00    +0.000 OA
ATOM     23  H   UNL     1       0.151   3.987  20.830  0.00  0.00    +0.000 HD
ENDBRANCH  20  22
ENDBRANCH  17  20
ENDBRANCH  13  14
ENDBRANCH   1  13
TORSDOF 5
ENDMDL
MODEL 7
REMARK VINA RESULT:      -7.3      3.973      5.604
REMARK  Name = 
REMARK  7 active torsions:
REMARK  status: ('A' for Active; 'I' for Inactive)
REMARK    1  A    between atoms: C_1  and  C_2
REMARK    2  A    between atoms: C_4  and  C_5
REMARK    3  A    between atoms: C_8  and  S_9
REMARK    4  A    between atoms: S_9  and  C_10
REMARK    5  A    between atoms: C_10  and  C_11
REMARK    6  A    between atoms: C_14  and  C_15
REMARK    7  A    between atoms: C_15  and  O_17
REMARK                            x       y       z     vdW  Elec       q    Type
REMARK                         _______ _______ _______ _____ _____    ______ ____
ROOT
ATOM      1  S   UNL     1       2.850   6.150  20.020  0.00  0.00    +0.000 S 
ENDROOT
BRANCH   1   9
ATOM      2  C   UNL     1      -0.633  12.676  18.815  0.00  0.00    +0.000 C 
ATOM      3  C   UNL     1      -0.116  11.403  19.451  0.00  0.00    +0.000 A 
ATOM      4  C   UNL     1      -0.525  11.166  20.874  0.00  0.00    +0.000 A 
ATOM      5  C   UNL     1      -0.069  10.039  21.445  0.00  0.00    +0.000 A 
ATOM      6  C   UNL     1      -0.380   9.651  22.857  0.00  0.00    +0.000 C 
ATOM      7  N   UNL     1       0.738   9.182  20.689  0.00  0.00    +0.000 N 
ATOM      8  N   UNL     1       1.296   8.015  21.060  0.00  0.00    +0.000 NA
ATOM      9  C   UNL     1       1.952   7.642  19.963  0.00  0.00    +0.000 A 
ATOM     10  N   UNL     1       1.850   8.494  18.903  0.00  0.00    +0.000 NA
ATOM     11  C   UNL     1       1.080   9.468  19.361  0.00  0.00    +0.000 A 
ATOM     12  N   UNL     1       0.636  10.605  18.742  0.00  0.00    +0.000 NA
ENDBRANCH   1   9
BRANCH   1  13
ATOM     13  C   UNL     1       2.291   5.231  18.566  0.00  0.00    +0.000 C 
BRANCH  13  14
ATOM     14  C   UNL     1       3.429   5.106  17.563  0.00  0.00    +0.000 A 
ATOM     15  C   UNL     1       3.827   3.848  17.085  0.00  0.00    +0.000 A 
ATOM     16  C   UNL     1       4.903   3.727  16.198  0.00  0.00    +0.000 A 
ATOM     17  C   UNL     1       5.609   4.860  15.776  0.00  0.00    +0.000 A 
ATOM     18  C   UNL     1       5.213   6.122  16.238  0.00  0.00    +0.000 A 
ATOM     19  C   UNL     1       4.139   6.240  17.132  0.00  0.00    +0.000 A 
BRANCH  17  20
ATOM     20  C   UNL     1       6.724   4.667  14.809  0.00  0.00    +0.000 C 
ATOM     21  O   UNL     1       7.686   5.414  14.753  0.00  0.00    +0.000 OA
BRANCH  20  22
ATOM     22  O   UNL     1       6.570   3.617  13.974  0.00  0.00    +0.000 OA
ATOM     23  H   UNL     1       5.775   3.642  13.413  0.00  0.00    +0.000 HD
ENDBRANCH  20  22
ENDBRANCH  17  20
ENDBRANCH  13  14
ENDBRANCH   1  13
TORSDOF 5
ENDMDL
MODEL 8
REMARK VINA RESULT:      -7.3      4.031      5.964
REMARK  Name = 
REMARK  7 active torsions:
REMARK  status: ('A' for Active; 'I' for Inactive)
REMARK    1  A    between atoms: C_1  and  C_2
REMARK    2  A    between atoms: C_4  and  C_5
REMARK    3  A    between atoms: C_8  and  S_9
REMARK    4  A    between atoms: S_9  and  C_10
REMARK    5  A    between atoms: C_10  and  C_11
REMARK    6  A    between atoms: C_14  and  C_15
REMARK    7  A    between atoms: C_15  and  O_17
REMARK                            x       y       z     vdW  Elec       q    Type
REMARK                         _______ _______ _______ _____ _____    ______ ____
ROOT
ATOM      1  S   UNL     1       2.007   5.404  20.705  0.00  0.00    +0.000 S 
ENDROOT
BRANCH   1   9
ATOM      2  C   UNL     1       0.899  12.524  18.644  0.00  0.00    +0.000 C 
ATOM      3  C   UNL     1       0.920  11.225  19.421  0.00  0.00    +0.000 A 
ATOM      4  C   UNL     1       0.312  11.270  20.791  0.00  0.00    +0.000 A 
ATOM      5  C   UNL     1       0.329  10.121  21.487  0.00  0.00    +0.000 A 
ATOM      6  C   UNL     1      -0.233   9.991  22.869  0.00  0.00    +0.000 C 
ATOM      7  N   UNL     1       0.899   8.987  20.899  0.00  0.00    +0.000 N 
ATOM      8  N   UNL     1       1.020   7.749  21.414  0.00  0.00    +0.000 NA
ATOM      9  C   UNL     1       1.635   7.086  20.437  0.00  0.00    +0.000 A 
ATOM     10  N   UNL     1       1.917   7.816  19.320  0.00  0.00    +0.000 NA
ATOM     11  C   UNL     1       1.449   9.019  19.612  0.00  0.00    +0.000 A 
ATOM     12  N   UNL     1       1.453  10.169  18.868  0.00  0.00    +0.000 NA
ENDBRANCH   1   9
BRANCH   1  13
ATOM     13  C   UNL     1       1.952   4.661  19.058  0.00  0.00    +0.000 C 
BRANCH  13  14
ATOM     14  C   UNL     1       3.356   4.594  18.473  0.00  0.00    +0.000 A 
ATOM     15  C   UNL     1       4.466   5.008  19.227  0.00  0.00    +0.000 A 
ATOM     16  C   UNL     1       5.753   4.990  18.676  0.00  0.00    +0.000 A 
ATOM     17  C   UNL     1       5.956   4.566  17.357  0.00  0.00    +0.000 A 
ATOM     18  C   UNL     1       4.858   4.141  16.599  0.00  0.00    +0.000 A 
ATOM     19  C   UNL     1       3.569   4.166  17.151  0.00  0.00    +0.000 A 
BRANCH  17  20
ATOM     20  C   UNL     1       7.352   4.543  16.840  0.00  0.00    +0.000 C 
ATOM     21  O   UNL     1       7.644   4.908  15.714  0.00  0.00    +0.000 OA
BRANCH  20  22
ATOM     22  O   UNL     1       8.265   4.054  17.706  0.00  0.00    +0.000 OA
ATOM     23  H   UNL     1       8.518   4.653  18.430  0.00  0.00    +0.000 HD
ENDBRANCH  20  22
ENDBRANCH  17  20
ENDBRANCH  13  14
ENDBRANCH   1  13
TORSDOF 5
ENDMDL
MODEL 9
REMARK VINA RESULT:      -7.3      3.561      7.044
REMARK  Name = 
REMARK  7 active torsions:
REMARK  status: ('A' for Active; 'I' for Inactive)
REMARK    1  A    between atoms: C_1  and  C_2
REMARK    2  A    between atoms: C_4  and  C_5
REMARK    3  A    between atoms: C_8  and  S_9
REMARK    4  A    between atoms: S_9  and  C_10
REMARK    5  A    between atoms: C_10  and  C_11
REMARK    6  A    between atoms: C_14  and  C_15
REMARK    7  A    between atoms: C_15  and  O_17
REMARK                            x       y       z     vdW  Elec       q    Type
REMARK                         _______ _______ _______ _____ _____    ______ ____
ROOT
ATOM      1  S   UNL     1       6.499   6.229  17.814  0.00  0.00    +0.000 S 
ENDROOT
BRANCH   1   9
ATOM      2  C   UNL     1       5.404   2.403  11.463  0.00  0.00    +0.000 C 
ATOM      3  C   UNL     1       5.949   3.351  12.510  0.00  0.00    +0.000 A 
ATOM      4  C   UNL     1       7.134   4.172  12.099  0.00  0.00    +0.000 A 
ATOM      5  C   UNL     1       7.623   5.015  13.024  0.00  0.00    +0.000 A 
ATOM      6  C   UNL     1       8.802   5.905  12.780  0.00  0.00    +0.000 C 
ATOM      7  N   UNL     1       7.006   5.068  14.278  0.00  0.00    +0.000 N 
ATOM      8  N   UNL     1       7.331   5.831  15.339  0.00  0.00    +0.000 NA
ATOM      9  C   UNL     1       6.426   5.470  16.246  0.00  0.00    +0.000 A 
ATOM     10  N   UNL     1       5.533   4.523  15.838  0.00  0.00    +0.000 NA
ATOM     11  C   UNL     1       5.899   4.270  14.592  0.00  0.00    +0.000 A 
ATOM     12  N   UNL     1       5.369   3.398  13.679  0.00  0.00    +0.000 NA
ENDBRANCH   1   9
BRANCH   1  13
ATOM     13  C   UNL     1       6.415   4.853  18.985  0.00  0.00    +0.000 C 
BRANCH  13  14
ATOM     14  C   UNL     1       4.991   4.322  19.057  0.00  0.00    +0.000 A 
ATOM     15  C   UNL     1       3.900   5.203  19.127  0.00  0.00    +0.000 A 
ATOM     16  C   UNL     1       2.592   4.716  19.240  0.00  0.00    +0.000 A 
ATOM     17  C   UNL     1       2.348   3.338  19.293  0.00  0.00    +0.000 A 
ATOM     18  C   UNL     1       3.428   2.449  19.213  0.00  0.00    +0.000 A 
ATOM     19  C   UNL     1       4.737   2.940  19.107  0.00  0.00    +0.000 A 
BRANCH  17  20
ATOM     20  C   UNL     1       0.933   2.884  19.383  0.00  0.00    +0.000 C 
ATOM     21  O   UNL     1       0.357   2.334  18.460  0.00  0.00    +0.000 OA
BRANCH  20  22
ATOM     22  O   UNL     1       0.327   3.161  20.557  0.00  0.00    +0.000 OA
ATOM     23  H   UNL     1      -0.074   2.399  21.011  0.00  0.00    +0.000 HD
ENDBRANCH  20  22
ENDBRANCH  17  20
ENDBRANCH  13  14
ENDBRANCH   1  13
TORSDOF 5
ENDMDL
