MODEL 1
REMARK VINA RESULT:      -9.9      0.000      0.000
REMARK  Name = 
REMARK  8 active torsions:
REMARK  status: ('A' for Active; 'I' for Inactive)
REMARK    1  A    between atoms: C_1  and  O_2
REMARK    2  A    between atoms: O_2  and  C_3
REMARK    3  A    between atoms: C_6  and  C_7
REMARK    4  A    between atoms: C_7  and  C_8
REMARK    5  A    between atoms: C_8  and  N_9
REMARK    6  A    between atoms: C_13  and  O_14
REMARK    7  A    between atoms: C_28  and  O_29
REMARK    8  A    between atoms: O_29  and  C_30
REMARK                            x       y       z     vdW  Elec       q    Type
REMARK                         _______ _______ _______ _____ _____    ______ ____
ROOT
ATOM      1  N   UNL     1       2.760   6.140  18.311  0.00  0.00    +0.000 N 
ATOM      2  C   UNL     1       4.120   6.184  18.021  0.00  0.00    +0.000 A 
ATOM      3  C   UNL     1       4.617   5.527  19.153  0.00  0.00    +0.000 A 
ATOM      4  C   UNL     1       3.736   4.355  19.153  0.00  0.00    +0.000 A 
ATOM      5  C   UNL     1       3.984   2.964  19.204  0.00  0.00    +0.000 A 
ATOM      6  C   UNL     1       3.042   2.076  18.681  0.00  0.00    +0.000 A 
ATOM      7  C   UNL     1       1.816   2.548  18.201  0.00  0.00    +0.000 A 
ATOM      8  C   UNL     1       1.516   3.918  18.145  0.00  0.00    +0.000 A 
ATOM      9  C   UNL     1       2.539   4.780  18.550  0.00  0.00    +0.000 A 
ATOM     10  C   UNL     1       6.058   5.503  19.053  0.00  0.00    +0.000 C 
ATOM     11  O   UNL     1       6.856   5.276  19.940  0.00  0.00    +0.000 OA
ATOM     12  C   UNL     1       6.314   5.533  17.590  0.00  0.00    +0.000 A 
ATOM     13  C   UNL     1       7.392   4.834  17.078  0.00  0.00    +0.000 A 
ATOM     14  C   UNL     1       7.157   4.103  15.927  0.00  0.00    +0.000 A 
ATOM     15  C   UNL     1       5.872   4.091  15.349  0.00  0.00    +0.000 A 
ATOM     16  C   UNL     1       4.813   4.893  15.847  0.00  0.00    +0.000 A 
ATOM     17  C   UNL     1       5.049   5.691  16.960  0.00  0.00    +0.000 A 
ENDROOT
BRANCH   5  18
ATOM     18  O   UNL     1       5.218   2.442  19.531  0.00  0.00    +0.000 OA
ATOM     19  H   UNL     1       5.201   2.183  20.472  0.00  0.00    +0.000 HD
ENDBRANCH   5  18
BRANCH   1  20
ATOM     20  C   UNL     1       2.118   7.165  19.167  0.00  0.00    +0.000 C 
BRANCH  20  21
ATOM     21  C   UNL     1       1.965   8.622  18.623  0.00  0.00    +0.000 C 
BRANCH  21  25
ATOM     22  C   UNL     1      -1.134  11.340  20.058  0.00  0.00    +0.000 A 
ATOM     23  C   UNL     1      -1.010  11.020  18.702  0.00  0.00    +0.000 A 
ATOM     24  C   UNL     1      -0.017  10.133  18.261  0.00  0.00    +0.000 A 
ATOM     25  C   UNL     1       0.894   9.556  19.159  0.00  0.00    +0.000 A 
ATOM     26  C   UNL     1       0.826   9.964  20.493  0.00  0.00    +0.000 A 
ATOM     27  C   UNL     1      -0.174  10.847  20.956  0.00  0.00    +0.000 A 
BRANCH  22  29
ATOM     28  C   UNL     1      -3.254  12.315  19.626  0.00  0.00    +0.000 C 
ATOM     29  O   UNL     1      -2.127  12.176  20.493  0.00  0.00    +0.000 OA
ENDBRANCH  22  29
BRANCH  27  30
ATOM     30  O   UNL     1      -0.048  11.108  22.297  0.00  0.00    +0.000 OA
ATOM     31  C   UNL     1      -0.674  10.237  23.226  0.00  0.00    +0.000 C 
ENDBRANCH  27  30
ENDBRANCH  21  25
ENDBRANCH  20  21
ENDBRANCH   1  20
TORSDOF 6
ENDMDL
MODEL 2
REMARK VINA RESULT:      -9.8      0.749      1.755
REMARK  Name = 
REMARK  8 active torsions:
REMARK  status: ('A' for Active; 'I' for Inactive)
REMARK    1  A    between atoms: C_1  and  O_2
REMARK    2  A    between atoms: O_2  and  C_3
REMARK    3  A    between atoms: C_6  and  C_7
REMARK    4  A    between atoms: C_7  and  C_8
REMARK    5  A    between atoms: C_8  and  N_9
REMARK    6  A    between atoms: C_13  and  O_14
REMARK    7  A    between atoms: C_28  and  O_29
REMARK    8  A    between atoms: O_29  and  C_30
REMARK                            x       y       z     vdW  Elec       q    Type
REMARK                         _______ _______ _______ _____ _____    ______ ____
ROOT
ATOM      1  N   UNL     1       2.853   6.223  18.326  0.00  0.00    +0.000 N 
ATOM      2  C   UNL     1       4.213   6.222  18.035  0.00  0.00    +0.000 A 
ATOM      3  C   UNL     1       4.687   5.520  19.149  0.00  0.00    +0.000 A 
ATOM      4  C   UNL     1       3.762   4.383  19.124  0.00  0.00    +0.000 A 
ATOM      5  C   UNL     1       3.956   2.982  19.141  0.00  0.00    +0.000 A 
ATOM      6  C   UNL     1       2.980   2.143  18.600  0.00  0.00    +0.000 A 
ATOM      7  C   UNL     1       1.772   2.673  18.135  0.00  0.00    +0.000 A 
ATOM      8  C   UNL     1       1.524   4.054  18.111  0.00  0.00    +0.000 A 
ATOM      9  C   UNL     1       2.580   4.866  18.534  0.00  0.00    +0.000 A 
ATOM     10  C   UNL     1       6.126   5.443  19.045  0.00  0.00    +0.000 C 
ATOM     11  O   UNL     1       6.915   5.165  19.924  0.00  0.00    +0.000 OA
ATOM     12  C   UNL     1       6.380   5.498  17.582  0.00  0.00    +0.000 A 
ATOM     13  C   UNL     1       7.430   4.771  17.052  0.00  0.00    +0.000 A 
ATOM     14  C   UNL     1       7.165   4.077  15.884  0.00  0.00    +0.000 A 
ATOM     15  C   UNL     1       5.879   4.127  15.310  0.00  0.00    +0.000 A 
ATOM     16  C   UNL     1       4.853   4.957  15.828  0.00  0.00    +0.000 A 
ATOM     17  C   UNL     1       5.121   5.719  16.959  0.00  0.00    +0.000 A 
ENDROOT
BRANCH   5  18
ATOM     18  O   UNL     1       5.170   2.406  19.453  0.00  0.00    +0.000 OA
ATOM     19  H   UNL     1       5.770   3.108  19.768  0.00  0.00    +0.000 HD
ENDBRANCH   5  18
BRANCH   1  20
ATOM     20  C   UNL     1       2.252   7.251  19.208  0.00  0.00    +0.000 C 
BRANCH  20  21
ATOM     21  C   UNL     1       1.876   8.643  18.606  0.00  0.00    +0.000 C 
BRANCH  21  25
ATOM     22  C   UNL     1      -0.883  11.262  20.745  0.00  0.00    +0.000 A 
ATOM     23  C   UNL     1      -0.099  10.319  21.416  0.00  0.00    +0.000 A 
ATOM     24  C   UNL     1       0.793   9.495  20.714  0.00  0.00    +0.000 A 
ATOM     25  C   UNL     1       0.914   9.577  19.318  0.00  0.00    +0.000 A 
ATOM     26  C   UNL     1       0.051  10.449  18.650  0.00  0.00    +0.000 A 
ATOM     27  C   UNL     1      -0.845  11.293  19.342  0.00  0.00    +0.000 A 
BRANCH  22  29
ATOM     28  C   UNL     1      -1.584  12.088  22.856  0.00  0.00    +0.000 C 
ATOM     29  O   UNL     1      -1.726  12.093  21.435  0.00  0.00    +0.000 OA
ENDBRANCH  22  29
BRANCH  27  30
ATOM     30  O   UNL     1      -1.591  12.062  18.485  0.00  0.00    +0.000 OA
ATOM     31  C   UNL     1      -2.518  11.423  17.622  0.00  0.00    +0.000 C 
ENDBRANCH  27  30
ENDBRANCH  21  25
ENDBRANCH  20  21
ENDBRANCH   1  20
TORSDOF 6
ENDMDL
MODEL 3
REMARK VINA RESULT:      -9.5      1.064      1.248
REMARK  Name = 
REMARK  8 active torsions:
REMARK  status: ('A' for Active; 'I' for Inactive)
REMARK    1  A    between atoms: C_1  and  O_2
REMARK    2  A    between atoms: O_2  and  C_3
REMARK    3  A    between atoms: C_6  and  C_7
REMARK    4  A    between atoms: C_7  and  C_8
REMARK    5  A    between atoms: C_8  and  N_9
REMARK    6  A    between atoms: C_13  and  O_14
REMARK    7  A    between atoms: C_28  and  O_29
REMARK    8  A    between atoms: O_29  and  C_30
REMARK                            x       y       z     vdW  Elec       q    Type
REMARK                         _______ _______ _______ _____ _____    ______ ____
ROOT
ATOM      1  N   UNL     1       2.892   6.392  18.276  0.00  0.00    +0.000 N 
ATOM      2  C   UNL     1       4.253   6.347  17.992  0.00  0.00    +0.000 A 
ATOM      3  C   UNL     1       4.703   5.658  19.124  0.00  0.00    +0.000 A 
ATOM      4  C   UNL     1       3.746   4.546  19.121  0.00  0.00    +0.000 A 
ATOM      5  C   UNL     1       3.902   3.142  19.171  0.00  0.00    +0.000 A 
ATOM      6  C   UNL     1       2.905   2.318  18.643  0.00  0.00    +0.000 A 
ATOM      7  C   UNL     1       1.715   2.870  18.160  0.00  0.00    +0.000 A 
ATOM      8  C   UNL     1       1.505   4.256  18.104  0.00  0.00    +0.000 A 
ATOM      9  C   UNL     1       2.581   5.049  18.513  0.00  0.00    +0.000 A 
ATOM     10  C   UNL     1       6.139   5.539  19.029  0.00  0.00    +0.000 C 
ATOM     11  O   UNL     1       6.916   5.259  19.919  0.00  0.00    +0.000 OA
ATOM     12  C   UNL     1       6.401   5.553  17.568  0.00  0.00    +0.000 A 
ATOM     13  C   UNL     1       7.433   4.785  17.059  0.00  0.00    +0.000 A 
ATOM     14  C   UNL     1       7.155   4.072  15.907  0.00  0.00    +0.000 A 
ATOM     15  C   UNL     1       5.874   4.144  15.324  0.00  0.00    +0.000 A 
ATOM     16  C   UNL     1       4.868   5.014  15.818  0.00  0.00    +0.000 A 
ATOM     17  C   UNL     1       5.152   5.794  16.933  0.00  0.00    +0.000 A 
ENDROOT
BRANCH   5  18
ATOM     18  O   UNL     1       5.097   2.540  19.503  0.00  0.00    +0.000 OA
ATOM     19  H   UNL     1       4.906   1.768  20.067  0.00  0.00    +0.000 HD
ENDBRANCH   5  18
BRANCH   1  20
ATOM     20  C   UNL     1       2.316   7.457  19.131  0.00  0.00    +0.000 C 
BRANCH  20  21
ATOM     21  C   UNL     1       1.563   8.648  18.457  0.00  0.00    +0.000 C 
BRANCH  21  25
ATOM     22  C   UNL     1       0.394  12.222  20.672  0.00  0.00    +0.000 A 
ATOM     23  C   UNL     1       0.760  12.283  19.324  0.00  0.00    +0.000 A 
ATOM     24  C   UNL     1       1.119  11.122  18.624  0.00  0.00    +0.000 A 
ATOM     25  C   UNL     1       1.142   9.869  19.255  0.00  0.00    +0.000 A 
ATOM     26  C   UNL     1       0.876   9.837  20.627  0.00  0.00    +0.000 A 
ATOM     27  C   UNL     1       0.502  10.995  21.344  0.00  0.00    +0.000 A 
BRANCH  22  29
ATOM     28  C   UNL     1       1.053  14.255  21.703  0.00  0.00    +0.000 C 
ATOM     29  O   UNL     1       0.008  13.350  21.345  0.00  0.00    +0.000 OA
ENDBRANCH  22  29
BRANCH  27  30
ATOM     30  O   UNL     1       0.290  10.728  22.673  0.00  0.00    +0.000 OA
ATOM     31  C   UNL     1      -1.032  10.467  23.117  0.00  0.00    +0.000 C 
ENDBRANCH  27  30
ENDBRANCH  21  25
ENDBRANCH  20  21
ENDBRANCH   1  20
TORSDOF 6
ENDMDL
MODEL 4
REMARK VINA RESULT:      -9.5      1.237      1.863
REMARK  Name = 
REMARK  8 active torsions:
REMARK  status: ('A' for Active; 'I' for Inactive)
REMARK    1  A    between atoms: C_1  and  O_2
REMARK    2  A    between atoms: O_2  and  C_3
REMARK    3  A    between atoms: C_6  and  C_7
REMARK    4  A    between atoms: C_7  and  C_8
REMARK    5  A    between atoms: C_8  and  N_9
REMARK    6  A    between atoms: C_13  and  O_14
REMARK    7  A    between atoms: C_28  and  O_29
REMARK    8  A    between atoms: O_29  and  C_30
REMARK                            x       y       z     vdW  Elec       q    Type
REMARK                         _______ _______ _______ _____ _____    ______ ____
ROOT
ATOM      1  N   UNL     1       2.998   6.623  17.962  0.00  0.00    +0.000 N 
ATOM      2  C   UNL     1       4.362   6.492  17.720  0.00  0.00    +0.000 A 
ATOM      3  C   UNL     1       4.747   5.862  18.909  0.00  0.00    +0.000 A 
ATOM      4  C   UNL     1       3.737   4.801  18.953  0.00  0.00    +0.000 A 
ATOM      5  C   UNL     1       3.821   3.397  19.103  0.00  0.00    +0.000 A 
ATOM      6  C   UNL     1       2.797   2.588  18.604  0.00  0.00    +0.000 A 
ATOM      7  C   UNL     1       1.649   3.162  18.050  0.00  0.00    +0.000 A 
ATOM      8  C   UNL     1       1.510   4.550  17.895  0.00  0.00    +0.000 A 
ATOM      9  C   UNL     1       2.614   5.316  18.280  0.00  0.00    +0.000 A 
ATOM     10  C   UNL     1       6.178   5.668  18.864  0.00  0.00    +0.000 C 
ATOM     11  O   UNL     1       6.918   5.413  19.793  0.00  0.00    +0.000 OA
ATOM     12  C   UNL     1       6.477   5.568  17.413  0.00  0.00    +0.000 A 
ATOM     13  C   UNL     1       7.482   4.719  16.987  0.00  0.00    +0.000 A 
ATOM     14  C   UNL     1       7.198   3.942  15.878  0.00  0.00    +0.000 A 
ATOM     15  C   UNL     1       5.936   4.036  15.255  0.00  0.00    +0.000 A 
ATOM     16  C   UNL     1       4.964   4.985  15.660  0.00  0.00    +0.000 A 
ATOM     17  C   UNL     1       5.258   5.826  16.727  0.00  0.00    +0.000 A 
ENDROOT
BRANCH   5  18
ATOM     18  O   UNL     1       4.976   2.762  19.508  0.00  0.00    +0.000 OA
ATOM     19  H   UNL     1       5.547   3.418  19.950  0.00  0.00    +0.000 HD
ENDBRANCH   5  18
BRANCH   1  20
ATOM     20  C   UNL     1       2.455   7.770  18.726  0.00  0.00    +0.000 C 
BRANCH  20  21
ATOM     21  C   UNL     1       1.697   7.499  20.066  0.00  0.00    +0.000 C 
BRANCH  21  25
ATOM     22  C   UNL     1      -0.167  10.675  22.408  0.00  0.00    +0.000 A 
ATOM     23  C   UNL     1      -0.150   9.349  22.853  0.00  0.00    +0.000 A 
ATOM     24  C   UNL     1       0.466   8.345  22.094  0.00  0.00    +0.000 A 
ATOM     25  C   UNL     1       1.067   8.630  20.858  0.00  0.00    +0.000 A 
ATOM     26  C   UNL     1       0.953   9.937  20.377  0.00  0.00    +0.000 A 
ATOM     27  C   UNL     1       0.345  10.963  21.134  0.00  0.00    +0.000 A 
BRANCH  22  29
ATOM     28  C   UNL     1      -2.155  11.788  23.071  0.00  0.00    +0.000 C 
ATOM     29  O   UNL     1      -0.735  11.663  23.168  0.00  0.00    +0.000 OA
ENDBRANCH  22  29
BRANCH  27  30
ATOM     30  O   UNL     1       0.345  12.162  20.465  0.00  0.00    +0.000 OA
ATOM     31  C   UNL     1       1.476  13.010  20.581  0.00  0.00    +0.000 C 
ENDBRANCH  27  30
ENDBRANCH  21  25
ENDBRANCH  20  21
ENDBRANCH   1  20
TORSDOF 6
ENDMDL
MODEL 5
REMARK VINA RESULT:      -9.4      0.996      1.198
REMARK  Name = 
REMARK  8 active torsions:
REMARK  status: ('A' for Active; 'I' for Inactive)
REMARK    1  A    between atoms: C_1  and  O_2
REMARK    2  A    between atoms: O_2  and  C_3
REMARK    3  A    between atoms: C_6  and  C_7
REMARK    4  A    between atoms: C_7  and  C_8
REMARK    5  A    between atoms: C_8  and  N_9
REMARK    6  A    between atoms: C_13  and  O_14
REMARK    7  A    between atoms: C_28  and  O_29
REMARK    8  A    between atoms: O_29  and  C_30
REMARK                            x       y       z     vdW  Elec       q    Type
REMARK                         _______ _______ _______ _____ _____    ______ ____
ROOT
ATOM      1  N   UNL     1       2.879   6.458  17.999  0.00  0.00    +0.000 N 
ATOM      2  C   UNL     1       4.249   6.393  17.767  0.00  0.00    +0.000 A 
ATOM      3  C   UNL     1       4.655   5.768  18.951  0.00  0.00    +0.000 A 
ATOM      4  C   UNL     1       3.694   4.660  18.976  0.00  0.00    +0.000 A 
ATOM      5  C   UNL     1       3.842   3.260  19.109  0.00  0.00    +0.000 A 
ATOM      6  C   UNL     1       2.861   2.410  18.593  0.00  0.00    +0.000 A 
ATOM      7  C   UNL     1       1.691   2.936  18.038  0.00  0.00    +0.000 A 
ATOM      8  C   UNL     1       1.490   4.318  17.897  0.00  0.00    +0.000 A 
ATOM      9  C   UNL     1       2.554   5.130  18.300  0.00  0.00    +0.000 A 
ATOM     10  C   UNL     1       6.093   5.641  18.914  0.00  0.00    +0.000 C 
ATOM     11  O   UNL     1       6.837   5.409  19.846  0.00  0.00    +0.000 OA
ATOM     12  C   UNL     1       6.407   5.572  17.464  0.00  0.00    +0.000 A 
ATOM     13  C   UNL     1       7.453   4.775  17.037  0.00  0.00    +0.000 A 
ATOM     14  C   UNL     1       7.213   4.000  15.916  0.00  0.00    +0.000 A 
ATOM     15  C   UNL     1       5.953   4.042  15.286  0.00  0.00    +0.000 A 
ATOM     16  C   UNL     1       4.934   4.940  15.694  0.00  0.00    +0.000 A 
ATOM     17  C   UNL     1       5.182   5.781  16.773  0.00  0.00    +0.000 A 
ENDROOT
BRANCH   5  18
ATOM     18  O   UNL     1       5.023   2.675  19.516  0.00  0.00    +0.000 OA
ATOM     19  H   UNL     1       5.731   3.344  19.464  0.00  0.00    +0.000 HD
ENDBRANCH   5  18
BRANCH   1  20
ATOM     20  C   UNL     1       2.277   7.569  18.773  0.00  0.00    +0.000 C 
BRANCH  20  21
ATOM     21  C   UNL     1       1.763   8.833  18.012  0.00  0.00    +0.000 C 
BRANCH  21  25
ATOM     22  C   UNL     1      -0.820  11.797  19.907  0.00  0.00    +0.000 A 
ATOM     23  C   UNL     1      -1.288  10.961  18.888  0.00  0.00    +0.000 A 
ATOM     24  C   UNL     1      -0.448  10.005  18.300  0.00  0.00    +0.000 A 
ATOM     25  C   UNL     1       0.891   9.868  18.700  0.00  0.00    +0.000 A 
ATOM     26  C   UNL     1       1.374  10.777  19.644  0.00  0.00    +0.000 A 
ATOM     27  C   UNL     1       0.539  11.739  20.253  0.00  0.00    +0.000 A 
BRANCH  22  29
ATOM     28  C   UNL     1      -2.198  12.315  21.768  0.00  0.00    +0.000 C 
ATOM     29  O   UNL     1      -1.652  12.705  20.507  0.00  0.00    +0.000 OA
ENDBRANCH  22  29
BRANCH  27  30
ATOM     30  O   UNL     1       1.225  12.523  21.146  0.00  0.00    +0.000 OA
ATOM     31  C   UNL     1       2.280  13.343  20.668  0.00  0.00    +0.000 C 
ENDBRANCH  27  30
ENDBRANCH  21  25
ENDBRANCH  20  21
ENDBRANCH   1  20
TORSDOF 6
ENDMDL
MODEL 6
REMARK VINA RESULT:      -9.4      1.084      1.673
REMARK  Name = 
REMARK  8 active torsions:
REMARK  status: ('A' for Active; 'I' for Inactive)
REMARK    1  A    between atoms: C_1  and  O_2
REMARK    2  A    between atoms: O_2  and  C_3
REMARK    3  A    between atoms: C_6  and  C_7
REMARK    4  A    between atoms: C_7  and  C_8
REMARK    5  A    between atoms: C_8  and  N_9
REMARK    6  A    between atoms: C_13  and  O_14
REMARK    7  A    between atoms: C_28  and  O_29
REMARK    8  A    between atoms: O_29  and  C_30
REMARK                            x       y       z     vdW  Elec       q    Type
REMARK                         _______ _______ _______ _____ _____    ______ ____
ROOT
ATOM      1  N   UNL     1       2.818   6.193  18.174  0.00  0.00    +0.000 N 
ATOM      2  C   UNL     1       4.184   6.209  17.907  0.00  0.00    +0.000 A 
ATOM      3  C   UNL     1       4.649   5.548  19.050  0.00  0.00    +0.000 A 
ATOM      4  C   UNL     1       3.745   4.393  19.041  0.00  0.00    +0.000 A 
ATOM      5  C   UNL     1       3.964   2.998  19.102  0.00  0.00    +0.000 A 
ATOM      6  C   UNL     1       3.013   2.126  18.566  0.00  0.00    +0.000 A 
ATOM      7  C   UNL     1       1.805   2.620  18.065  0.00  0.00    +0.000 A 
ATOM      8  C   UNL     1       1.533   3.995  17.997  0.00  0.00    +0.000 A 
ATOM      9  C   UNL     1       2.566   4.839  18.415  0.00  0.00    +0.000 A 
ATOM     10  C   UNL     1       6.091   5.494  18.973  0.00  0.00    +0.000 C 
ATOM     11  O   UNL     1       6.869   5.255  19.875  0.00  0.00    +0.000 OA
ATOM     12  C   UNL     1       6.371   5.511  17.515  0.00  0.00    +0.000 A 
ATOM     13  C   UNL     1       7.444   4.789  17.025  0.00  0.00    +0.000 A 
ATOM     14  C   UNL     1       7.213   4.058  15.873  0.00  0.00    +0.000 A 
ATOM     15  C   UNL     1       5.937   4.068  15.274  0.00  0.00    +0.000 A 
ATOM     16  C   UNL     1       4.887   4.893  15.750  0.00  0.00    +0.000 A 
ATOM     17  C   UNL     1       5.120   5.692  16.863  0.00  0.00    +0.000 A 
ENDROOT
BRANCH   5  18
ATOM     18  O   UNL     1       5.181   2.453  19.452  0.00  0.00    +0.000 OA
ATOM     19  H   UNL     1       5.500   1.910  18.707  0.00  0.00    +0.000 HD
ENDBRANCH   5  18
BRANCH   1  20
ATOM     20  C   UNL     1       2.183   7.235  19.015  0.00  0.00    +0.000 C 
BRANCH  20  21
ATOM     21  C   UNL     1       1.911   8.646  18.400  0.00  0.00    +0.000 C 
BRANCH  21  25
ATOM     22  C   UNL     1      -0.279  11.637  20.704  0.00  0.00    +0.000 A 
ATOM     23  C   UNL     1      -0.102  10.332  21.177  0.00  0.00    +0.000 A 
ATOM     24  C   UNL     1       0.617   9.389  20.430  0.00  0.00    +0.000 A 
ATOM     25  C   UNL     1       1.164   9.714  19.178  0.00  0.00    +0.000 A 
ATOM     26  C   UNL     1       0.892  10.987  18.671  0.00  0.00    +0.000 A 
ATOM     27  C   UNL     1       0.179  11.953  19.416  0.00  0.00    +0.000 A 
BRANCH  22  29
ATOM     28  C   UNL     1      -2.370  12.440  21.486  0.00  0.00    +0.000 C 
ATOM     29  O   UNL     1      -0.948  12.569  21.451  0.00  0.00    +0.000 OA
ENDBRANCH  22  29
BRANCH  27  30
ATOM     30  O   UNL     1       0.030  13.127  18.722  0.00  0.00    +0.000 OA
ATOM     31  C   UNL     1       1.058  14.102  18.798  0.00  0.00    +0.000 C 
ENDBRANCH  27  30
ENDBRANCH  21  25
ENDBRANCH  20  21
ENDBRANCH   1  20
TORSDOF 6
ENDMDL
MODEL 7
REMARK VINA RESULT:      -9.1      1.502      1.725
REMARK  Name = 
REMARK  8 active torsions:
REMARK  status: ('A' for Active; 'I' for Inactive)
REMARK    1  A    between atoms: C_1  and  O_2
REMARK    2  A    between atoms: O_2  and  C_3
REMARK    3  A    between atoms: C_6  and  C_7
REMARK    4  A    between atoms: C_7  and  C_8
REMARK    5  A    between atoms: C_8  and  N_9
REMARK    6  A    between atoms: C_13  and  O_14
REMARK    7  A    between atoms: C_28  and  O_29
REMARK    8  A    between atoms: O_29  and  C_30
REMARK                            x       y       z     vdW  Elec       q    Type
REMARK                         _______ _______ _______ _____ _____    ______ ____
ROOT
ATOM      1  N   UNL     1       2.956   6.551  17.943  0.00  0.00    +0.000 N 
ATOM      2  C   UNL     1       4.328   6.461  17.731  0.00  0.00    +0.000 A 
ATOM      3  C   UNL     1       4.703   5.819  18.917  0.00  0.00    +0.000 A 
ATOM      4  C   UNL     1       3.720   4.730  18.918  0.00  0.00    +0.000 A 
ATOM      5  C   UNL     1       3.838   3.327  19.044  0.00  0.00    +0.000 A 
ATOM      6  C   UNL     1       2.848   2.501  18.507  0.00  0.00    +0.000 A 
ATOM      7  C   UNL     1       1.697   3.055  17.938  0.00  0.00    +0.000 A 
ATOM      8  C   UNL     1       1.526   4.442  17.804  0.00  0.00    +0.000 A 
ATOM      9  C   UNL     1       2.600   5.229  18.229  0.00  0.00    +0.000 A 
ATOM     10  C   UNL     1       6.139   5.663  18.901  0.00  0.00    +0.000 C 
ATOM     11  O   UNL     1       6.864   5.409  19.841  0.00  0.00    +0.000 OA
ATOM     12  C   UNL     1       6.473   5.598  17.455  0.00  0.00    +0.000 A 
ATOM     13  C   UNL     1       7.510   4.783  17.037  0.00  0.00    +0.000 A 
ATOM     14  C   UNL     1       7.271   4.021  15.908  0.00  0.00    +0.000 A 
ATOM     15  C   UNL     1       6.022   4.093  15.258  0.00  0.00    +0.000 A 
ATOM     16  C   UNL     1       5.015   5.009  15.658  0.00  0.00    +0.000 A 
ATOM     17  C   UNL     1       5.263   5.837  16.747  0.00  0.00    +0.000 A 
ENDROOT
BRANCH   5  18
ATOM     18  O   UNL     1       5.000   2.715  19.464  0.00  0.00    +0.000 OA
ATOM     19  H   UNL     1       5.025   2.741  20.439  0.00  0.00    +0.000 HD
ENDBRANCH   5  18
BRANCH   1  20
ATOM     20  C   UNL     1       2.365   7.669  18.716  0.00  0.00    +0.000 C 
BRANCH  20  21
ATOM     21  C   UNL     1       1.432   8.688  17.986  0.00  0.00    +0.000 C 
BRANCH  21  25
ATOM     22  C   UNL     1       1.192  12.841  19.305  0.00  0.00    +0.000 A 
ATOM     23  C   UNL     1       2.211  12.400  18.454  0.00  0.00    +0.000 A 
ATOM     24  C   UNL     1       2.263  11.065  18.029  0.00  0.00    +0.000 A 
ATOM     25  C   UNL     1       1.312  10.126  18.457  0.00  0.00    +0.000 A 
ATOM     26  C   UNL     1       0.362  10.555  19.388  0.00  0.00    +0.000 A 
ATOM     27  C   UNL     1       0.289  11.898  19.818  0.00  0.00    +0.000 A 
BRANCH  22  29
ATOM     28  C   UNL     1       0.213  14.973  18.950  0.00  0.00    +0.000 C 
ATOM     29  O   UNL     1       1.119  14.153  19.690  0.00  0.00    +0.000 OA
ENDBRANCH  22  29
BRANCH  27  30
ATOM     30  O   UNL     1      -0.717  12.089  20.731  0.00  0.00    +0.000 OA
ATOM     31  C   UNL     1      -2.051  12.220  20.264  0.00  0.00    +0.000 C 
ENDBRANCH  27  30
ENDBRANCH  21  25
ENDBRANCH  20  21
ENDBRANCH   1  20
TORSDOF 6
ENDMDL
MODEL 8
REMARK VINA RESULT:      -8.4      0.951      1.056
REMARK  Name = 
REMARK  8 active torsions:
REMARK  status: ('A' for Active; 'I' for Inactive)
REMARK    1  A    between atoms: C_1  and  O_2
REMARK    2  A    between atoms: O_2  and  C_3
REMARK    3  A    between atoms: C_6  and  C_7
REMARK    4  A    between atoms: C_7  and  C_8
REMARK    5  A    between atoms: C_8  and  N_9
REMARK    6  A    between atoms: C_13  and  O_14
REMARK    7  A    between atoms: C_28  and  O_29
REMARK    8  A    between atoms: O_29  and  C_30
REMARK                            x       y       z     vdW  Elec       q    Type
REMARK                         _______ _______ _______ _____ _____    ______ ____
ROOT
ATOM      1  N   UNL     1       3.247   6.949  17.392  0.00  0.00    +0.000 N 
ATOM      2  C   UNL     1       4.561   6.791  16.964  0.00  0.00    +0.000 A 
ATOM      3  C   UNL     1       5.138   6.329  18.152  0.00  0.00    +0.000 A 
ATOM      4  C   UNL     1       4.172   5.280  18.492  0.00  0.00    +0.000 A 
ATOM      5  C   UNL     1       4.311   3.909  18.813  0.00  0.00    +0.000 A 
ATOM      6  C   UNL     1       3.244   3.036  18.589  0.00  0.00    +0.000 A 
ATOM      7  C   UNL     1       2.011   3.527  18.148  0.00  0.00    +0.000 A 
ATOM      8  C   UNL     1       1.817   4.880  17.832  0.00  0.00    +0.000 A 
ATOM      9  C   UNL     1       2.948   5.695  17.937  0.00  0.00    +0.000 A 
ATOM     10  C   UNL     1       6.550   6.136  17.913  0.00  0.00    +0.000 C 
ATOM     11  O   UNL     1       7.428   6.011  18.743  0.00  0.00    +0.000 OA
ATOM     12  C   UNL     1       6.627   5.841  16.460  0.00  0.00    +0.000 A 
ATOM     13  C   UNL     1       7.576   4.946  16.002  0.00  0.00    +0.000 A 
ATOM     14  C   UNL     1       7.145   4.025  15.063  0.00  0.00    +0.000 A 
ATOM     15  C   UNL     1       5.802   4.030  14.635  0.00  0.00    +0.000 A 
ATOM     16  C   UNL     1       4.879   5.021  15.055  0.00  0.00    +0.000 A 
ATOM     17  C   UNL     1       5.312   6.000  15.942  0.00  0.00    +0.000 A 
ENDROOT
BRANCH   5  18
ATOM     18  O   UNL     1       5.530   3.339  19.116  0.00  0.00    +0.000 OA
ATOM     19  H   UNL     1       5.389   2.666  19.808  0.00  0.00    +0.000 HD
ENDBRANCH   5  18
BRANCH   1  20
ATOM     20  C   UNL     1       2.799   8.187  18.072  0.00  0.00    +0.000 C 
BRANCH  20  21
ATOM     21  C   UNL     1       1.851   8.073  19.309  0.00  0.00    +0.000 C 
BRANCH  21  25
ATOM     22  C   UNL     1      -0.581  11.493  20.508  0.00  0.00    +0.000 A 
ATOM     23  C   UNL     1      -0.253  11.260  19.168  0.00  0.00    +0.000 A 
ATOM     24  C   UNL     1       0.517  10.148  18.800  0.00  0.00    +0.000 A 
ATOM     25  C   UNL     1       1.000   9.246  19.761  0.00  0.00    +0.000 A 
ATOM     26  C   UNL     1       0.754   9.547  21.103  0.00  0.00    +0.000 A 
ATOM     27  C   UNL     1      -0.029  10.657  21.490  0.00  0.00    +0.000 A 
BRANCH  22  29
ATOM     28  C   UNL     1      -2.629  12.653  20.204  0.00  0.00    +0.000 C 
ATOM     29  O   UNL     1      -1.365  12.558  20.863  0.00  0.00    +0.000 OA
ENDBRANCH  22  29
BRANCH  27  30
ATOM     30  O   UNL     1      -0.137  10.757  22.854  0.00  0.00    +0.000 OA
ATOM     31  C   UNL     1      -0.083   9.573  23.635  0.00  0.00    +0.000 C 
ENDBRANCH  27  30
ENDBRANCH  21  25
ENDBRANCH  20  21
ENDBRANCH   1  20
TORSDOF 6
ENDMDL
MODEL 9
REMARK VINA RESULT:      -8.4      1.983      3.982
REMARK  Name = 
REMARK  8 active torsions:
REMARK  status: ('A' for Active; 'I' for Inactive)
REMARK    1  A    between atoms: C_1  and  O_2
REMARK    2  A    between atoms: O_2  and  C_3
REMARK    3  A    between atoms: C_6  and  C_7
REMARK    4  A    between atoms: C_7  and  C_8
REMARK    5  A    between atoms: C_8  and  N_9
REMARK    6  A    between atoms: C_13  and  O_14
REMARK    7  A    between atoms: C_28  and  O_29
REMARK    8  A    between atoms: O_29  and  C_30
REMARK                            x       y       z     vdW  Elec       q    Type
REMARK                         _______ _______ _______ _____ _____    ______ ____
ROOT
ATOM      1  N   UNL     1       3.170   6.956  18.605  0.00  0.00    +0.000 N 
ATOM      2  C   UNL     1       2.186   6.043  18.971  0.00  0.00    +0.000 A 
ATOM      3  C   UNL     1       2.284   5.154  17.894  0.00  0.00    +0.000 A 
ATOM      4  C   UNL     1       3.736   4.953  17.884  0.00  0.00    +0.000 A 
ATOM      5  C   UNL     1       4.548   3.796  17.897  0.00  0.00    +0.000 A 
ATOM      6  C   UNL     1       5.851   3.873  18.395  0.00  0.00    +0.000 A 
ATOM      7  C   UNL     1       6.387   5.104  18.785  0.00  0.00    +0.000 A 
ATOM      8  C   UNL     1       5.627   6.284  18.775  0.00  0.00    +0.000 A 
ATOM      9  C   UNL     1       4.288   6.139  18.401  0.00  0.00    +0.000 A 
ATOM     10  C   UNL     1       1.288   4.124  18.080  0.00  0.00    +0.000 C 
ATOM     11  O   UNL     1       0.874   3.341  17.249  0.00  0.00    +0.000 OA
ATOM     12  C   UNL     1       1.111   4.061  19.553  0.00  0.00    +0.000 A 
ATOM     13  C   UNL     1       0.855   2.841  20.151  0.00  0.00    +0.000 A 
ATOM     14  C   UNL     1       1.559   2.569  21.312  0.00  0.00    +0.000 A 
ATOM     15  C   UNL     1       2.482   3.509  21.813  0.00  0.00    +0.000 A 
ATOM     16  C   UNL     1       2.650   4.789  21.227  0.00  0.00    +0.000 A 
ATOM     17  C   UNL     1       1.899   5.110  20.102  0.00  0.00    +0.000 A 
ENDROOT
BRANCH   5  18
ATOM     18  O   UNL     1       4.045   2.534  17.661  0.00  0.00    +0.000 OA
ATOM     19  H   UNL     1       4.339   1.947  18.382  0.00  0.00    +0.000 HD
ENDBRANCH   5  18
BRANCH   1  20
ATOM     20  C   UNL     1       2.880   8.074  17.676  0.00  0.00    +0.000 C 
BRANCH  20  21
ATOM     21  C   UNL     1       1.509   8.816  17.785  0.00  0.00    +0.000 C 
BRANCH  21  25
ATOM     22  C   UNL     1       0.786  11.795  20.891  0.00  0.00    +0.000 A 
ATOM     23  C   UNL     1       1.045  12.165  19.567  0.00  0.00    +0.000 A 
ATOM     24  C   UNL     1       1.261  11.193  18.579  0.00  0.00    +0.000 A 
ATOM     25  C   UNL     1       1.244   9.824  18.889  0.00  0.00    +0.000 A 
ATOM     26  C   UNL     1       1.087   9.472  20.232  0.00  0.00    +0.000 A 
ATOM     27  C   UNL     1       0.858  10.437  21.237  0.00  0.00    +0.000 A 
BRANCH  22  29
ATOM     28  C   UNL     1       0.786  14.098  21.467  0.00  0.00    +0.000 C 
ATOM     29  O   UNL     1       0.537  12.743  21.847  0.00  0.00    +0.000 OA
ENDBRANCH  22  29
BRANCH  27  30
ATOM     30  O   UNL     1       0.735   9.865  22.478  0.00  0.00    +0.000 OA
ATOM     31  C   UNL     1      -0.554   9.775  23.066  0.00  0.00    +0.000 C 
ENDBRANCH  27  30
ENDBRANCH  21  25
ENDBRANCH  20  21
ENDBRANCH   1  20
TORSDOF 6
ENDMDL
