MODEL 1
REMARK VINA RESULT:      -7.3      0.000      0.000
REMARK  Name = 
REMARK  6 active torsions:
REMARK  status: ('A' for Active; 'I' for Inactive)
REMARK    1  A    between atoms: C_1  and  C_2
REMARK    2  A    between atoms: C_2  and  C_3
REMARK    3  A    between atoms: N_4  and  N_5
REMARK    4  A    between atoms: C_6  and  S_7
REMARK    5  A    between atoms: C_10  and  C_11
REMARK    6  A    between atoms: C_17  and  C_18
REMARK                            x       y       z     vdW  Elec       q    Type
REMARK                         _______ _______ _______ _____ _____    ______ ____
ROOT
ATOM      1  N   UNL     1       3.351   4.633  19.146  0.00  0.00    +0.000 N 
ATOM      2  C   UNL     1       2.846   3.646  19.983  0.00  0.00    +0.000 A 
ATOM      3  N   UNL     1       3.732   2.693  20.160  0.00  0.00    +0.000 NA
ATOM      4  N   UNL     1       4.827   3.004  19.408  0.00  0.00    +0.000 NA
ATOM      5  C   UNL     1       4.604   4.143  18.768  0.00  0.00    +0.000 A 
ENDROOT
BRANCH   5   6
ATOM      6  C   UNL     1       5.594   4.781  17.889  0.00  0.00    +0.000 A 
ATOM      7  C   UNL     1       6.362   5.884  18.260  0.00  0.00    +0.000 A 
ATOM      8  C   UNL     1       7.249   6.420  17.335  0.00  0.00    +0.000 A 
ATOM      9  N   UNL     1       7.421   5.941  16.085  0.00  0.00    +0.000 NA
ATOM     10  C   UNL     1       6.662   4.883  15.736  0.00  0.00    +0.000 A 
ATOM     11  C   UNL     1       5.749   4.283  16.588  0.00  0.00    +0.000 A 
ENDBRANCH   5   6
BRANCH   1  13
ATOM     12  C   UNL     1       2.771   6.802  19.462  0.00  0.00    +0.000 C 
ATOM     13  N   UNL     1       2.749   5.781  18.667  0.00  0.00    +0.000 NA
BRANCH  12  15
ATOM     14  C   UNL     1       2.033   8.599  17.783  0.00  0.00    +0.000 C 
ATOM     15  C   UNL     1       2.020   8.061  19.185  0.00  0.00    +0.000 C 
ATOM     16  C   UNL     1       1.379   8.606  20.236  0.00  0.00    +0.000 C 
BRANCH  16  17
ATOM     17  C   UNL     1       0.573   9.779  20.138  0.00  0.00    +0.000 A 
ATOM     18  C   UNL     1       0.846  11.062  20.600  0.00  0.00    +0.000 A 
ATOM     19  C   UNL     1      -0.252  11.892  20.271  0.00  0.00    +0.000 A 
ATOM     20  C   UNL     1      -1.161  11.078  19.648  0.00  0.00    +0.000 A 
ATOM     21  O   UNL     1      -0.681   9.813  19.567  0.00  0.00    +0.000 OA
ENDBRANCH  16  17
ENDBRANCH  12  15
ENDBRANCH   1  13
BRANCH   2  22
ATOM     22  S   UNL     1       1.249   3.590  20.655  0.00  0.00    +0.000 S 
ATOM     23  H   UNL     1       1.530   3.898  21.926  0.00  0.00    +0.000 HD
ENDBRANCH   2  22
TORSDOF 5
ENDMDL
MODEL 2
REMARK VINA RESULT:      -7.2      0.607      1.288
REMARK  Name = 
REMARK  6 active torsions:
REMARK  status: ('A' for Active; 'I' for Inactive)
REMARK    1  A    between atoms: C_1  and  C_2
REMARK    2  A    between atoms: C_2  and  C_3
REMARK    3  A    between atoms: N_4  and  N_5
REMARK    4  A    between atoms: C_6  and  S_7
REMARK    5  A    between atoms: C_10  and  C_11
REMARK    6  A    between atoms: C_17  and  C_18
REMARK                            x       y       z     vdW  Elec       q    Type
REMARK                         _______ _______ _______ _____ _____    ______ ____
ROOT
ATOM      1  N   UNL     1       3.181   4.577  18.988  0.00  0.00    +0.000 N 
ATOM      2  C   UNL     1       2.657   3.586  19.808  0.00  0.00    +0.000 A 
ATOM      3  N   UNL     1       3.512   2.599  19.942  0.00  0.00    +0.000 NA
ATOM      4  N   UNL     1       4.604   2.893  19.176  0.00  0.00    +0.000 NA
ATOM      5  C   UNL     1       4.408   4.055  18.572  0.00  0.00    +0.000 A 
ENDROOT
BRANCH   5   6
ATOM      6  C   UNL     1       5.403   4.684  17.691  0.00  0.00    +0.000 A 
ATOM      7  C   UNL     1       5.611   4.308  16.364  0.00  0.00    +0.000 A 
ATOM      8  C   UNL     1       6.598   4.956  15.635  0.00  0.00    +0.000 A 
ATOM      9  N   UNL     1       7.382   5.938  16.128  0.00  0.00    +0.000 NA
ATOM     10  C   UNL     1       7.180   6.281  17.415  0.00  0.00    +0.000 A 
ATOM     11  C   UNL     1       6.222   5.690  18.222  0.00  0.00    +0.000 A 
ENDBRANCH   5   6
BRANCH   1  13
ATOM     12  C   UNL     1       2.748   6.775  19.341  0.00  0.00    +0.000 C 
ATOM     13  N   UNL     1       2.610   5.758  18.553  0.00  0.00    +0.000 NA
BRANCH  12  15
ATOM     14  C   UNL     1       2.132   8.697  17.754  0.00  0.00    +0.000 C 
ATOM     15  C   UNL     1       2.051   8.075  19.119  0.00  0.00    +0.000 C 
ATOM     16  C   UNL     1       1.391   8.578  20.179  0.00  0.00    +0.000 C 
BRANCH  16  17
ATOM     17  C   UNL     1       0.629   9.782  20.126  0.00  0.00    +0.000 A 
ATOM     18  C   UNL     1      -0.655   9.978  19.626  0.00  0.00    +0.000 A 
ATOM     19  C   UNL     1      -0.989  11.343  19.790  0.00  0.00    +0.000 A 
ATOM     20  C   UNL     1       0.112  11.930  20.357  0.00  0.00    +0.000 A 
ATOM     21  O   UNL     1       1.085  11.009  20.558  0.00  0.00    +0.000 OA
ENDBRANCH  16  17
ENDBRANCH  12  15
ENDBRANCH   1  13
BRANCH   2  22
ATOM     22  S   UNL     1       1.073   3.566  20.510  0.00  0.00    +0.000 S 
ATOM     23  H   UNL     1       1.354   4.080  21.713  0.00  0.00    +0.000 HD
ENDBRANCH   2  22
TORSDOF 5
ENDMDL
MODEL 3
REMARK VINA RESULT:      -7.1      3.080      7.053
REMARK  Name = 
REMARK  6 active torsions:
REMARK  status: ('A' for Active; 'I' for Inactive)
REMARK    1  A    between atoms: C_1  and  C_2
REMARK    2  A    between atoms: C_2  and  C_3
REMARK    3  A    between atoms: N_4  and  N_5
REMARK    4  A    between atoms: C_6  and  S_7
REMARK    5  A    between atoms: C_10  and  C_11
REMARK    6  A    between atoms: C_17  and  C_18
REMARK                            x       y       z     vdW  Elec       q    Type
REMARK                         _______ _______ _______ _____ _____    ______ ____
ROOT
ATOM      1  N   UNL     1       2.965   4.428  18.988  0.00  0.00    +0.000 N 
ATOM      2  C   UNL     1       3.081   3.317  19.813  0.00  0.00    +0.000 A 
ATOM      3  N   UNL     1       2.630   3.587  21.016  0.00  0.00    +0.000 NA
ATOM      4  N   UNL     1       2.246   4.897  21.028  0.00  0.00    +0.000 NA
ATOM      5  C   UNL     1       2.471   5.425  19.834  0.00  0.00    +0.000 A 
ENDROOT
BRANCH   5   6
ATOM      6  C   UNL     1       2.144   6.817  19.493  0.00  0.00    +0.000 A 
ATOM      7  C   UNL     1       2.389   7.386  18.244  0.00  0.00    +0.000 A 
ATOM      8  C   UNL     1       2.061   8.720  18.044  0.00  0.00    +0.000 A 
ATOM      9  N   UNL     1       1.515   9.515  18.989  0.00  0.00    +0.000 NA
ATOM     10  C   UNL     1       1.297   8.955  20.195  0.00  0.00    +0.000 A 
ATOM     11  C   UNL     1       1.593   7.634  20.489  0.00  0.00    +0.000 A 
ENDBRANCH   5   6
BRANCH   1  13
ATOM     12  C   UNL     1       4.619   4.762  17.474  0.00  0.00    +0.000 C 
ATOM     13  N   UNL     1       3.351   4.597  17.672  0.00  0.00    +0.000 NA
BRANCH  12  15
ATOM     14  C   UNL     1       5.097   6.568  15.712  0.00  0.00    +0.000 C 
ATOM     15  C   UNL     1       5.191   5.133  16.146  0.00  0.00    +0.000 C 
ATOM     16  C   UNL     1       5.760   4.131  15.450  0.00  0.00    +0.000 C 
BRANCH  16  17
ATOM     17  C   UNL     1       6.399   4.320  14.189  0.00  0.00    +0.000 A 
ATOM     18  C   UNL     1       6.194   3.630  12.999  0.00  0.00    +0.000 A 
ATOM     19  C   UNL     1       7.061   4.172  12.020  0.00  0.00    +0.000 A 
ATOM     20  C   UNL     1       7.777   5.150  12.658  0.00  0.00    +0.000 A 
ATOM     21  O   UNL     1       7.394   5.245  13.954  0.00  0.00    +0.000 OA
ENDBRANCH  16  17
ENDBRANCH  12  15
ENDBRANCH   1  13
BRANCH   2  22
ATOM     22  S   UNL     1       3.793   1.794  19.390  0.00  0.00    +0.000 S 
ATOM     23  H   UNL     1       3.824   1.924  18.059  0.00  0.00    +0.000 HD
ENDBRANCH   2  22
TORSDOF 5
ENDMDL
MODEL 4
REMARK VINA RESULT:      -7.0      4.803      6.010
REMARK  Name = 
REMARK  6 active torsions:
REMARK  status: ('A' for Active; 'I' for Inactive)
REMARK    1  A    between atoms: C_1  and  C_2
REMARK    2  A    between atoms: C_2  and  C_3
REMARK    3  A    between atoms: N_4  and  N_5
REMARK    4  A    between atoms: C_6  and  S_7
REMARK    5  A    between atoms: C_10  and  C_11
REMARK    6  A    between atoms: C_17  and  C_18
REMARK                            x       y       z     vdW  Elec       q    Type
REMARK                         _______ _______ _______ _____ _____    ______ ____
ROOT
ATOM      1  N   UNL     1       6.183   4.068  14.871  0.00  0.00    +0.000 N 
ATOM      2  C   UNL     1       6.289   4.036  13.487  0.00  0.00    +0.000 A 
ATOM      3  N   UNL     1       7.237   4.847  13.078  0.00  0.00    +0.000 NA
ATOM      4  N   UNL     1       7.751   5.468  14.179  0.00  0.00    +0.000 NA
ATOM      5  C   UNL     1       7.110   5.041  15.256  0.00  0.00    +0.000 A 
ENDROOT
BRANCH   5   6
ATOM      6  C   UNL     1       7.434   5.488  16.619  0.00  0.00    +0.000 A 
ATOM      7  C   UNL     1       7.688   4.620  17.680  0.00  0.00    +0.000 A 
ATOM      8  C   UNL     1       7.958   5.158  18.931  0.00  0.00    +0.000 A 
ATOM      9  N   UNL     1       7.992   6.481  19.195  0.00  0.00    +0.000 NA
ATOM     10  C   UNL     1       7.731   7.308  18.163  0.00  0.00    +0.000 A 
ATOM     11  C   UNL     1       7.448   6.865  16.881  0.00  0.00    +0.000 A 
ENDBRANCH   5   6
BRANCH   1  13
ATOM     12  C   UNL     1       4.486   4.166  16.372  0.00  0.00    +0.000 C 
ATOM     13  N   UNL     1       5.300   3.411  15.707  0.00  0.00    +0.000 NA
BRANCH  12  15
ATOM     14  C   UNL     1       2.569   2.609  17.075  0.00  0.00    +0.000 C 
ATOM     15  C   UNL     1       3.591   3.645  17.446  0.00  0.00    +0.000 C 
ATOM     16  C   UNL     1       3.791   4.154  18.676  0.00  0.00    +0.000 C 
BRANCH  16  17
ATOM     17  C   UNL     1       3.061   3.731  19.826  0.00  0.00    +0.000 A 
ATOM     18  C   UNL     1       1.905   4.281  20.373  0.00  0.00    +0.000 A 
ATOM     19  C   UNL     1       1.551   3.519  21.511  0.00  0.00    +0.000 A 
ATOM     20  C   UNL     1       2.517   2.554  21.629  0.00  0.00    +0.000 A 
ATOM     21  O   UNL     1       3.425   2.673  20.631  0.00  0.00    +0.000 OA
ENDBRANCH  16  17
ENDBRANCH  12  15
ENDBRANCH   1  13
BRANCH   2  22
ATOM     22  S   UNL     1       5.279   3.139  12.401  0.00  0.00    +0.000 S 
ATOM     23  H   UNL     1       6.121   2.152  12.075  0.00  0.00    +0.000 HD
ENDBRANCH   2  22
TORSDOF 5
ENDMDL
MODEL 5
REMARK VINA RESULT:      -7.0      1.193      1.586
REMARK  Name = 
REMARK  6 active torsions:
REMARK  status: ('A' for Active; 'I' for Inactive)
REMARK    1  A    between atoms: C_1  and  C_2
REMARK    2  A    between atoms: C_2  and  C_3
REMARK    3  A    between atoms: N_4  and  N_5
REMARK    4  A    between atoms: C_6  and  S_7
REMARK    5  A    between atoms: C_10  and  C_11
REMARK    6  A    between atoms: C_17  and  C_18
REMARK                            x       y       z     vdW  Elec       q    Type
REMARK                         _______ _______ _______ _____ _____    ______ ____
ROOT
ATOM      1  N   UNL     1       2.927   3.964  18.135  0.00  0.00    +0.000 N 
ATOM      2  C   UNL     1       2.281   2.842  18.638  0.00  0.00    +0.000 A 
ATOM      3  N   UNL     1       3.025   1.772  18.482  0.00  0.00    +0.000 NA
ATOM      4  N   UNL     1       4.162   2.153  17.830  0.00  0.00    +0.000 NA
ATOM      5  C   UNL     1       4.106   3.454  17.584  0.00  0.00    +0.000 A 
ENDROOT
BRANCH   5   6
ATOM      6  C   UNL     1       5.185   4.196  16.918  0.00  0.00    +0.000 A 
ATOM      7  C   UNL     1       5.310   4.306  15.534  0.00  0.00    +0.000 A 
ATOM      8  C   UNL     1       6.388   5.012  15.016  0.00  0.00    +0.000 A 
ATOM      9  N   UNL     1       7.335   5.608  15.770  0.00  0.00    +0.000 NA
ATOM     10  C   UNL     1       7.209   5.481  17.106  0.00  0.00    +0.000 A 
ATOM     11  C   UNL     1       6.171   4.794  17.714  0.00  0.00    +0.000 A 
ENDBRANCH   5   6
BRANCH   1  13
ATOM     12  C   UNL     1       2.784   6.024  19.072  0.00  0.00    +0.000 C 
ATOM     13  N   UNL     1       2.495   5.274  18.057  0.00  0.00    +0.000 NA
BRANCH  12  15
ATOM     14  C   UNL     1       2.489   8.396  18.134  0.00  0.00    +0.000 C 
ATOM     15  C   UNL     1       2.247   7.407  19.238  0.00  0.00    +0.000 C 
ATOM     16  C   UNL     1       1.573   7.643  20.379  0.00  0.00    +0.000 C 
BRANCH  16  17
ATOM     17  C   UNL     1       0.950   8.891  20.675  0.00  0.00    +0.000 A 
ATOM     18  C   UNL     1       1.133   9.713  21.783  0.00  0.00    +0.000 A 
ATOM     19  C   UNL     1       0.297  10.845  21.635  0.00  0.00    +0.000 A 
ATOM     20  C   UNL     1      -0.381  10.656  20.460  0.00  0.00    +0.000 A 
ATOM     21  O   UNL     1      -0.003   9.491  19.880  0.00  0.00    +0.000 OA
ENDBRANCH  16  17
ENDBRANCH  12  15
ENDBRANCH   1  13
BRANCH   2  22
ATOM     22  S   UNL     1       0.683   2.794  19.309  0.00  0.00    +0.000 S 
ATOM     23  H   UNL     1       0.831   3.674  20.305  0.00  0.00    +0.000 HD
ENDBRANCH   2  22
TORSDOF 5
ENDMDL
MODEL 6
REMARK VINA RESULT:      -7.0      4.833      5.984
REMARK  Name = 
REMARK  6 active torsions:
REMARK  status: ('A' for Active; 'I' for Inactive)
REMARK    1  A    between atoms: C_1  and  C_2
REMARK    2  A    between atoms: C_2  and  C_3
REMARK    3  A    between atoms: N_4  and  N_5
REMARK    4  A    between atoms: C_6  and  S_7
REMARK    5  A    between atoms: C_10  and  C_11
REMARK    6  A    between atoms: C_17  and  C_18
REMARK                            x       y       z     vdW  Elec       q    Type
REMARK                         _______ _______ _______ _____ _____    ______ ____
ROOT
ATOM      1  N   UNL     1       6.153   4.126  14.868  0.00  0.00    +0.000 N 
ATOM      2  C   UNL     1       6.289   4.047  13.488  0.00  0.00    +0.000 A 
ATOM      3  N   UNL     1       7.266   4.822  13.077  0.00  0.00    +0.000 NA
ATOM      4  N   UNL     1       7.769   5.466  14.169  0.00  0.00    +0.000 NA
ATOM      5  C   UNL     1       7.093   5.089  15.244  0.00  0.00    +0.000 A 
ENDROOT
BRANCH   5   6
ATOM      6  C   UNL     1       7.396   5.573  16.599  0.00  0.00    +0.000 A 
ATOM      7  C   UNL     1       7.446   6.922  16.946  0.00  0.00    +0.000 A 
ATOM      8  C   UNL     1       7.768   7.262  18.253  0.00  0.00    +0.000 A 
ATOM      9  N   UNL     1       8.041   6.365  19.224  0.00  0.00    +0.000 NA
ATOM     10  C   UNL     1       8.004   5.065  18.869  0.00  0.00    +0.000 A 
ATOM     11  C   UNL     1       7.695   4.630  17.591  0.00  0.00    +0.000 A 
ENDBRANCH   5   6
BRANCH   1  13
ATOM     12  C   UNL     1       4.491   4.314  16.400  0.00  0.00    +0.000 C 
ATOM     13  N   UNL     1       5.236   3.516  15.704  0.00  0.00    +0.000 NA
BRANCH  12  15
ATOM     14  C   UNL     1       2.327   3.106  17.071  0.00  0.00    +0.000 C 
ATOM     15  C   UNL     1       3.575   3.836  17.477  0.00  0.00    +0.000 C 
ATOM     16  C   UNL     1       3.965   4.098  18.738  0.00  0.00    +0.000 C 
BRANCH  16  17
ATOM     17  C   UNL     1       3.236   3.668  19.886  0.00  0.00    +0.000 A 
ATOM     18  C   UNL     1       2.188   4.308  20.541  0.00  0.00    +0.000 A 
ATOM     19  C   UNL     1       1.787   3.497  21.629  0.00  0.00    +0.000 A 
ATOM     20  C   UNL     1       2.622   2.410  21.611  0.00  0.00    +0.000 A 
ATOM     21  O   UNL     1       3.494   2.504  20.578  0.00  0.00    +0.000 OA
ENDBRANCH  16  17
ENDBRANCH  12  15
ENDBRANCH   1  13
BRANCH   2  22
ATOM     22  S   UNL     1       5.284   3.138  12.409  0.00  0.00    +0.000 S 
ATOM     23  H   UNL     1       6.080   2.084  12.193  0.00  0.00    +0.000 HD
ENDBRANCH   2  22
TORSDOF 5
ENDMDL
MODEL 7
REMARK VINA RESULT:      -7.0      3.065      7.022
REMARK  Name = 
REMARK  6 active torsions:
REMARK  status: ('A' for Active; 'I' for Inactive)
REMARK    1  A    between atoms: C_1  and  C_2
REMARK    2  A    between atoms: C_2  and  C_3
REMARK    3  A    between atoms: N_4  and  N_5
REMARK    4  A    between atoms: C_6  and  S_7
REMARK    5  A    between atoms: C_10  and  C_11
REMARK    6  A    between atoms: C_17  and  C_18
REMARK                            x       y       z     vdW  Elec       q    Type
REMARK                         _______ _______ _______ _____ _____    ______ ____
ROOT
ATOM      1  N   UNL     1       2.905   4.662  18.975  0.00  0.00    +0.000 N 
ATOM      2  C   UNL     1       3.012   3.539  19.786  0.00  0.00    +0.000 A 
ATOM      3  N   UNL     1       2.563   3.798  20.993  0.00  0.00    +0.000 NA
ATOM      4  N   UNL     1       2.190   5.110  21.021  0.00  0.00    +0.000 NA
ATOM      5  C   UNL     1       2.420   5.652  19.834  0.00  0.00    +0.000 A 
ENDROOT
BRANCH   5   6
ATOM      6  C   UNL     1       2.105   7.051  19.511  0.00  0.00    +0.000 A 
ATOM      7  C   UNL     1       1.512   7.939  20.408  0.00  0.00    +0.000 A 
ATOM      8  C   UNL     1       1.237   9.231  19.983  0.00  0.00    +0.000 A 
ATOM      9  N   UNL     1       1.508   9.694  18.744  0.00  0.00    +0.000 NA
ATOM     10  C   UNL     1       2.068   8.821  17.884  0.00  0.00    +0.000 A 
ATOM     11  C   UNL     1       2.376   7.512  18.216  0.00  0.00    +0.000 A 
ENDBRANCH   5   6
BRANCH   1  13
ATOM     12  C   UNL     1       4.569   4.833  17.444  0.00  0.00    +0.000 C 
ATOM     13  N   UNL     1       3.293   4.845  17.661  0.00  0.00    +0.000 NA
BRANCH  12  15
ATOM     14  C   UNL     1       5.111   6.623  15.685  0.00  0.00    +0.000 C 
ATOM     15  C   UNL     1       5.171   5.189  16.126  0.00  0.00    +0.000 C 
ATOM     16  C   UNL     1       5.732   4.174  15.442  0.00  0.00    +0.000 C 
BRANCH  16  17
ATOM     17  C   UNL     1       6.396   4.346  14.192  0.00  0.00    +0.000 A 
ATOM     18  C   UNL     1       6.193   3.662  12.998  0.00  0.00    +0.000 A 
ATOM     19  C   UNL     1       7.088   4.182  12.033  0.00  0.00    +0.000 A 
ATOM     20  C   UNL     1       7.819   5.141  12.683  0.00  0.00    +0.000 A 
ATOM     21  O   UNL     1       7.418   5.245  13.973  0.00  0.00    +0.000 OA
ENDBRANCH  16  17
ENDBRANCH  12  15
ENDBRANCH   1  13
BRANCH   2  22
ATOM     22  S   UNL     1       3.711   2.017  19.343  0.00  0.00    +0.000 S 
ATOM     23  H   UNL     1       4.990   2.258  19.652  0.00  0.00    +0.000 HD
ENDBRANCH   2  22
TORSDOF 5
ENDMDL
MODEL 8
REMARK VINA RESULT:      -6.9      1.146      1.513
REMARK  Name = 
REMARK  6 active torsions:
REMARK  status: ('A' for Active; 'I' for Inactive)
REMARK    1  A    between atoms: C_1  and  C_2
REMARK    2  A    between atoms: C_2  and  C_3
REMARK    3  A    between atoms: N_4  and  N_5
REMARK    4  A    between atoms: C_6  and  S_7
REMARK    5  A    between atoms: C_10  and  C_11
REMARK    6  A    between atoms: C_17  and  C_18
REMARK                            x       y       z     vdW  Elec       q    Type
REMARK                         _______ _______ _______ _____ _____    ______ ____
ROOT
ATOM      1  N   UNL     1       3.185   4.346  19.564  0.00  0.00    +0.000 N 
ATOM      2  C   UNL     1       2.987   3.243  20.384  0.00  0.00    +0.000 A 
ATOM      3  N   UNL     1       3.987   2.399  20.272  0.00  0.00    +0.000 NA
ATOM      4  N   UNL     1       4.848   2.903  19.341  0.00  0.00    +0.000 NA
ATOM      5  C   UNL     1       4.367   4.049  18.881  0.00  0.00    +0.000 A 
ENDROOT
BRANCH   5   6
ATOM      6  C   UNL     1       5.063   4.873  17.882  0.00  0.00    +0.000 A 
ATOM      7  C   UNL     1       5.946   5.902  18.207  0.00  0.00    +0.000 A 
ATOM      8  C   UNL     1       6.526   6.632  17.177  0.00  0.00    +0.000 A 
ATOM      9  N   UNL     1       6.290   6.410  15.866  0.00  0.00    +0.000 NA
ATOM     10  C   UNL     1       5.424   5.422  15.569  0.00  0.00    +0.000 A 
ATOM     11  C   UNL     1       4.795   4.643  16.527  0.00  0.00    +0.000 A 
ENDBRANCH   5   6
BRANCH   1  13
ATOM     12  C   UNL     1       2.680   6.513  19.999  0.00  0.00    +0.000 C 
ATOM     13  N   UNL     1       2.372   5.441  19.343  0.00  0.00    +0.000 NA
BRANCH  12  15
ATOM     14  C   UNL     1       1.098   8.066  21.295  0.00  0.00    +0.000 C 
ATOM     15  C   UNL     1       1.815   7.729  20.019  0.00  0.00    +0.000 C 
ATOM     16  C   UNL     1       1.763   8.433  18.873  0.00  0.00    +0.000 C 
BRANCH  16  17
ATOM     17  C   UNL     1       1.028   9.647  18.734  0.00  0.00    +0.000 A 
ATOM     18  C   UNL     1      -0.211   9.849  18.134  0.00  0.00    +0.000 A 
ATOM     19  C   UNL     1      -0.533  11.223  18.239  0.00  0.00    +0.000 A 
ATOM     20  C   UNL     1       0.532  11.808  18.872  0.00  0.00    +0.000 A 
ATOM     21  O   UNL     1       1.471  10.878  19.169  0.00  0.00    +0.000 OA
ENDBRANCH  16  17
ENDBRANCH  12  15
ENDBRANCH   1  13
BRANCH   2  22
ATOM     22  S   UNL     1       1.595   2.933  21.370  0.00  0.00    +0.000 S 
ATOM     23  H   UNL     1       2.028   3.434  22.533  0.00  0.00    +0.000 HD
ENDBRANCH   2  22
TORSDOF 5
ENDMDL
MODEL 9
REMARK VINA RESULT:      -6.9      1.546      2.096
REMARK  Name = 
REMARK  6 active torsions:
REMARK  status: ('A' for Active; 'I' for Inactive)
REMARK    1  A    between atoms: C_1  and  C_2
REMARK    2  A    between atoms: C_2  and  C_3
REMARK    3  A    between atoms: N_4  and  N_5
REMARK    4  A    between atoms: C_6  and  S_7
REMARK    5  A    between atoms: C_10  and  C_11
REMARK    6  A    between atoms: C_17  and  C_18
REMARK                            x       y       z     vdW  Elec       q    Type
REMARK                         _______ _______ _______ _____ _____    ______ ____
ROOT
ATOM      1  N   UNL     1       2.912   4.047  18.057  0.00  0.00    +0.000 N 
ATOM      2  C   UNL     1       2.270   2.901  18.509  0.00  0.00    +0.000 A 
ATOM      3  N   UNL     1       3.009   1.839  18.284  0.00  0.00    +0.000 NA
ATOM      4  N   UNL     1       4.138   2.253  17.638  0.00  0.00    +0.000 NA
ATOM      5  C   UNL     1       4.081   3.565  17.462  0.00  0.00    +0.000 A 
ENDROOT
BRANCH   5   6
ATOM      6  C   UNL     1       5.152   4.340  16.821  0.00  0.00    +0.000 A 
ATOM      7  C   UNL     1       5.383   4.353  15.446  0.00  0.00    +0.000 A 
ATOM      8  C   UNL     1       6.442   5.104  14.955  0.00  0.00    +0.000 A 
ATOM      9  N   UNL     1       7.276   5.832  15.727  0.00  0.00    +0.000 NA
ATOM     10  C   UNL     1       7.049   5.799  17.055  0.00  0.00    +0.000 A 
ATOM     11  C   UNL     1       6.020   5.077  17.637  0.00  0.00    +0.000 A 
ENDBRANCH   5   6
BRANCH   1  13
ATOM     12  C   UNL     1       2.691   6.023  19.147  0.00  0.00    +0.000 C 
ATOM     13  N   UNL     1       2.481   5.360  18.056  0.00  0.00    +0.000 NA
BRANCH  12  15
ATOM     14  C   UNL     1       1.715   7.745  20.782  0.00  0.00    +0.000 C 
ATOM     15  C   UNL     1       2.138   7.388  19.387  0.00  0.00    +0.000 C 
ATOM     16  C   UNL     1       2.077   8.194  18.310  0.00  0.00    +0.000 C 
BRANCH  16  17
ATOM     17  C   UNL     1       1.625   9.545  18.371  0.00  0.00    +0.000 A 
ATOM     18  C   UNL     1       0.329  10.021  18.548  0.00  0.00    +0.000 A 
ATOM     19  C   UNL     1       0.374  11.436  18.539  0.00  0.00    +0.000 A 
ATOM     20  C   UNL     1       1.687  11.765  18.330  0.00  0.00    +0.000 A 
ATOM     21  O   UNL     1       2.442  10.645  18.224  0.00  0.00    +0.000 OA
ENDBRANCH  16  17
ENDBRANCH  12  15
ENDBRANCH   1  13
BRANCH   2  22
ATOM     22  S   UNL     1       0.682   2.818  19.199  0.00  0.00    +0.000 S 
ATOM     23  H   UNL     1       0.995   2.403  20.432  0.00  0.00    +0.000 HD
ENDBRANCH   2  22
TORSDOF 5
ENDMDL
