MODEL 1
REMARK VINA RESULT:      -8.9      0.000      0.000
REMARK  Name = 
REMARK  6 active torsions:
REMARK  status: ('A' for Active; 'I' for Inactive)
REMARK    1  A    between atoms: C_2  and  C_3
REMARK    2  A    between atoms: N_11  and  C_12
REMARK    3  A    between atoms: C_12  and  C_13
REMARK    4  A    between atoms: C_13  and  C_14
REMARK    5  A    between atoms: N_23  and  C_24
REMARK    6  A    between atoms: C_24  and  C_25
REMARK                            x       y       z     vdW  Elec       q    Type
REMARK                         _______ _______ _______ _____ _____    ______ ____
ROOT
ATOM      1  C   UNL     1       6.174   3.941  14.121  0.00  0.00    +0.000 A 
ATOM      2  C   UNL     1       5.381   3.276  15.065  0.00  0.00    +0.000 A 
ATOM      3  C   UNL     1       5.293   3.723  16.391  0.00  0.00    +0.000 A 
ATOM      4  C   UNL     1       6.041   4.858  16.728  0.00  0.00    +0.000 A 
ATOM      5  C   UNL     1       6.828   5.536  15.806  0.00  0.00    +0.000 A 
ATOM      6  C   UNL     1       6.900   5.084  14.481  0.00  0.00    +0.000 A 
ATOM      7  N   UNL     1       7.449   6.609  16.382  0.00  0.00    +0.000 NA
ATOM      8  C   UNL     1       7.042   6.647  17.629  0.00  0.00    +0.000 A 
ATOM      9  N   UNL     1       7.318   7.608  18.540  0.00  0.00    +0.000 N 
ATOM     10  N   UNL     1       6.234   5.557  17.906  0.00  0.00    +0.000 N 
ATOM     11  H   UNL     1       6.927   7.555  19.474  0.00  0.00    +0.000 HD
ENDROOT
BRANCH   1  13
ATOM     12  N   UNL     1       6.309   3.051  11.687  0.00  0.00    +0.000 NA
ATOM     13  C   UNL     1       6.254   3.447  12.776  0.00  0.00    +0.000 C 
ENDBRANCH   1  13
BRANCH   9  14
ATOM     14  C   UNL     1       8.619   8.289  18.502  0.00  0.00    +0.000 C 
BRANCH  14  15
ATOM     15  C   UNL     1       8.567   9.769  18.096  0.00  0.00    +0.000 C 
BRANCH  15  16
ATOM     16  C   UNL     1       9.380  10.633  19.022  0.00  0.00    +0.000 A 
ATOM     17  C   UNL     1       9.393  10.582  20.403  0.00  0.00    +0.000 A 
ATOM     18  N   UNL     1      10.267  11.533  20.863  0.00  0.00    +0.000 N 
ATOM     19  C   UNL     1      10.834  12.210  19.810  0.00  0.00    +0.000 A 
ATOM     20  C   UNL     1      11.773  13.251  19.807  0.00  0.00    +0.000 A 
ATOM     21  C   UNL     1      12.169  13.763  18.567  0.00  0.00    +0.000 A 
ATOM     22  C   UNL     1      11.645  13.250  17.382  0.00  0.00    +0.000 A 
ATOM     23  C   UNL     1      10.711  12.209  17.403  0.00  0.00    +0.000 A 
ATOM     24  C   UNL     1      10.294  11.673  18.641  0.00  0.00    +0.000 A 
ATOM     25  H   UNL     1      10.467  11.716  21.834  0.00  0.00    +0.000 HD
ENDBRANCH  15  16
ENDBRANCH  14  15
ENDBRANCH   9  14
BRANCH  10  26
ATOM     26  C   UNL     1       5.808   5.099  19.225  0.00  0.00    +0.000 C 
BRANCH  26  27
ATOM     27  C   UNL     1       4.315   5.108  19.470  0.00  0.00    +0.000 A 
ATOM     28  C   UNL     1       3.539   6.274  19.362  0.00  0.00    +0.000 A 
ATOM     29  C   UNL     1       2.181   6.269  19.691  0.00  0.00    +0.000 A 
ATOM     30  C   UNL     1       1.566   5.096  20.117  0.00  0.00    +0.000 A 
ATOM     31  C   UNL     1       2.301   3.915  20.178  0.00  0.00    +0.000 A 
ATOM     32  C   UNL     1       3.661   3.919  19.850  0.00  0.00    +0.000 A 
ATOM     33 CL   UNL     1       4.500   2.408  19.935  0.00  0.00    +0.000 Cl
ENDBRANCH  26  27
ENDBRANCH  10  26
TORSDOF 6
ENDMDL
MODEL 2
REMARK VINA RESULT:      -8.6      6.622     10.940
REMARK  Name = 
REMARK  6 active torsions:
REMARK  status: ('A' for Active; 'I' for Inactive)
REMARK    1  A    between atoms: C_2  and  C_3
REMARK    2  A    between atoms: N_11  and  C_12
REMARK    3  A    between atoms: C_12  and  C_13
REMARK    4  A    between atoms: C_13  and  C_14
REMARK    5  A    between atoms: N_23  and  C_24
REMARK    6  A    between atoms: C_24  and  C_25
REMARK                            x       y       z     vdW  Elec       q    Type
REMARK                         _______ _______ _______ _____ _____    ______ ____
ROOT
ATOM      1  C   UNL     1       1.574  15.205  18.528  0.00  0.00    +0.000 A 
ATOM      2  C   UNL     1       0.213  15.297  18.844  0.00  0.00    +0.000 A 
ATOM      3  C   UNL     1      -0.536  14.163  19.193  0.00  0.00    +0.000 A 
ATOM      4  C   UNL     1       0.140  12.936  19.202  0.00  0.00    +0.000 A 
ATOM      5  C   UNL     1       1.491  12.824  18.900  0.00  0.00    +0.000 A 
ATOM      6  C   UNL     1       2.230  13.967  18.562  0.00  0.00    +0.000 A 
ATOM      7  N   UNL     1       1.909  11.525  18.987  0.00  0.00    +0.000 NA
ATOM      8  C   UNL     1       0.869  10.826  19.374  0.00  0.00    +0.000 A 
ATOM      9  N   UNL     1       0.853   9.512  19.694  0.00  0.00    +0.000 N 
ATOM     10  N   UNL     1      -0.253  11.634  19.452  0.00  0.00    +0.000 N 
ATOM     11  H   UNL     1      -0.005   9.074  20.011  0.00  0.00    +0.000 HD
ENDROOT
BRANCH   1  13
ATOM     12  N   UNL     1       2.907  17.330  17.866  0.00  0.00    +0.000 NA
ATOM     13  C   UNL     1       2.307  16.383  18.160  0.00  0.00    +0.000 C 
ENDBRANCH   1  13
BRANCH   9  14
ATOM     14  C   UNL     1       1.742   8.583  18.984  0.00  0.00    +0.000 C 
BRANCH  14  15
ATOM     15  C   UNL     1       2.235   7.390  19.816  0.00  0.00    +0.000 C 
BRANCH  15  16
ATOM     16  C   UNL     1       2.575   6.206  18.950  0.00  0.00    +0.000 A 
ATOM     17  C   UNL     1       3.432   6.193  17.866  0.00  0.00    +0.000 A 
ATOM     18  N   UNL     1       3.465   4.920  17.357  0.00  0.00    +0.000 N 
ATOM     19  C   UNL     1       2.647   4.091  18.087  0.00  0.00    +0.000 A 
ATOM     20  C   UNL     1       2.376   2.726  17.932  0.00  0.00    +0.000 A 
ATOM     21  C   UNL     1       1.480   2.135  18.830  0.00  0.00    +0.000 A 
ATOM     22  C   UNL     1       0.885   2.887  19.841  0.00  0.00    +0.000 A 
ATOM     23  C   UNL     1       1.168   4.249  19.984  0.00  0.00    +0.000 A 
ATOM     24  C   UNL     1       2.069   4.870  19.091  0.00  0.00    +0.000 A 
ATOM     25  H   UNL     1       4.008   4.628  16.560  0.00  0.00    +0.000 HD
ENDBRANCH  15  16
ENDBRANCH  14  15
ENDBRANCH   9  14
BRANCH  10  26
ATOM     26  C   UNL     1      -1.638  11.193  19.583  0.00  0.00    +0.000 C 
BRANCH  26  27
ATOM     27  C   UNL     1      -2.383  10.980  18.283  0.00  0.00    +0.000 A 
ATOM     28  C   UNL     1      -1.838  10.255  17.210  0.00  0.00    +0.000 A 
ATOM     29  C   UNL     1      -2.509  10.161  15.989  0.00  0.00    +0.000 A 
ATOM     30  C   UNL     1      -3.746  10.772  15.819  0.00  0.00    +0.000 A 
ATOM     31  C   UNL     1      -4.334  11.448  16.885  0.00  0.00    +0.000 A 
ATOM     32  C   UNL     1      -3.662  11.545  18.108  0.00  0.00    +0.000 A 
ATOM     33 CL   UNL     1      -4.465  12.387  19.389  0.00  0.00    +0.000 Cl
ENDBRANCH  26  27
ENDBRANCH  10  26
TORSDOF 6
ENDMDL
MODEL 3
REMARK VINA RESULT:      -8.6      1.098      1.429
REMARK  Name = 
REMARK  6 active torsions:
REMARK  status: ('A' for Active; 'I' for Inactive)
REMARK    1  A    between atoms: C_2  and  C_3
REMARK    2  A    between atoms: N_11  and  C_12
REMARK    3  A    between atoms: C_12  and  C_13
REMARK    4  A    between atoms: C_13  and  C_14
REMARK    5  A    between atoms: N_23  and  C_24
REMARK    6  A    between atoms: C_24  and  C_25
REMARK                            x       y       z     vdW  Elec       q    Type
REMARK                         _______ _______ _______ _____ _____    ______ ____
ROOT
ATOM      1  C   UNL     1       6.308   3.978  14.007  0.00  0.00    +0.000 A 
ATOM      2  C   UNL     1       5.437   3.327  14.890  0.00  0.00    +0.000 A 
ATOM      3  C   UNL     1       5.274   3.765  16.212  0.00  0.00    +0.000 A 
ATOM      4  C   UNL     1       6.028   4.876  16.610  0.00  0.00    +0.000 A 
ATOM      5  C   UNL     1       6.892   5.541  15.748  0.00  0.00    +0.000 A 
ATOM      6  C   UNL     1       7.039   5.099  14.425  0.00  0.00    +0.000 A 
ATOM      7  N   UNL     1       7.501   6.592  16.375  0.00  0.00    +0.000 NA
ATOM      8  C   UNL     1       7.014   6.630  17.592  0.00  0.00    +0.000 A 
ATOM      9  N   UNL     1       7.255   7.575  18.530  0.00  0.00    +0.000 N 
ATOM     10  N   UNL     1       6.162   5.560  17.805  0.00  0.00    +0.000 N 
ATOM     11  H   UNL     1       6.802   7.524  19.435  0.00  0.00    +0.000 HD
ENDROOT
BRANCH   1  13
ATOM     12  N   UNL     1       6.586   3.093  11.584  0.00  0.00    +0.000 NA
ATOM     13  C   UNL     1       6.464   3.494  12.665  0.00  0.00    +0.000 C 
ENDBRANCH   1  13
BRANCH   9  14
ATOM     14  C   UNL     1       8.573   8.221  18.584  0.00  0.00    +0.000 C 
BRANCH  14  15
ATOM     15  C   UNL     1       8.603   9.679  18.104  0.00  0.00    +0.000 C 
BRANCH  15  16
ATOM     16  C   UNL     1       9.362  10.567  19.055  0.00  0.00    +0.000 A 
ATOM     17  C   UNL     1       9.244  10.597  20.431  0.00  0.00    +0.000 A 
ATOM     18  N   UNL     1      10.110  11.541  20.919  0.00  0.00    +0.000 N 
ATOM     19  C   UNL     1      10.801  12.133  19.888  0.00  0.00    +0.000 A 
ATOM     20  C   UNL     1      11.779  13.137  19.917  0.00  0.00    +0.000 A 
ATOM     21  C   UNL     1      12.311  13.560  18.694  0.00  0.00    +0.000 A 
ATOM     22  C   UNL     1      11.878  12.996  17.496  0.00  0.00    +0.000 A 
ATOM     23  C   UNL     1      10.903  11.994  17.484  0.00  0.00    +0.000 A 
ATOM     24  C   UNL     1      10.350  11.547  18.705  0.00  0.00    +0.000 A 
ATOM     25  H   UNL     1      10.227  11.774  21.892  0.00  0.00    +0.000 HD
ENDBRANCH  15  16
ENDBRANCH  14  15
ENDBRANCH   9  14
BRANCH  10  26
ATOM     26  C   UNL     1       5.638   5.102  19.088  0.00  0.00    +0.000 C 
BRANCH  26  27
ATOM     27  C   UNL     1       4.283   4.430  19.040  0.00  0.00    +0.000 A 
ATOM     28  C   UNL     1       4.111   3.058  19.291  0.00  0.00    +0.000 A 
ATOM     29  C   UNL     1       2.862   2.449  19.141  0.00  0.00    +0.000 A 
ATOM     30  C   UNL     1       1.757   3.200  18.756  0.00  0.00    +0.000 A 
ATOM     31  C   UNL     1       1.890   4.571  18.556  0.00  0.00    +0.000 A 
ATOM     32  C   UNL     1       3.140   5.182  18.704  0.00  0.00    +0.000 A 
ATOM     33 CL   UNL     1       3.220   6.892  18.454  0.00  0.00    +0.000 Cl
ENDBRANCH  26  27
ENDBRANCH  10  26
TORSDOF 6
ENDMDL
MODEL 4
REMARK VINA RESULT:      -8.2      5.040      6.778
REMARK  Name = 
REMARK  6 active torsions:
REMARK  status: ('A' for Active; 'I' for Inactive)
REMARK    1  A    between atoms: C_2  and  C_3
REMARK    2  A    between atoms: N_11  and  C_12
REMARK    3  A    between atoms: C_12  and  C_13
REMARK    4  A    between atoms: C_13  and  C_14
REMARK    5  A    between atoms: N_23  and  C_24
REMARK    6  A    between atoms: C_24  and  C_25
REMARK                            x       y       z     vdW  Elec       q    Type
REMARK                         _______ _______ _______ _____ _____    ______ ____
ROOT
ATOM      1  C   UNL     1       6.730   5.103  14.662  0.00  0.00    +0.000 A 
ATOM      2  C   UNL     1       6.211   3.811  14.507  0.00  0.00    +0.000 A 
ATOM      3  C   UNL     1       5.128   3.361  15.276  0.00  0.00    +0.000 A 
ATOM      4  C   UNL     1       4.597   4.260  16.210  0.00  0.00    +0.000 A 
ATOM      5  C   UNL     1       5.093   5.547  16.375  0.00  0.00    +0.000 A 
ATOM      6  C   UNL     1       6.170   5.988  15.593  0.00  0.00    +0.000 A 
ATOM      7  N   UNL     1       4.401   6.222  17.342  0.00  0.00    +0.000 NA
ATOM      8  C   UNL     1       3.460   5.409  17.759  0.00  0.00    +0.000 A 
ATOM      9  N   UNL     1       2.471   5.700  18.636  0.00  0.00    +0.000 N 
ATOM     10  N   UNL     1       3.583   4.174  17.147  0.00  0.00    +0.000 N 
ATOM     11  H   UNL     1       1.774   5.002  18.870  0.00  0.00    +0.000 HD
ENDROOT
BRANCH   1  13
ATOM     12  N   UNL     1       8.747   5.869  13.221  0.00  0.00    +0.000 NA
ATOM     13  C   UNL     1       7.849   5.525  13.870  0.00  0.00    +0.000 C 
ENDBRANCH   1  13
BRANCH   9  14
ATOM     14  C   UNL     1       2.731   6.641  19.733  0.00  0.00    +0.000 C 
BRANCH  14  15
ATOM     15  C   UNL     1       1.498   7.029  20.562  0.00  0.00    +0.000 C 
BRANCH  15  16
ATOM     16  C   UNL     1       1.121   8.473  20.362  0.00  0.00    +0.000 A 
ATOM     17  C   UNL     1       1.394   9.254  19.255  0.00  0.00    +0.000 A 
ATOM     18  N   UNL     1       0.879  10.506  19.471  0.00  0.00    +0.000 N 
ATOM     19  C   UNL     1       0.267  10.566  20.701  0.00  0.00    +0.000 A 
ATOM     20  C   UNL     1      -0.389  11.631  21.332  0.00  0.00    +0.000 A 
ATOM     21  C   UNL     1      -0.916  11.405  22.608  0.00  0.00    +0.000 A 
ATOM     22  C   UNL     1      -0.790  10.160  23.221  0.00  0.00    +0.000 A 
ATOM     23  C   UNL     1      -0.134   9.106  22.577  0.00  0.00    +0.000 A 
ATOM     24  C   UNL     1       0.407   9.307  21.287  0.00  0.00    +0.000 A 
ATOM     25  H   UNL     1       0.939  11.278  18.826  0.00  0.00    +0.000 HD
ENDBRANCH  15  16
ENDBRANCH  14  15
ENDBRANCH   9  14
BRANCH  10  26
ATOM     26  C   UNL     1       2.909   2.937  17.532  0.00  0.00    +0.000 C 
BRANCH  26  27
ATOM     27  C   UNL     1       2.374   2.896  18.946  0.00  0.00    +0.000 A 
ATOM     28  C   UNL     1       1.015   3.090  19.246  0.00  0.00    +0.000 A 
ATOM     29  C   UNL     1       0.569   3.145  20.569  0.00  0.00    +0.000 A 
ATOM     30  C   UNL     1       1.467   2.988  21.619  0.00  0.00    +0.000 A 
ATOM     31  C   UNL     1       2.809   2.738  21.348  0.00  0.00    +0.000 A 
ATOM     32  C   UNL     1       3.257   2.685  20.024  0.00  0.00    +0.000 A 
ATOM     33 CL   UNL     1       4.937   2.354  19.769  0.00  0.00    +0.000 Cl
ENDBRANCH  26  27
ENDBRANCH  10  26
TORSDOF 6
ENDMDL
MODEL 5
REMARK VINA RESULT:      -8.1      6.549     10.931
REMARK  Name = 
REMARK  6 active torsions:
REMARK  status: ('A' for Active; 'I' for Inactive)
REMARK    1  A    between atoms: C_2  and  C_3
REMARK    2  A    between atoms: N_11  and  C_12
REMARK    3  A    between atoms: C_12  and  C_13
REMARK    4  A    between atoms: C_13  and  C_14
REMARK    5  A    between atoms: N_23  and  C_24
REMARK    6  A    between atoms: C_24  and  C_25
REMARK                            x       y       z     vdW  Elec       q    Type
REMARK                         _______ _______ _______ _____ _____    ______ ____
ROOT
ATOM      1  C   UNL     1      -3.823  11.311  18.433  0.00  0.00    +0.000 A 
ATOM      2  C   UNL     1      -3.332  12.259  19.341  0.00  0.00    +0.000 A 
ATOM      3  C   UNL     1      -1.970  12.315  19.675  0.00  0.00    +0.000 A 
ATOM      4  C   UNL     1      -1.129  11.375  19.065  0.00  0.00    +0.000 A 
ATOM      5  C   UNL     1      -1.594  10.433  18.157  0.00  0.00    +0.000 A 
ATOM      6  C   UNL     1      -2.956  10.393  17.825  0.00  0.00    +0.000 A 
ATOM      7  N   UNL     1      -0.577   9.640  17.704  0.00  0.00    +0.000 NA
ATOM      8  C   UNL     1       0.519  10.086  18.271  0.00  0.00    +0.000 A 
ATOM      9  N   UNL     1       1.783   9.667  18.026  0.00  0.00    +0.000 N 
ATOM     10  N   UNL     1       0.223  11.100  19.164  0.00  0.00    +0.000 N 
ATOM     11  H   UNL     1       2.566  10.101  18.501  0.00  0.00    +0.000 HD
ENDROOT
BRANCH   1  13
ATOM     12  N   UNL     1      -6.355  11.230  17.874  0.00  0.00    +0.000 NA
ATOM     13  C   UNL     1      -5.224  11.271  18.127  0.00  0.00    +0.000 C 
ENDBRANCH   1  13
BRANCH   9  14
ATOM     14  C   UNL     1       2.026   8.258  17.689  0.00  0.00    +0.000 C 
BRANCH  14  15
ATOM     15  C   UNL     1       2.499   7.382  18.858  0.00  0.00    +0.000 C 
BRANCH  15  16
ATOM     16  C   UNL     1       2.867   5.994  18.404  0.00  0.00    +0.000 A 
ATOM     17  C   UNL     1       3.820   5.658  17.461  0.00  0.00    +0.000 A 
ATOM     18  N   UNL     1       3.846   4.292  17.341  0.00  0.00    +0.000 N 
ATOM     19  C   UNL     1       2.929   3.720  18.191  0.00  0.00    +0.000 A 
ATOM     20  C   UNL     1       2.616   2.371  18.404  0.00  0.00    +0.000 A 
ATOM     21  C   UNL     1       1.615   2.077  19.337  0.00  0.00    +0.000 A 
ATOM     22  C   UNL     1       0.961   3.096  20.026  0.00  0.00    +0.000 A 
ATOM     23  C   UNL     1       1.288   4.437  19.803  0.00  0.00    +0.000 A 
ATOM     24  C   UNL     1       2.294   4.762  18.867  0.00  0.00    +0.000 A 
ATOM     25  H   UNL     1       4.448   3.775  16.719  0.00  0.00    +0.000 HD
ENDBRANCH  15  16
ENDBRANCH  14  15
ENDBRANCH   9  14
BRANCH  10  26
ATOM     26  C   UNL     1       1.114  11.663  20.174  0.00  0.00    +0.000 C 
BRANCH  26  27
ATOM     27  C   UNL     1       1.738  12.997  19.825  0.00  0.00    +0.000 A 
ATOM     28  C   UNL     1       2.590  13.168  18.721  0.00  0.00    +0.000 A 
ATOM     29  C   UNL     1       3.228  14.388  18.484  0.00  0.00    +0.000 A 
ATOM     30  C   UNL     1       3.014  15.468  19.333  0.00  0.00    +0.000 A 
ATOM     31  C   UNL     1       2.131  15.342  20.401  0.00  0.00    +0.000 A 
ATOM     32  C   UNL     1       1.492  14.120  20.641  0.00  0.00    +0.000 A 
ATOM     33 CL   UNL     1       0.396  14.047  21.978  0.00  0.00    +0.000 Cl
ENDBRANCH  26  27
ENDBRANCH  10  26
TORSDOF 6
ENDMDL
MODEL 6
REMARK VINA RESULT:      -8.0      6.185     10.465
REMARK  Name = 
REMARK  6 active torsions:
REMARK  status: ('A' for Active; 'I' for Inactive)
REMARK    1  A    between atoms: C_2  and  C_3
REMARK    2  A    between atoms: N_11  and  C_12
REMARK    3  A    between atoms: C_12  and  C_13
REMARK    4  A    between atoms: C_13  and  C_14
REMARK    5  A    between atoms: N_23  and  C_24
REMARK    6  A    between atoms: C_24  and  C_25
REMARK                            x       y       z     vdW  Elec       q    Type
REMARK                         _______ _______ _______ _____ _____    ______ ____
ROOT
ATOM      1  C   UNL     1       2.398  15.076  18.457  0.00  0.00    +0.000 A 
ATOM      2  C   UNL     1       1.120  15.192  19.019  0.00  0.00    +0.000 A 
ATOM      3  C   UNL     1       0.329  14.063  19.277  0.00  0.00    +0.000 A 
ATOM      4  C   UNL     1       0.873  12.817  18.938  0.00  0.00    +0.000 A 
ATOM      5  C   UNL     1       2.141  12.680  18.387  0.00  0.00    +0.000 A 
ATOM      6  C   UNL     1       2.925  13.816  18.143  0.00  0.00    +0.000 A 
ATOM      7  N   UNL     1       2.437  11.366  18.155  0.00  0.00    +0.000 NA
ATOM      8  C   UNL     1       1.409  10.673  18.583  0.00  0.00    +0.000 A 
ATOM      9  N   UNL     1       1.314   9.324  18.649  0.00  0.00    +0.000 N 
ATOM     10  N   UNL     1       0.399  11.520  19.006  0.00  0.00    +0.000 N 
ATOM     11  H   UNL     1       0.480   8.889  19.025  0.00  0.00    +0.000 HD
ENDROOT
BRANCH   1  13
ATOM     12  N   UNL     1       3.795  17.208  17.970  0.00  0.00    +0.000 NA
ATOM     13  C   UNL     1       3.174  16.253  18.192  0.00  0.00    +0.000 C 
ENDBRANCH   1  13
BRANCH   9  14
ATOM     14  C   UNL     1       1.982   8.501  17.633  0.00  0.00    +0.000 C 
BRANCH  14  15
ATOM     15  C   UNL     1       3.058   7.548  18.173  0.00  0.00    +0.000 C 
BRANCH  15  16
ATOM     16  C   UNL     1       2.466   6.470  19.043  0.00  0.00    +0.000 A 
ATOM     17  C   UNL     1       1.994   6.614  20.333  0.00  0.00    +0.000 A 
ATOM     18  N   UNL     1       1.538   5.396  20.766  0.00  0.00    +0.000 N 
ATOM     19  C   UNL     1       1.700   4.449  19.782  0.00  0.00    +0.000 A 
ATOM     20  C   UNL     1       1.377   3.085  19.781  0.00  0.00    +0.000 A 
ATOM     21  C   UNL     1       1.668   2.350  18.626  0.00  0.00    +0.000 A 
ATOM     22  C   UNL     1       2.255   2.962  17.521  0.00  0.00    +0.000 A 
ATOM     23  C   UNL     1       2.568   4.325  17.537  0.00  0.00    +0.000 A 
ATOM     24  C   UNL     1       2.285   5.090  18.690  0.00  0.00    +0.000 A 
ATOM     25  H   UNL     1       1.143   5.213  21.674  0.00  0.00    +0.000 HD
ENDBRANCH  15  16
ENDBRANCH  14  15
ENDBRANCH   9  14
BRANCH  10  26
ATOM     26  C   UNL     1      -0.984  11.154  19.295  0.00  0.00    +0.000 C 
BRANCH  26  27
ATOM     27  C   UNL     1      -1.513  11.604  20.639  0.00  0.00    +0.000 A 
ATOM     28  C   UNL     1      -2.504  12.592  20.769  0.00  0.00    +0.000 A 
ATOM     29  C   UNL     1      -2.899  13.056  22.026  0.00  0.00    +0.000 A 
ATOM     30  C   UNL     1      -2.329  12.529  23.180  0.00  0.00    +0.000 A 
ATOM     31  C   UNL     1      -1.387  11.509  23.080  0.00  0.00    +0.000 A 
ATOM     32  C   UNL     1      -0.989  11.045  21.822  0.00  0.00    +0.000 A 
ATOM     33 CL   UNL     1       0.174   9.764  21.782  0.00  0.00    +0.000 Cl
ENDBRANCH  26  27
ENDBRANCH  10  26
TORSDOF 6
ENDMDL
MODEL 7
REMARK VINA RESULT:      -8.0      5.142      7.252
REMARK  Name = 
REMARK  6 active torsions:
REMARK  status: ('A' for Active; 'I' for Inactive)
REMARK    1  A    between atoms: C_2  and  C_3
REMARK    2  A    between atoms: N_11  and  C_12
REMARK    3  A    between atoms: C_12  and  C_13
REMARK    4  A    between atoms: C_13  and  C_14
REMARK    5  A    between atoms: N_23  and  C_24
REMARK    6  A    between atoms: C_24  and  C_25
REMARK                            x       y       z     vdW  Elec       q    Type
REMARK                         _______ _______ _______ _____ _____    ______ ____
ROOT
ATOM      1  C   UNL     1       6.518   5.099  14.877  0.00  0.00    +0.000 A 
ATOM      2  C   UNL     1       6.690   4.167  15.909  0.00  0.00    +0.000 A 
ATOM      3  C   UNL     1       5.980   4.271  17.114  0.00  0.00    +0.000 A 
ATOM      4  C   UNL     1       5.098   5.353  17.239  0.00  0.00    +0.000 A 
ATOM      5  C   UNL     1       4.907   6.283  16.224  0.00  0.00    +0.000 A 
ATOM      6  C   UNL     1       5.617   6.162  15.021  0.00  0.00    +0.000 A 
ATOM      7  N   UNL     1       3.994   7.232  16.591  0.00  0.00    +0.000 NA
ATOM      8  C   UNL     1       3.577   6.900  17.790  0.00  0.00    +0.000 A 
ATOM      9  N   UNL     1       2.590   7.499  18.496  0.00  0.00    +0.000 N 
ATOM     10  N   UNL     1       4.273   5.798  18.256  0.00  0.00    +0.000 N 
ATOM     11  H   UNL     1       2.326   7.143  19.408  0.00  0.00    +0.000 HD
ENDROOT
BRANCH   1  13
ATOM     12  N   UNL     1       7.891   4.877  12.686  0.00  0.00    +0.000 NA
ATOM     13  C   UNL     1       7.274   4.971  13.664  0.00  0.00    +0.000 C 
ENDBRANCH   1  13
BRANCH   9  14
ATOM     14  C   UNL     1       2.381   8.946  18.363  0.00  0.00    +0.000 C 
BRANCH  14  15
ATOM     15  C   UNL     1       1.070   9.354  17.676  0.00  0.00    +0.000 C 
BRANCH  15  16
ATOM     16  C   UNL     1       0.250  10.279  18.537  0.00  0.00    +0.000 A 
ATOM     17  C   UNL     1       0.677  10.956  19.663  0.00  0.00    +0.000 A 
ATOM     18  N   UNL     1      -0.373  11.691  20.150  0.00  0.00    +0.000 N 
ATOM     19  C   UNL     1      -1.486  11.513  19.363  0.00  0.00    +0.000 A 
ATOM     20  C   UNL     1      -2.770  12.062  19.479  0.00  0.00    +0.000 A 
ATOM     21  C   UNL     1      -3.724  11.690  18.525  0.00  0.00    +0.000 A 
ATOM     22  C   UNL     1      -3.398  10.806  17.498  0.00  0.00    +0.000 A 
ATOM     23  C   UNL     1      -2.111  10.268  17.395  0.00  0.00    +0.000 A 
ATOM     24  C   UNL     1      -1.129  10.628  18.345  0.00  0.00    +0.000 A 
ATOM     25  H   UNL     1      -0.341  12.277  20.969  0.00  0.00    +0.000 HD
ENDBRANCH  15  16
ENDBRANCH  14  15
ENDBRANCH   9  14
BRANCH  10  26
ATOM     26  C   UNL     1       4.295   5.294  19.625  0.00  0.00    +0.000 C 
BRANCH  26  27
ATOM     27  C   UNL     1       3.123   4.422  20.021  0.00  0.00    +0.000 A 
ATOM     28  C   UNL     1       1.827   4.935  20.202  0.00  0.00    +0.000 A 
ATOM     29  C   UNL     1       0.789   4.123  20.663  0.00  0.00    +0.000 A 
ATOM     30  C   UNL     1       1.017   2.778  20.935  0.00  0.00    +0.000 A 
ATOM     31  C   UNL     1       2.278   2.233  20.709  0.00  0.00    +0.000 A 
ATOM     32  C   UNL     1       3.319   3.046  20.249  0.00  0.00    +0.000 A 
ATOM     33 CL   UNL     1       4.852   2.290  19.977  0.00  0.00    +0.000 Cl
ENDBRANCH  26  27
ENDBRANCH  10  26
TORSDOF 6
ENDMDL
MODEL 8
REMARK VINA RESULT:      -7.9      6.727     10.441
REMARK  Name = 
REMARK  6 active torsions:
REMARK  status: ('A' for Active; 'I' for Inactive)
REMARK    1  A    between atoms: C_2  and  C_3
REMARK    2  A    between atoms: N_11  and  C_12
REMARK    3  A    between atoms: C_12  and  C_13
REMARK    4  A    between atoms: C_13  and  C_14
REMARK    5  A    between atoms: N_23  and  C_24
REMARK    6  A    between atoms: C_24  and  C_25
REMARK                            x       y       z     vdW  Elec       q    Type
REMARK                         _______ _______ _______ _____ _____    ______ ____
ROOT
ATOM      1  C   UNL     1      -3.935  11.319  18.501  0.00  0.00    +0.000 A 
ATOM      2  C   UNL     1      -3.457  12.318  19.358  0.00  0.00    +0.000 A 
ATOM      3  C   UNL     1      -2.089  12.450  19.637  0.00  0.00    +0.000 A 
ATOM      4  C   UNL     1      -1.226  11.531  19.025  0.00  0.00    +0.000 A 
ATOM      5  C   UNL     1      -1.679  10.538  18.166  0.00  0.00    +0.000 A 
ATOM      6  C   UNL     1      -3.048  10.423  17.888  0.00  0.00    +0.000 A 
ATOM      7  N   UNL     1      -0.641   9.780  17.699  0.00  0.00    +0.000 NA
ATOM      8  C   UNL     1       0.452  10.295  18.208  0.00  0.00    +0.000 A 
ATOM      9  N   UNL     1       1.725   9.929  17.928  0.00  0.00    +0.000 N 
ATOM     10  N   UNL     1       0.140  11.324  19.080  0.00  0.00    +0.000 N 
ATOM     11  H   UNL     1       2.503  10.415  18.359  0.00  0.00    +0.000 HD
ENDROOT
BRANCH   1  13
ATOM     12  N   UNL     1      -6.483  11.114  18.056  0.00  0.00    +0.000 NA
ATOM     13  C   UNL     1      -5.343  11.202  18.250  0.00  0.00    +0.000 C 
ENDBRANCH   1  13
BRANCH   9  14
ATOM     14  C   UNL     1       2.023   8.523  17.627  0.00  0.00    +0.000 C 
BRANCH  14  15
ATOM     15  C   UNL     1       2.389   7.660  18.843  0.00  0.00    +0.000 C 
BRANCH  15  16
ATOM     16  C   UNL     1       2.770   6.259  18.442  0.00  0.00    +0.000 A 
ATOM     17  C   UNL     1       2.201   5.085  18.896  0.00  0.00    +0.000 A 
ATOM     18  N   UNL     1       2.833   4.033  18.285  0.00  0.00    +0.000 N 
ATOM     19  C   UNL     1       3.809   4.493  17.432  0.00  0.00    +0.000 A 
ATOM     20  C   UNL     1       4.693   3.784  16.608  0.00  0.00    +0.000 A 
ATOM     21  C   UNL     1       5.602   4.524  15.843  0.00  0.00    +0.000 A 
ATOM     22  C   UNL     1       5.618   5.916  15.905  0.00  0.00    +0.000 A 
ATOM     23  C   UNL     1       4.727   6.608  16.731  0.00  0.00    +0.000 A 
ATOM     24  C   UNL     1       3.798   5.886  17.513  0.00  0.00    +0.000 A 
ATOM     25  H   UNL     1       2.619   3.060  18.436  0.00  0.00    +0.000 HD
ENDBRANCH  15  16
ENDBRANCH  14  15
ENDBRANCH   9  14
BRANCH  10  26
ATOM     26  C   UNL     1       1.040  11.962  20.036  0.00  0.00    +0.000 C 
BRANCH  26  27
ATOM     27  C   UNL     1       1.564  13.323  19.633  0.00  0.00    +0.000 A 
ATOM     28  C   UNL     1       2.319  13.528  18.466  0.00  0.00    +0.000 A 
ATOM     29  C   UNL     1       2.872  14.777  18.174  0.00  0.00    +0.000 A 
ATOM     30  C   UNL     1       2.667  15.853  19.031  0.00  0.00    +0.000 A 
ATOM     31  C   UNL     1       1.876  15.690  20.165  0.00  0.00    +0.000 A 
ATOM     32  C   UNL     1       1.323  14.439  20.459  0.00  0.00    +0.000 A 
ATOM     33 CL   UNL     1       0.338  14.322  21.877  0.00  0.00    +0.000 Cl
ENDBRANCH  26  27
ENDBRANCH  10  26
TORSDOF 6
ENDMDL
MODEL 9
REMARK VINA RESULT:      -7.9      4.969      9.151
REMARK  Name = 
REMARK  6 active torsions:
REMARK  status: ('A' for Active; 'I' for Inactive)
REMARK    1  A    between atoms: C_2  and  C_3
REMARK    2  A    between atoms: N_11  and  C_12
REMARK    3  A    between atoms: C_12  and  C_13
REMARK    4  A    between atoms: C_13  and  C_14
REMARK    5  A    between atoms: N_23  and  C_24
REMARK    6  A    between atoms: C_24  and  C_25
REMARK                            x       y       z     vdW  Elec       q    Type
REMARK                         _______ _______ _______ _____ _____    ______ ____
ROOT
ATOM      1  C   UNL     1       2.338   3.992  20.579  0.00  0.00    +0.000 A 
ATOM      2  C   UNL     1       3.198   3.597  19.547  0.00  0.00    +0.000 A 
ATOM      3  C   UNL     1       3.636   4.505  18.572  0.00  0.00    +0.000 A 
ATOM      4  C   UNL     1       3.166   5.821  18.675  0.00  0.00    +0.000 A 
ATOM      5  C   UNL     1       2.319   6.235  19.695  0.00  0.00    +0.000 A 
ATOM      6  C   UNL     1       1.896   5.318  20.669  0.00  0.00    +0.000 A 
ATOM      7  N   UNL     1       2.013   7.561  19.574  0.00  0.00    +0.000 NA
ATOM      8  C   UNL     1       2.676   8.001  18.531  0.00  0.00    +0.000 A 
ATOM      9  N   UNL     1       2.756   9.283  18.106  0.00  0.00    +0.000 N 
ATOM     10  N   UNL     1       3.341   6.959  17.908  0.00  0.00    +0.000 N 
ATOM     11  H   UNL     1       3.324   9.519  17.300  0.00  0.00    +0.000 HD
ENDROOT
BRANCH   1  13
ATOM     12  N   UNL     1       1.530   2.259  22.334  0.00  0.00    +0.000 NA
ATOM     13  C   UNL     1       1.897   3.032  21.551  0.00  0.00    +0.000 C 
ENDBRANCH   1  13
BRANCH   9  14
ATOM     14  C   UNL     1       1.602  10.175  18.276  0.00  0.00    +0.000 C 
BRANCH  14  15
ATOM     15  C   UNL     1       0.273   9.631  17.731  0.00  0.00    +0.000 C 
BRANCH  15  16
ATOM     16  C   UNL     1      -0.904  10.426  18.231  0.00  0.00    +0.000 A 
ATOM     17  C   UNL     1      -1.004  11.083  19.442  0.00  0.00    +0.000 A 
ATOM     18  N   UNL     1      -2.235  11.685  19.507  0.00  0.00    +0.000 N 
ATOM     19  C   UNL     1      -2.948  11.440  18.358  0.00  0.00    +0.000 A 
ATOM     20  C   UNL     1      -4.235  11.853  17.989  0.00  0.00    +0.000 A 
ATOM     21  C   UNL     1      -4.718  11.439  16.743  0.00  0.00    +0.000 A 
ATOM     22  C   UNL     1      -3.938  10.645  15.904  0.00  0.00    +0.000 A 
ATOM     23  C   UNL     1      -2.655  10.242  16.286  0.00  0.00    +0.000 A 
ATOM     24  C   UNL     1      -2.142  10.647  17.539  0.00  0.00    +0.000 A 
ATOM     25  H   UNL     1      -2.574  12.229  20.284  0.00  0.00    +0.000 HD
ENDBRANCH  15  16
ENDBRANCH  14  15
ENDBRANCH   9  14
BRANCH  10  26
ATOM     26  C   UNL     1       3.959   6.984  16.586  0.00  0.00    +0.000 C 
BRANCH  26  27
ATOM     27  C   UNL     1       5.106   6.018  16.381  0.00  0.00    +0.000 A 
ATOM     28  C   UNL     1       4.955   4.798  15.701  0.00  0.00    +0.000 A 
ATOM     29  C   UNL     1       6.009   3.885  15.616  0.00  0.00    +0.000 A 
ATOM     30  C   UNL     1       7.241   4.178  16.191  0.00  0.00    +0.000 A 
ATOM     31  C   UNL     1       7.433   5.405  16.821  0.00  0.00    +0.000 A 
ATOM     32  C   UNL     1       6.378   6.320  16.909  0.00  0.00    +0.000 A 
ATOM     33 CL   UNL     1       6.701   7.828  17.692  0.00  0.00    +0.000 Cl
ENDBRANCH  26  27
ENDBRANCH  10  26
TORSDOF 6
ENDMDL
