MODEL 1
REMARK VINA RESULT:      -7.1      0.000      0.000
REMARK  Name = 
REMARK  3 active torsions:
REMARK  status: ('A' for Active; 'I' for Inactive)
REMARK    1  A    between atoms: C_2  and  C_3
REMARK    2  A    between atoms: N_12  and  C_13
REMARK    3  A    between atoms: C_13  and  C_14
REMARK                            x       y       z     vdW  Elec       q    Type
REMARK                         _______ _______ _______ _____ _____    ______ ____
ROOT
ATOM      1  O   UNL     1       3.558   5.904  19.328  0.00  0.00    +0.000 OA
ATOM      2  C   UNL     1       3.643   4.922  18.594  0.00  0.00    +0.000 C 
ATOM      3  N   UNL     1       4.704   4.728  17.670  0.00  0.00    +0.000 N 
ATOM      4  C   UNL     1       4.630   3.592  16.729  0.00  0.00    +0.000 C 
ATOM      5  C   UNL     1       5.926   3.233  16.007  0.00  0.00    +0.000 C 
ATOM      6  N   UNL     1       6.610   4.386  15.399  0.00  0.00    +0.000 NA
ATOM      7  C   UNL     1       6.789   5.443  16.432  0.00  0.00    +0.000 C 
ATOM      8  C   UNL     1       7.788   5.028  17.527  0.00  0.00    +0.000 C 
ATOM      9  S   UNL     1       7.600   6.253  18.799  0.00  0.00    +0.000 S 
ATOM     10  O   UNL     1       8.598   7.282  18.588  0.00  0.00    +0.000 OA
ATOM     11  O   UNL     1       7.450   5.580  20.071  0.00  0.00    +0.000 OA
ATOM     12  C   UNL     1       6.028   6.881  18.263  0.00  0.00    +0.000 C 
ATOM     13  C   UNL     1       5.500   5.893  17.209  0.00  0.00    +0.000 C 
ENDROOT
BRANCH   2  14
ATOM     14  C   UNL     1       2.576   3.869  18.721  0.00  0.00    +0.000 A 
ATOM     15  C   UNL     1       1.356   4.037  18.085  0.00  0.00    +0.000 A 
ATOM     16  C   UNL     1       0.340   3.128  18.379  0.00  0.00    +0.000 A 
ATOM     17  C   UNL     1       0.578   2.099  19.282  0.00  0.00    +0.000 A 
ATOM     18  C   UNL     1       1.843   1.974  19.825  0.00  0.00    +0.000 A 
ATOM     19  N   UNL     1       2.851   2.816  19.540  0.00  0.00    +0.000 NA
ENDBRANCH   2  14
BRANCH   6  20
ATOM     20  C   UNL     1       5.869   4.912  14.227  0.00  0.00    +0.000 C 
BRANCH  20  21
ATOM     21  C   UNL     1       5.767   3.959  13.049  0.00  0.00    +0.000 A 
ATOM     22  C   UNL     1       4.523   3.610  12.505  0.00  0.00    +0.000 A 
ATOM     23  C   UNL     1       4.433   2.691  11.454  0.00  0.00    +0.000 A 
ATOM     24  C   UNL     1       5.587   2.109  10.934  0.00  0.00    +0.000 A 
ATOM     25  C   UNL     1       6.823   2.462  11.458  0.00  0.00    +0.000 A 
ATOM     26  F   UNL     1       7.937   1.911  10.954  0.00  0.00    +0.000 F 
ATOM     27  C   UNL     1       6.922   3.375  12.501  0.00  0.00    +0.000 A 
ENDBRANCH  20  21
ENDBRANCH   6  20
TORSDOF 3
ENDMDL
MODEL 2
REMARK VINA RESULT:      -6.9      0.930      1.310
REMARK  Name = 
REMARK  3 active torsions:
REMARK  status: ('A' for Active; 'I' for Inactive)
REMARK    1  A    between atoms: C_2  and  C_3
REMARK    2  A    between atoms: N_12  and  C_13
REMARK    3  A    between atoms: C_13  and  C_14
REMARK                            x       y       z     vdW  Elec       q    Type
REMARK                         _______ _______ _______ _____ _____    ______ ____
ROOT
ATOM      1  O   UNL     1       3.569   5.931  19.334  0.00  0.00    +0.000 OA
ATOM      2  C   UNL     1       3.650   4.943  18.609  0.00  0.00    +0.000 C 
ATOM      3  N   UNL     1       4.710   4.739  17.685  0.00  0.00    +0.000 N 
ATOM      4  C   UNL     1       4.633   3.595  16.754  0.00  0.00    +0.000 C 
ATOM      5  C   UNL     1       5.928   3.228  16.033  0.00  0.00    +0.000 C 
ATOM      6  N   UNL     1       6.612   4.374  15.413  0.00  0.00    +0.000 NA
ATOM      7  C   UNL     1       6.794   5.441  16.436  0.00  0.00    +0.000 C 
ATOM      8  C   UNL     1       7.794   5.034  17.534  0.00  0.00    +0.000 C 
ATOM      9  S   UNL     1       7.610   6.271  18.795  0.00  0.00    +0.000 S 
ATOM     10  O   UNL     1       8.609   7.296  18.573  0.00  0.00    +0.000 OA
ATOM     11  O   UNL     1       7.462   5.609  20.073  0.00  0.00    +0.000 OA
ATOM     12  C   UNL     1       6.038   6.895  18.257  0.00  0.00    +0.000 C 
ATOM     13  C   UNL     1       5.507   5.898  17.212  0.00  0.00    +0.000 C 
ENDROOT
BRANCH   2  14
ATOM     14  C   UNL     1       2.583   3.892  18.747  0.00  0.00    +0.000 A 
ATOM     15  C   UNL     1       1.374   4.041  18.086  0.00  0.00    +0.000 A 
ATOM     16  C   UNL     1       0.353   3.139  18.388  0.00  0.00    +0.000 A 
ATOM     17  C   UNL     1       0.577   2.136  19.324  0.00  0.00    +0.000 A 
ATOM     18  C   UNL     1       1.833   2.028  19.892  0.00  0.00    +0.000 A 
ATOM     19  N   UNL     1       2.845   2.863  19.600  0.00  0.00    +0.000 NA
ENDBRANCH   2  14
BRANCH   6  20
ATOM     20  C   UNL     1       5.869   4.891  14.238  0.00  0.00    +0.000 C 
BRANCH  20  21
ATOM     21  C   UNL     1       5.736   3.916  13.081  0.00  0.00    +0.000 A 
ATOM     22  C   UNL     1       6.848   3.218  12.590  0.00  0.00    +0.000 A 
ATOM     23  C   UNL     1       6.728   2.362  11.490  0.00  0.00    +0.000 A 
ATOM     24  C   UNL     1       5.493   2.194  10.866  0.00  0.00    +0.000 A 
ATOM     25  C   UNL     1       4.385   2.871  11.357  0.00  0.00    +0.000 A 
ATOM     26  F   UNL     1       3.193   2.705  10.766  0.00  0.00    +0.000 F 
ATOM     27  C   UNL     1       4.494   3.723  12.450  0.00  0.00    +0.000 A 
ENDBRANCH  20  21
ENDBRANCH   6  20
TORSDOF 3
ENDMDL
MODEL 3
REMARK VINA RESULT:      -6.9      6.837      9.336
REMARK  Name = 
REMARK  3 active torsions:
REMARK  status: ('A' for Active; 'I' for Inactive)
REMARK    1  A    between atoms: C_2  and  C_3
REMARK    2  A    between atoms: N_12  and  C_13
REMARK    3  A    between atoms: C_13  and  C_14
REMARK                            x       y       z     vdW  Elec       q    Type
REMARK                         _______ _______ _______ _____ _____    ______ ____
ROOT
ATOM      1  O   UNL     1       1.719   6.021  20.993  0.00  0.00    +0.000 OA
ATOM      2  C   UNL     1       2.066   6.624  19.980  0.00  0.00    +0.000 C 
ATOM      3  N   UNL     1       1.609   7.929  19.654  0.00  0.00    +0.000 N 
ATOM      4  C   UNL     1       1.967   8.501  18.341  0.00  0.00    +0.000 C 
ATOM      5  C   UNL     1       1.749  10.004  18.181  0.00  0.00    +0.000 C 
ATOM      6  N   UNL     1       0.421  10.465  18.620  0.00  0.00    +0.000 NA
ATOM      7  C   UNL     1       0.175   9.981  20.007  0.00  0.00    +0.000 C 
ATOM      8  C   UNL     1       1.099  10.659  21.035  0.00  0.00    +0.000 C 
ATOM      9  S   UNL     1       0.881   9.720  22.526  0.00  0.00    +0.000 S 
ATOM     10  O   UNL     1      -0.130  10.376  23.332  0.00  0.00    +0.000 OA
ATOM     11  O   UNL     1       2.186   9.387  23.057  0.00  0.00    +0.000 OA
ATOM     12  C   UNL     1       0.154   8.286  21.775  0.00  0.00    +0.000 C 
ATOM     13  C   UNL     1       0.353   8.441  20.257  0.00  0.00    +0.000 C 
ENDROOT
BRANCH   2  14
ATOM     14  C   UNL     1       3.051   5.942  19.071  0.00  0.00    +0.000 A 
ATOM     15  C   UNL     1       2.598   5.183  18.003  0.00  0.00    +0.000 A 
ATOM     16  C   UNL     1       3.536   4.424  17.302  0.00  0.00    +0.000 A 
ATOM     17  C   UNL     1       4.871   4.454  17.687  0.00  0.00    +0.000 A 
ATOM     18  C   UNL     1       5.242   5.284  18.728  0.00  0.00    +0.000 A 
ATOM     19  N   UNL     1       4.367   6.049  19.405  0.00  0.00    +0.000 NA
ENDBRANCH   2  14
BRANCH   6  20
ATOM     20  C   UNL     1      -0.652  10.009  17.704  0.00  0.00    +0.000 C 
BRANCH  20  21
ATOM     21  C   UNL     1      -2.037  10.548  18.016  0.00  0.00    +0.000 A 
ATOM     22  C   UNL     1      -3.177  10.023  17.392  0.00  0.00    +0.000 A 
ATOM     23  C   UNL     1      -4.444  10.560  17.645  0.00  0.00    +0.000 A 
ATOM     24  C   UNL     1      -4.587  11.630  18.526  0.00  0.00    +0.000 A 
ATOM     25  C   UNL     1      -3.464  12.145  19.158  0.00  0.00    +0.000 A 
ATOM     26  F   UNL     1      -3.597  13.169  20.013  0.00  0.00    +0.000 F 
ATOM     27  C   UNL     1      -2.201  11.617  18.914  0.00  0.00    +0.000 A 
ENDBRANCH  20  21
ENDBRANCH   6  20
TORSDOF 3
ENDMDL
MODEL 4
REMARK VINA RESULT:      -6.6      6.598      9.088
REMARK  Name = 
REMARK  3 active torsions:
REMARK  status: ('A' for Active; 'I' for Inactive)
REMARK    1  A    between atoms: C_2  and  C_3
REMARK    2  A    between atoms: N_12  and  C_13
REMARK    3  A    between atoms: C_13  and  C_14
REMARK                            x       y       z     vdW  Elec       q    Type
REMARK                         _______ _______ _______ _____ _____    ______ ____
ROOT
ATOM      1  O   UNL     1       1.848   5.952  20.986  0.00  0.00    +0.000 OA
ATOM      2  C   UNL     1       2.205   6.550  19.973  0.00  0.00    +0.000 C 
ATOM      3  N   UNL     1       1.745   7.850  19.633  0.00  0.00    +0.000 N 
ATOM      4  C   UNL     1       2.117   8.415  18.320  0.00  0.00    +0.000 C 
ATOM      5  C   UNL     1       1.892   9.915  18.147  0.00  0.00    +0.000 C 
ATOM      6  N   UNL     1       0.557  10.371  18.566  0.00  0.00    +0.000 NA
ATOM      7  C   UNL     1       0.296   9.897  19.953  0.00  0.00    +0.000 C 
ATOM      8  C   UNL     1       1.202  10.587  20.988  0.00  0.00    +0.000 C 
ATOM      9  S   UNL     1       0.971   9.657  22.483  0.00  0.00    +0.000 S 
ATOM     10  O   UNL     1      -0.053  10.312  23.271  0.00  0.00    +0.000 OA
ATOM     11  O   UNL     1       2.271   9.334  23.032  0.00  0.00    +0.000 OA
ATOM     12  C   UNL     1       0.262   8.214  21.732  0.00  0.00    +0.000 C 
ATOM     13  C   UNL     1       0.479   8.359  20.216  0.00  0.00    +0.000 C 
ENDROOT
BRANCH   2  14
ATOM     14  C   UNL     1       3.205   5.866  19.082  0.00  0.00    +0.000 A 
ATOM     15  C   UNL     1       2.776   5.182  17.955  0.00  0.00    +0.000 A 
ATOM     16  C   UNL     1       3.714   4.415  17.265  0.00  0.00    +0.000 A 
ATOM     17  C   UNL     1       5.027   4.363  17.718  0.00  0.00    +0.000 A 
ATOM     18  C   UNL     1       5.379   5.123  18.818  0.00  0.00    +0.000 A 
ATOM     19  N   UNL     1       4.505   5.895  19.487  0.00  0.00    +0.000 NA
ENDBRANCH   2  14
BRANCH   6  20
ATOM     20  C   UNL     1      -0.502   9.903  17.639  0.00  0.00    +0.000 C 
BRANCH  20  21
ATOM     21  C   UNL     1      -1.835  10.620  17.770  0.00  0.00    +0.000 A 
ATOM     22  C   UNL     1      -2.129  11.404  18.895  0.00  0.00    +0.000 A 
ATOM     23  C   UNL     1      -3.379  12.018  19.033  0.00  0.00    +0.000 A 
ATOM     24  C   UNL     1      -4.350  11.855  18.048  0.00  0.00    +0.000 A 
ATOM     25  C   UNL     1      -4.060  11.093  16.925  0.00  0.00    +0.000 A 
ATOM     26  F   UNL     1      -4.989  10.941  15.970  0.00  0.00    +0.000 F 
ATOM     27  C   UNL     1      -2.821  10.480  16.778  0.00  0.00    +0.000 A 
ENDBRANCH  20  21
ENDBRANCH   6  20
TORSDOF 3
ENDMDL
MODEL 5
REMARK VINA RESULT:      -6.5      4.809      7.993
REMARK  Name = 
REMARK  3 active torsions:
REMARK  status: ('A' for Active; 'I' for Inactive)
REMARK    1  A    between atoms: C_2  and  C_3
REMARK    2  A    between atoms: N_12  and  C_13
REMARK    3  A    between atoms: C_13  and  C_14
REMARK                            x       y       z     vdW  Elec       q    Type
REMARK                         _______ _______ _______ _____ _____    ______ ____
ROOT
ATOM      1  O   UNL     1       3.579   2.487  17.106  0.00  0.00    +0.000 OA
ATOM      2  C   UNL     1       4.052   3.616  17.215  0.00  0.00    +0.000 C 
ATOM      3  N   UNL     1       3.555   4.583  18.129  0.00  0.00    +0.000 N 
ATOM      4  C   UNL     1       4.094   5.957  18.073  0.00  0.00    +0.000 C 
ATOM      5  C   UNL     1       3.786   6.849  19.274  0.00  0.00    +0.000 C 
ATOM      6  N   UNL     1       2.369   6.847  19.670  0.00  0.00    +0.000 NA
ATOM      7  C   UNL     1       1.919   5.440  19.856  0.00  0.00    +0.000 C 
ATOM      8  C   UNL     1       2.586   4.767  21.069  0.00  0.00    +0.000 C 
ATOM      9  S   UNL     1       2.182   3.045  20.910  0.00  0.00    +0.000 S 
ATOM     10  O   UNL     1       0.994   2.783  21.697  0.00  0.00    +0.000 OA
ATOM     11  O   UNL     1       3.394   2.270  21.071  0.00  0.00    +0.000 OA
ATOM     12  C   UNL     1       1.721   3.089  19.197  0.00  0.00    +0.000 C 
ATOM     13  C   UNL     1       2.175   4.457  18.658  0.00  0.00    +0.000 C 
ENDROOT
BRANCH   2  14
ATOM     14  C   UNL     1       5.235   3.958  16.352  0.00  0.00    +0.000 A 
ATOM     15  C   UNL     1       6.461   4.238  16.936  0.00  0.00    +0.000 A 
ATOM     16  C   UNL     1       7.476   4.726  16.112  0.00  0.00    +0.000 A 
ATOM     17  C   UNL     1       7.232   4.910  14.756  0.00  0.00    +0.000 A 
ATOM     18  C   UNL     1       5.997   4.549  14.250  0.00  0.00    +0.000 A 
ATOM     19  N   UNL     1       5.008   4.050  15.012  0.00  0.00    +0.000 NA
ENDBRANCH   2  14
BRANCH   6  20
ATOM     20  C   UNL     1       1.517   7.548  18.679  0.00  0.00    +0.000 C 
BRANCH  20  21
ATOM     21  C   UNL     1       1.411   9.051  18.869  0.00  0.00    +0.000 A 
ATOM     22  C   UNL     1       2.004   9.940  17.961  0.00  0.00    +0.000 A 
ATOM     23  C   UNL     1       1.948  11.322  18.171  0.00  0.00    +0.000 A 
ATOM     24  C   UNL     1       1.297  11.833  19.293  0.00  0.00    +0.000 A 
ATOM     25  C   UNL     1       0.695  10.958  20.187  0.00  0.00    +0.000 A 
ATOM     26  F   UNL     1       0.061  11.446  21.263  0.00  0.00    +0.000 F 
ATOM     27  C   UNL     1       0.745   9.584  19.987  0.00  0.00    +0.000 A 
ENDBRANCH  20  21
ENDBRANCH   6  20
TORSDOF 3
ENDMDL
MODEL 6
REMARK VINA RESULT:      -6.5      4.485      7.767
REMARK  Name = 
REMARK  3 active torsions:
REMARK  status: ('A' for Active; 'I' for Inactive)
REMARK    1  A    between atoms: C_2  and  C_3
REMARK    2  A    between atoms: N_12  and  C_13
REMARK    3  A    between atoms: C_13  and  C_14
REMARK                            x       y       z     vdW  Elec       q    Type
REMARK                         _______ _______ _______ _____ _____    ______ ____
ROOT
ATOM      1  O   UNL     1       3.578   2.383  17.389  0.00  0.00    +0.000 OA
ATOM      2  C   UNL     1       4.026   3.524  17.468  0.00  0.00    +0.000 C 
ATOM      3  N   UNL     1       3.529   4.495  18.378  0.00  0.00    +0.000 N 
ATOM      4  C   UNL     1       4.034   5.880  18.285  0.00  0.00    +0.000 C 
ATOM      5  C   UNL     1       3.734   6.785  19.478  0.00  0.00    +0.000 C 
ATOM      6  N   UNL     1       2.327   6.757  19.910  0.00  0.00    +0.000 NA
ATOM      7  C   UNL     1       1.916   5.343  20.130  0.00  0.00    +0.000 C 
ATOM      8  C   UNL     1       2.628   4.707  21.338  0.00  0.00    +0.000 C 
ATOM      9  S   UNL     1       2.262   2.974  21.217  0.00  0.00    +0.000 S 
ATOM     10  O   UNL     1       1.099   2.698  22.038  0.00  0.00    +0.000 OA
ATOM     11  O   UNL     1       3.495   2.230  21.361  0.00  0.00    +0.000 OA
ATOM     12  C   UNL     1       1.758   2.977  19.516  0.00  0.00    +0.000 C 
ATOM     13  C   UNL     1       2.165   4.345  18.942  0.00  0.00    +0.000 C 
ENDROOT
BRANCH   2  14
ATOM     14  C   UNL     1       5.180   3.878  16.570  0.00  0.00    +0.000 A 
ATOM     15  C   UNL     1       6.424   4.153  17.116  0.00  0.00    +0.000 A 
ATOM     16  C   UNL     1       7.410   4.652  16.265  0.00  0.00    +0.000 A 
ATOM     17  C   UNL     1       7.121   4.853  14.920  0.00  0.00    +0.000 A 
ATOM     18  C   UNL     1       5.870   4.497  14.451  0.00  0.00    +0.000 A 
ATOM     19  N   UNL     1       4.908   3.986  15.240  0.00  0.00    +0.000 NA
ENDBRANCH   2  14
BRANCH   6  20
ATOM     20  C   UNL     1       1.435   7.420  18.928  0.00  0.00    +0.000 C 
BRANCH  20  21
ATOM     21  C   UNL     1       1.333   8.929  19.068  0.00  0.00    +0.000 A 
ATOM     22  C   UNL     1       0.502   9.513  20.034  0.00  0.00    +0.000 A 
ATOM     23  C   UNL     1       0.372  10.903  20.122  0.00  0.00    +0.000 A 
ATOM     24  C   UNL     1       1.072  11.728  19.243  0.00  0.00    +0.000 A 
ATOM     25  C   UNL     1       1.909  11.156  18.294  0.00  0.00    +0.000 A 
ATOM     26  F   UNL     1       2.591  11.946  17.453  0.00  0.00    +0.000 F 
ATOM     27  C   UNL     1       2.045   9.776  18.200  0.00  0.00    +0.000 A 
ENDBRANCH  20  21
ENDBRANCH   6  20
TORSDOF 3
ENDMDL
MODEL 7
REMARK VINA RESULT:      -6.4     10.986     14.142
REMARK  Name = 
REMARK  3 active torsions:
REMARK  status: ('A' for Active; 'I' for Inactive)
REMARK    1  A    between atoms: C_2  and  C_3
REMARK    2  A    between atoms: N_12  and  C_13
REMARK    3  A    between atoms: C_13  and  C_14
REMARK                            x       y       z     vdW  Elec       q    Type
REMARK                         _______ _______ _______ _____ _____    ______ ____
ROOT
ATOM      1  O   UNL     1       1.902  12.683  20.073  0.00  0.00    +0.000 OA
ATOM      2  C   UNL     1       1.363  13.420  20.896  0.00  0.00    +0.000 C 
ATOM      3  N   UNL     1       0.195  13.058  21.618  0.00  0.00    +0.000 N 
ATOM      4  C   UNL     1      -0.459  14.074  22.468  0.00  0.00    +0.000 C 
ATOM      5  C   UNL     1      -1.486  13.551  23.469  0.00  0.00    +0.000 C 
ATOM      6  N   UNL     1      -2.474  12.629  22.884  0.00  0.00    +0.000 NA
ATOM      7  C   UNL     1      -1.754  11.543  22.163  0.00  0.00    +0.000 C 
ATOM      8  C   UNL     1      -0.985  10.614  23.120  0.00  0.00    +0.000 C 
ATOM      9  S   UNL     1       0.045   9.628  22.063  0.00  0.00    +0.000 S 
ATOM     10  O   UNL     1      -0.652   8.390  21.777  0.00  0.00    +0.000 OA
ATOM     11  O   UNL     1       1.395   9.644  22.586  0.00  0.00    +0.000 OA
ATOM     12  C   UNL     1      -0.055  10.670  20.630  0.00  0.00    +0.000 C 
ATOM     13  C   UNL     1      -0.693  11.991  21.095  0.00  0.00    +0.000 C 
ENDROOT
BRANCH   2  14
ATOM     14  C   UNL     1       2.008  14.752  21.159  0.00  0.00    +0.000 A 
ATOM     15  C   UNL     1       1.862  15.786  20.248  0.00  0.00    +0.000 A 
ATOM     16  C   UNL     1       2.624  16.938  20.444  0.00  0.00    +0.000 A 
ATOM     17  C   UNL     1       3.490  17.012  21.529  0.00  0.00    +0.000 A 
ATOM     18  C   UNL     1       3.530  15.956  22.419  0.00  0.00    +0.000 A 
ATOM     19  N   UNL     1       2.786  14.845  22.274  0.00  0.00    +0.000 NA
ENDBRANCH   2  14
BRANCH   6  20
ATOM     20  C   UNL     1      -3.416  13.330  21.979  0.00  0.00    +0.000 C 
BRANCH  20  21
ATOM     21  C   UNL     1      -4.878  12.960  22.160  0.00  0.00    +0.000 A 
ATOM     22  C   UNL     1      -5.622  12.408  21.108  0.00  0.00    +0.000 A 
ATOM     23  C   UNL     1      -6.982  12.119  21.266  0.00  0.00    +0.000 A 
ATOM     24  C   UNL     1      -7.615  12.379  22.480  0.00  0.00    +0.000 A 
ATOM     25  C   UNL     1      -6.880  12.911  23.530  0.00  0.00    +0.000 A 
ATOM     26  F   UNL     1      -7.484  13.154  24.703  0.00  0.00    +0.000 F 
ATOM     27  C   UNL     1      -5.529  13.200  23.383  0.00  0.00    +0.000 A 
ENDBRANCH  20  21
ENDBRANCH   6  20
TORSDOF 3
ENDMDL
MODEL 8
REMARK VINA RESULT:      -6.3     10.811     14.025
REMARK  Name = 
REMARK  3 active torsions:
REMARK  status: ('A' for Active; 'I' for Inactive)
REMARK    1  A    between atoms: C_2  and  C_3
REMARK    2  A    between atoms: N_12  and  C_13
REMARK    3  A    between atoms: C_13  and  C_14
REMARK                            x       y       z     vdW  Elec       q    Type
REMARK                         _______ _______ _______ _____ _____    ______ ____
ROOT
ATOM      1  O   UNL     1       1.916  12.756  20.109  0.00  0.00    +0.000 OA
ATOM      2  C   UNL     1       1.365  13.463  20.950  0.00  0.00    +0.000 C 
ATOM      3  N   UNL     1       0.205  13.062  21.666  0.00  0.00    +0.000 N 
ATOM      4  C   UNL     1      -0.465  14.045  22.541  0.00  0.00    +0.000 C 
ATOM      5  C   UNL     1      -1.481  13.480  23.531  0.00  0.00    +0.000 C 
ATOM      6  N   UNL     1      -2.453  12.554  22.926  0.00  0.00    +0.000 NA
ATOM      7  C   UNL     1      -1.715  11.499  22.177  0.00  0.00    +0.000 C 
ATOM      8  C   UNL     1      -0.926  10.562  23.111  0.00  0.00    +0.000 C 
ATOM      9  S   UNL     1       0.119   9.620  22.028  0.00  0.00    +0.000 S 
ATOM     10  O   UNL     1      -0.555   8.377  21.713  0.00  0.00    +0.000 OA
ATOM     11  O   UNL     1       1.469   9.649  22.549  0.00  0.00    +0.000 OA
ATOM     12  C   UNL     1      -0.003  10.695  20.621  0.00  0.00    +0.000 C 
ATOM     13  C   UNL     1      -0.665  11.992  21.118  0.00  0.00    +0.000 C 
ENDROOT
BRANCH   2  14
ATOM     14  C   UNL     1       1.986  14.800  21.245  0.00  0.00    +0.000 A 
ATOM     15  C   UNL     1       1.749  15.875  20.403  0.00  0.00    +0.000 A 
ATOM     16  C   UNL     1       2.488  17.040  20.613  0.00  0.00    +0.000 A 
ATOM     17  C   UNL     1       3.421  17.085  21.642  0.00  0.00    +0.000 A 
ATOM     18  C   UNL     1       3.551  15.985  22.469  0.00  0.00    +0.000 A 
ATOM     19  N   UNL     1       2.832  14.860  22.310  0.00  0.00    +0.000 NA
ENDBRANCH   2  14
BRANCH   6  20
ATOM     20  C   UNL     1      -3.410  13.259  22.040  0.00  0.00    +0.000 C 
BRANCH  20  21
ATOM     21  C   UNL     1      -4.875  12.958  22.305  0.00  0.00    +0.000 A 
ATOM     22  C   UNL     1      -5.414  13.060  23.595  0.00  0.00    +0.000 A 
ATOM     23  C   UNL     1      -6.751  12.730  23.841  0.00  0.00    +0.000 A 
ATOM     24  C   UNL     1      -7.566  12.293  22.799  0.00  0.00    +0.000 A 
ATOM     25  C   UNL     1      -7.043  12.205  21.517  0.00  0.00    +0.000 A 
ATOM     26  F   UNL     1      -7.826  11.793  20.509  0.00  0.00    +0.000 F 
ATOM     27  C   UNL     1      -5.716  12.531  21.262  0.00  0.00    +0.000 A 
ENDBRANCH  20  21
ENDBRANCH   6  20
TORSDOF 3
ENDMDL
MODEL 9
REMARK VINA RESULT:      -6.3     10.446     13.711
REMARK  Name = 
REMARK  3 active torsions:
REMARK  status: ('A' for Active; 'I' for Inactive)
REMARK    1  A    between atoms: C_2  and  C_3
REMARK    2  A    between atoms: N_12  and  C_13
REMARK    3  A    between atoms: C_13  and  C_14
REMARK                            x       y       z     vdW  Elec       q    Type
REMARK                         _______ _______ _______ _____ _____    ______ ____
ROOT
ATOM      1  O   UNL     1       1.637  11.830  19.204  0.00  0.00    +0.000 OA
ATOM      2  C   UNL     1       1.321  12.765  19.936  0.00  0.00    +0.000 C 
ATOM      3  N   UNL     1       0.300  12.675  20.920  0.00  0.00    +0.000 N 
ATOM      4  C   UNL     1      -0.104  13.899  21.640  0.00  0.00    +0.000 C 
ATOM      5  C   UNL     1      -0.942  13.691  22.899  0.00  0.00    +0.000 C 
ATOM      6  N   UNL     1      -2.083  12.779  22.714  0.00  0.00    +0.000 NA
ATOM      7  C   UNL     1      -1.593  11.504  22.120  0.00  0.00    +0.000 C 
ATOM      8  C   UNL     1      -0.707  10.707  23.095  0.00  0.00    +0.000 C 
ATOM      9  S   UNL     1       0.026   9.432  22.100  0.00  0.00    +0.000 S 
ATOM     10  O   UNL     1      -0.792   8.241  22.215  0.00  0.00    +0.000 OA
ATOM     11  O   UNL     1       1.451   9.410  22.353  0.00  0.00    +0.000 OA
ATOM     12  C   UNL     1      -0.293  10.179  20.522  0.00  0.00    +0.000 C 
ATOM     13  C   UNL     1      -0.740  11.623  20.805  0.00  0.00    +0.000 C 
ENDROOT
BRANCH   2  14
ATOM     14  C   UNL     1       2.089  14.050  19.789  0.00  0.00    +0.000 A 
ATOM     15  C   UNL     1       1.709  14.980  18.834  0.00  0.00    +0.000 A 
ATOM     16  C   UNL     1       2.556  16.066  18.613  0.00  0.00    +0.000 A 
ATOM     17  C   UNL     1       3.733  16.181  19.344  0.00  0.00    +0.000 A 
ATOM     18  C   UNL     1       4.003  15.237  20.316  0.00  0.00    +0.000 A 
ATOM     19  N   UNL     1       3.193  14.195  20.573  0.00  0.00    +0.000 NA
ENDBRANCH   2  14
BRANCH   6  20
ATOM     20  C   UNL     1      -3.141  13.383  21.868  0.00  0.00    +0.000 C 
BRANCH  20  21
ATOM     21  C   UNL     1      -4.564  13.090  22.311  0.00  0.00    +0.000 A 
ATOM     22  C   UNL     1      -4.911  13.066  23.669  0.00  0.00    +0.000 A 
ATOM     23  C   UNL     1      -6.211  12.743  24.071  0.00  0.00    +0.000 A 
ATOM     24  C   UNL     1      -7.182  12.439  23.118  0.00  0.00    +0.000 A 
ATOM     25  C   UNL     1      -6.849  12.476  21.772  0.00  0.00    +0.000 A 
ATOM     26  F   UNL     1      -7.782  12.192  20.851  0.00  0.00    +0.000 F 
ATOM     27  C   UNL     1      -5.560  12.796  21.362  0.00  0.00    +0.000 A 
ENDBRANCH  20  21
ENDBRANCH   6  20
TORSDOF 3
ENDMDL
