MODEL 1
REMARK VINA RESULT:      -8.7      0.000      0.000
REMARK  Name = 
REMARK  8 active torsions:
REMARK  status: ('A' for Active; 'I' for Inactive)
REMARK    1  A    between atoms: C_1  and  N_2
REMARK    2  A    between atoms: N_2  and  C_3
REMARK    3  A    between atoms: C_4  and  C_6
REMARK    4  A    between atoms: C_6  and  C_7
REMARK    5  A    between atoms: C_6  and  C_22
REMARK    6  A    between atoms: C_10  and  C_11
REMARK    7  A    between atoms: C_22  and  N_23
REMARK    8  A    between atoms: C_22  and  C_24
REMARK                            x       y       z     vdW  Elec       q    Type
REMARK                         _______ _______ _______ _____ _____    ______ ____
ROOT
ATOM      1  C   UNL     1       2.630   5.340  19.301  0.00  0.00    +0.000 C 
ENDROOT
BRANCH   1   2
ATOM      2  C   UNL     1       2.304   6.826  19.479  0.00  0.00    +0.000 A 
ATOM      3  C   UNL     1       1.872   7.282  20.738  0.00  0.00    +0.000 A 
ATOM      4  C   UNL     1       1.257   8.530  20.871  0.00  0.00    +0.000 A 
ATOM      5  C   UNL     1       1.110   9.373  19.763  0.00  0.00    +0.000 A 
ATOM      6  C   UNL     1       1.653   8.981  18.534  0.00  0.00    +0.000 A 
ATOM      7  C   UNL     1       2.256   7.722  18.397  0.00  0.00    +0.000 A 
BRANCH   5   8
ATOM      8  C   UNL     1       0.268  10.598  19.915  0.00  0.00    +0.000 A 
ATOM      9  C   UNL     1      -0.290  11.199  18.657  0.00  0.00    +0.000 A 
ATOM     10  C   UNL     1      -1.051  12.286  18.821  0.00  0.00    +0.000 A 
ATOM     11  N   UNL     1      -1.286  12.805  20.089  0.00  0.00    +0.000 N 
ATOM     12  N   UNL     1      -2.019  13.896  20.423  0.00  0.00    +0.000 NA
ATOM     13  C   UNL     1      -1.918  13.969  21.753  0.00  0.00    +0.000 A 
ATOM     14  C   UNL     1      -1.137  12.936  22.292  0.00  0.00    +0.000 A 
ATOM     15  C   UNL     1      -0.725  12.193  21.212  0.00  0.00    +0.000 A 
ATOM     16  N   UNL     1       0.062  11.078  21.115  0.00  0.00    +0.000 NA
ENDBRANCH   5   8
ENDBRANCH   1   2
BRANCH   1  20
ATOM     17  C   UNL     1       1.610   2.415  21.672  0.00  0.00    +0.000 C 
ATOM     18  N   UNL     1       2.500   3.269  20.901  0.00  0.00    +0.000 N 
ATOM     19  C   UNL     1       3.817   2.701  20.654  0.00  0.00    +0.000 C 
ATOM     20  C   UNL     1       1.901   4.342  20.240  0.00  0.00    +0.000 C 
ATOM     21  O   UNL     1       0.669   4.470  20.343  0.00  0.00    +0.000 OA
ENDBRANCH   1  20
BRANCH   1  22
ATOM     22  C   UNL     1       2.569   4.875  17.805  0.00  0.00    +0.000 C 
BRANCH  22  23
ATOM     23  C   UNL     1       3.762   4.008  17.274  0.00  0.00    +0.000 C 
ATOM     24  O   UNL     1       3.636   2.781  17.171  0.00  0.00    +0.000 OA
ATOM     25  N   UNL     1       4.874   4.626  16.745  0.00  0.00    +0.000 N 
ATOM     26  C   UNL     1       5.859   3.840  16.014  0.00  0.00    +0.000 C 
ATOM     27  C   UNL     1       6.844   4.853  15.450  0.00  0.00    +0.000 C 
ATOM     28  C   UNL     1       6.797   5.961  16.484  0.00  0.00    +0.000 C 
ATOM     29  F   UNL     1       7.554   5.589  17.555  0.00  0.00    +0.000 F 
ATOM     30  C   UNL     1       5.328   5.999  16.904  0.00  0.00    +0.000 C 
ENDBRANCH  22  23
BRANCH  22  31
ATOM     31  N   UNL     1       1.320   4.111  17.474  0.00  0.00    +0.000 NA
ATOM     32  H   UNL     1       0.737   4.767  16.932  0.00  0.00    +0.000 HD
ATOM     33  H   UNL     1       0.780   4.043  18.343  0.00  0.00    +0.000 HD
ENDBRANCH  22  31
ENDBRANCH   1  22
TORSDOF 6
ENDMDL
MODEL 2
REMARK VINA RESULT:      -8.6      0.975      1.237
REMARK  Name = 
REMARK  8 active torsions:
REMARK  status: ('A' for Active; 'I' for Inactive)
REMARK    1  A    between atoms: C_1  and  N_2
REMARK    2  A    between atoms: N_2  and  C_3
REMARK    3  A    between atoms: C_4  and  C_6
REMARK    4  A    between atoms: C_6  and  C_7
REMARK    5  A    between atoms: C_6  and  C_22
REMARK    6  A    between atoms: C_10  and  C_11
REMARK    7  A    between atoms: C_22  and  N_23
REMARK    8  A    between atoms: C_22  and  C_24
REMARK                            x       y       z     vdW  Elec       q    Type
REMARK                         _______ _______ _______ _____ _____    ______ ____
ROOT
ATOM      1  C   UNL     1       2.672   5.230  19.179  0.00  0.00    +0.000 C 
ENDROOT
BRANCH   1   2
ATOM      2  C   UNL     1       2.440   6.741  19.284  0.00  0.00    +0.000 A 
ATOM      3  C   UNL     1       2.018   7.280  20.513  0.00  0.00    +0.000 A 
ATOM      4  C   UNL     1       1.482   8.569  20.578  0.00  0.00    +0.000 A 
ATOM      5  C   UNL     1       1.408   9.368  19.431  0.00  0.00    +0.000 A 
ATOM      6  C   UNL     1       1.944   8.886  18.231  0.00  0.00    +0.000 A 
ATOM      7  C   UNL     1       2.467   7.587  18.162  0.00  0.00    +0.000 A 
BRANCH   5   8
ATOM      8  C   UNL     1       0.644  10.650  19.513  0.00  0.00    +0.000 A 
ATOM      9  C   UNL     1      -0.735  10.582  20.101  0.00  0.00    +0.000 A 
ATOM     10  C   UNL     1      -1.393  11.744  20.176  0.00  0.00    +0.000 A 
ATOM     11  N   UNL     1      -0.808  12.922  19.723  0.00  0.00    +0.000 N 
ATOM     12  N   UNL     1      -1.338  14.171  19.719  0.00  0.00    +0.000 NA
ATOM     13  C   UNL     1      -0.387  14.933  19.173  0.00  0.00    +0.000 A 
ATOM     14  C   UNL     1       0.760  14.202  18.832  0.00  0.00    +0.000 A 
ATOM     15  C   UNL     1       0.479  12.903  19.181  0.00  0.00    +0.000 A 
ATOM     16  N   UNL     1       1.205  11.748  19.076  0.00  0.00    +0.000 NA
ENDBRANCH   5   8
ENDBRANCH   1   2
BRANCH   1  20
ATOM     17  C   UNL     1       1.475   2.494  21.689  0.00  0.00    +0.000 C 
ATOM     18  N   UNL     1       2.416   3.254  20.880  0.00  0.00    +0.000 N 
ATOM     19  C   UNL     1       3.697   2.597  20.669  0.00  0.00    +0.000 C 
ATOM     20  C   UNL     1       1.884   4.326  20.163  0.00  0.00    +0.000 C 
ATOM     21  O   UNL     1       0.660   4.532  20.253  0.00  0.00    +0.000 OA
ENDBRANCH   1  20
BRANCH   1  22
ATOM     22  C   UNL     1       2.581   4.698  17.707  0.00  0.00    +0.000 C 
BRANCH  22  23
ATOM     23  C   UNL     1       3.772   3.821  17.186  0.00  0.00    +0.000 C 
ATOM     24  O   UNL     1       3.669   2.587  17.168  0.00  0.00    +0.000 OA
ATOM     25  N   UNL     1       4.848   4.424  16.573  0.00  0.00    +0.000 N 
ATOM     26  C   UNL     1       5.821   3.611  15.857  0.00  0.00    +0.000 C 
ATOM     27  C   UNL     1       6.762   4.603  15.189  0.00  0.00    +0.000 C 
ATOM     28  C   UNL     1       6.730   5.776  16.149  0.00  0.00    +0.000 C 
ATOM     29  F   UNL     1       7.536   5.490  17.211  0.00  0.00    +0.000 F 
ATOM     30  C   UNL     1       5.278   5.814  16.624  0.00  0.00    +0.000 C 
ENDBRANCH  22  23
BRANCH  22  31
ATOM     31  N   UNL     1       1.334   3.907  17.440  0.00  0.00    +0.000 NA
ATOM     32  H   UNL     1       0.565   4.592  17.476  0.00  0.00    +0.000 HD
ATOM     33  H   UNL     1       1.148   3.359  18.287  0.00  0.00    +0.000 HD
ENDBRANCH  22  31
ENDBRANCH   1  22
TORSDOF 6
ENDMDL
MODEL 3
REMARK VINA RESULT:      -8.5      1.607      1.953
REMARK  Name = 
REMARK  8 active torsions:
REMARK  status: ('A' for Active; 'I' for Inactive)
REMARK    1  A    between atoms: C_1  and  N_2
REMARK    2  A    between atoms: N_2  and  C_3
REMARK    3  A    between atoms: C_4  and  C_6
REMARK    4  A    between atoms: C_6  and  C_7
REMARK    5  A    between atoms: C_6  and  C_22
REMARK    6  A    between atoms: C_10  and  C_11
REMARK    7  A    between atoms: C_22  and  N_23
REMARK    8  A    between atoms: C_22  and  C_24
REMARK                            x       y       z     vdW  Elec       q    Type
REMARK                         _______ _______ _______ _____ _____    ______ ____
ROOT
ATOM      1  C   UNL     1       3.307   5.411  18.387  0.00  0.00    +0.000 C 
ENDROOT
BRANCH   1   2
ATOM      2  C   UNL     1       2.766   6.798  18.751  0.00  0.00    +0.000 A 
ATOM      3  C   UNL     1       2.327   7.032  20.066  0.00  0.00    +0.000 A 
ATOM      4  C   UNL     1       1.535   8.145  20.364  0.00  0.00    +0.000 A 
ATOM      5  C   UNL     1       1.212   9.076  19.370  0.00  0.00    +0.000 A 
ATOM      6  C   UNL     1       1.753   8.918  18.089  0.00  0.00    +0.000 A 
ATOM      7  C   UNL     1       2.534   7.793  17.786  0.00  0.00    +0.000 A 
BRANCH   5   8
ATOM      8  C   UNL     1       0.201  10.129  19.691  0.00  0.00    +0.000 A 
ATOM      9  C   UNL     1      -0.593  10.679  18.541  0.00  0.00    +0.000 A 
ATOM     10  C   UNL     1      -1.500  11.610  18.855  0.00  0.00    +0.000 A 
ATOM     11  N   UNL     1      -1.668  12.023  20.173  0.00  0.00    +0.000 N 
ATOM     12  N   UNL     1      -2.530  12.954  20.654  0.00  0.00    +0.000 NA
ATOM     13  C   UNL     1      -2.287  12.985  21.966  0.00  0.00    +0.000 A 
ATOM     14  C   UNL     1      -1.287  12.079  22.350  0.00  0.00    +0.000 A 
ATOM     15  C   UNL     1      -0.886  11.468  21.187  0.00  0.00    +0.000 A 
ATOM     16  N   UNL     1       0.060  10.512  20.933  0.00  0.00    +0.000 NA
ENDBRANCH   5   8
ENDBRANCH   1   2
BRANCH   1  20
ATOM     17  C   UNL     1       1.758   2.047  19.612  0.00  0.00    +0.000 C 
ATOM     18  N   UNL     1       2.739   3.116  19.517  0.00  0.00    +0.000 N 
ATOM     19  C   UNL     1       4.064   2.764  20.006  0.00  0.00    +0.000 C 
ATOM     20  C   UNL     1       2.396   4.195  18.702  0.00  0.00    +0.000 C 
ATOM     21  O   UNL     1       1.301   4.149  18.113  0.00  0.00    +0.000 OA
ENDBRANCH   1  20
BRANCH   1  22
ATOM     22  C   UNL     1       3.879   5.341  16.929  0.00  0.00    +0.000 C 
BRANCH  22  23
ATOM     23  C   UNL     1       5.227   6.092  16.651  0.00  0.00    +0.000 C 
ATOM     24  O   UNL     1       5.352   6.778  15.628  0.00  0.00    +0.000 OA
ATOM     25  N   UNL     1       6.194   6.145  17.630  0.00  0.00    +0.000 N 
ATOM     26  C   UNL     1       7.323   7.054  17.482  0.00  0.00    +0.000 C 
ATOM     27  C   UNL     1       8.088   6.963  18.794  0.00  0.00    +0.000 C 
ATOM     28  C   UNL     1       7.810   5.538  19.233  0.00  0.00    +0.000 C 
ATOM     29  F   UNL     1       8.619   4.700  18.525  0.00  0.00    +0.000 F 
ATOM     30  C   UNL     1       6.361   5.306  18.807  0.00  0.00    +0.000 C 
ENDBRANCH  22  23
BRANCH  22  31
ATOM     31  N   UNL     1       4.075   3.937  16.437  0.00  0.00    +0.000 NA
ATOM     32  H   UNL     1       3.973   3.991  15.412  0.00  0.00    +0.000 HD
ATOM     33  H   UNL     1       3.228   3.417  16.690  0.00  0.00    +0.000 HD
ENDBRANCH  22  31
ENDBRANCH   1  22
TORSDOF 6
ENDMDL
MODEL 4
REMARK VINA RESULT:      -8.4      3.737      9.203
REMARK  Name = 
REMARK  8 active torsions:
REMARK  status: ('A' for Active; 'I' for Inactive)
REMARK    1  A    between atoms: C_1  and  N_2
REMARK    2  A    between atoms: N_2  and  C_3
REMARK    3  A    between atoms: C_4  and  C_6
REMARK    4  A    between atoms: C_6  and  C_7
REMARK    5  A    between atoms: C_6  and  C_22
REMARK    6  A    between atoms: C_10  and  C_11
REMARK    7  A    between atoms: C_22  and  N_23
REMARK    8  A    between atoms: C_22  and  C_24
REMARK                            x       y       z     vdW  Elec       q    Type
REMARK                         _______ _______ _______ _____ _____    ______ ____
ROOT
ATOM      1  C   UNL     1      -1.008  11.608  20.876  0.00  0.00    +0.000 C 
ENDROOT
BRANCH   1   2
ATOM      2  C   UNL     1       0.072  10.537  20.692  0.00  0.00    +0.000 A 
ATOM      3  C   UNL     1       0.656  10.370  19.423  0.00  0.00    +0.000 A 
ATOM      4  C   UNL     1       1.387   9.217  19.122  0.00  0.00    +0.000 A 
ATOM      5  C   UNL     1       1.599   8.234  20.096  0.00  0.00    +0.000 A 
ATOM      6  C   UNL     1       1.132   8.454  21.397  0.00  0.00    +0.000 A 
ATOM      7  C   UNL     1       0.385   9.603  21.695  0.00  0.00    +0.000 A 
BRANCH   5   8
ATOM      8  C   UNL     1       2.206   6.937  19.668  0.00  0.00    +0.000 A 
ATOM      9  C   UNL     1       1.942   5.744  20.541  0.00  0.00    +0.000 A 
ATOM     10  C   UNL     1       2.485   4.592  20.130  0.00  0.00    +0.000 A 
ATOM     11  N   UNL     1       3.244   4.540  18.966  0.00  0.00    +0.000 N 
ATOM     12  N   UNL     1       3.865   3.464  18.421  0.00  0.00    +0.000 NA
ATOM     13  C   UNL     1       4.462   3.944  17.328  0.00  0.00    +0.000 A 
ATOM     14  C   UNL     1       4.230   5.315  17.145  0.00  0.00    +0.000 A 
ATOM     15  C   UNL     1       3.450   5.696  18.210  0.00  0.00    +0.000 A 
ATOM     16  N   UNL     1       2.924   6.905  18.575  0.00  0.00    +0.000 NA
ENDBRANCH   5   8
ENDBRANCH   1   2
BRANCH   1  20
ATOM     17  C   UNL     1      -1.307  14.100  23.862  0.00  0.00    +0.000 C 
ATOM     18  N   UNL     1      -1.715  13.040  22.952  0.00  0.00    +0.000 N 
ATOM     19  C   UNL     1      -3.143  12.764  22.951  0.00  0.00    +0.000 C 
ATOM     20  C   UNL     1      -0.776  12.658  21.994  0.00  0.00    +0.000 C 
ATOM     21  O   UNL     1       0.313  13.259  21.979  0.00  0.00    +0.000 OA
ENDBRANCH   1  20
BRANCH   1  22
ATOM     22  C   UNL     1      -1.432  12.285  19.527  0.00  0.00    +0.000 C 
BRANCH  22  23
ATOM     23  C   UNL     1      -2.849  11.928  18.960  0.00  0.00    +0.000 C 
ATOM     24  O   UNL     1      -3.864  12.196  19.618  0.00  0.00    +0.000 OA
ATOM     25  N   UNL     1      -2.976  11.496  17.658  0.00  0.00    +0.000 N 
ATOM     26  C   UNL     1      -4.297  11.418  17.048  0.00  0.00    +0.000 C 
ATOM     27  C   UNL     1      -4.045  11.063  15.589  0.00  0.00    +0.000 C 
ATOM     28  C   UNL     1      -2.767  10.251  15.670  0.00  0.00    +0.000 C 
ATOM     29  F   UNL     1      -3.079   8.990  16.084  0.00  0.00    +0.000 F 
ATOM     30  C   UNL     1      -1.965  10.949  16.766  0.00  0.00    +0.000 C 
ENDBRANCH  22  23
BRANCH  22  31
ATOM     31  N   UNL     1      -1.368  13.784  19.572  0.00  0.00    +0.000 NA
ATOM     32  H   UNL     1      -1.919  14.104  18.761  0.00  0.00    +0.000 HD
ATOM     33  H   UNL     1      -0.420  14.045  19.279  0.00  0.00    +0.000 HD
ENDBRANCH  22  31
ENDBRANCH   1  22
TORSDOF 6
ENDMDL
MODEL 5
REMARK VINA RESULT:      -8.4      0.768      1.065
REMARK  Name = 
REMARK  8 active torsions:
REMARK  status: ('A' for Active; 'I' for Inactive)
REMARK    1  A    between atoms: C_1  and  N_2
REMARK    2  A    between atoms: N_2  and  C_3
REMARK    3  A    between atoms: C_4  and  C_6
REMARK    4  A    between atoms: C_6  and  C_7
REMARK    5  A    between atoms: C_6  and  C_22
REMARK    6  A    between atoms: C_10  and  C_11
REMARK    7  A    between atoms: C_22  and  N_23
REMARK    8  A    between atoms: C_22  and  C_24
REMARK                            x       y       z     vdW  Elec       q    Type
REMARK                         _______ _______ _______ _____ _____    ______ ____
ROOT
ATOM      1  C   UNL     1       2.633   5.348  19.303  0.00  0.00    +0.000 C 
ENDROOT
BRANCH   1   2
ATOM      2  C   UNL     1       2.322   6.835  19.507  0.00  0.00    +0.000 A 
ATOM      3  C   UNL     1       1.968   7.285  20.792  0.00  0.00    +0.000 A 
ATOM      4  C   UNL     1       1.365   8.533  20.967  0.00  0.00    +0.000 A 
ATOM      5  C   UNL     1       1.153   9.382  19.874  0.00  0.00    +0.000 A 
ATOM      6  C   UNL     1       1.619   8.994  18.613  0.00  0.00    +0.000 A 
ATOM      7  C   UNL     1       2.210   7.735  18.434  0.00  0.00    +0.000 A 
BRANCH   5   8
ATOM      8  C   UNL     1       0.324  10.608  20.083  0.00  0.00    +0.000 A 
ATOM      9  C   UNL     1       0.995  11.775  20.749  0.00  0.00    +0.000 A 
ATOM     10  C   UNL     1       0.238  12.865  20.912  0.00  0.00    +0.000 A 
ATOM     11  N   UNL     1      -1.086  12.881  20.485  0.00  0.00    +0.000 N 
ATOM     12  N   UNL     1      -1.983  13.893  20.583  0.00  0.00    +0.000 NA
ATOM     13  C   UNL     1      -3.100  13.400  20.041  0.00  0.00    +0.000 A 
ATOM     14  C   UNL     1      -2.941  12.084  19.582  0.00  0.00    +0.000 A 
ATOM     15  C   UNL     1      -1.641  11.752  19.879  0.00  0.00    +0.000 A 
ATOM     16  N   UNL     1      -0.921  10.605  19.682  0.00  0.00    +0.000 NA
ENDBRANCH   5   8
ENDBRANCH   1   2
BRANCH   1  20
ATOM     17  C   UNL     1       1.573   2.399  21.625  0.00  0.00    +0.000 C 
ATOM     18  N   UNL     1       2.476   3.261  20.879  0.00  0.00    +0.000 N 
ATOM     19  C   UNL     1       3.797   2.696  20.649  0.00  0.00    +0.000 C 
ATOM     20  C   UNL     1       1.889   4.340  20.218  0.00  0.00    +0.000 C 
ATOM     21  O   UNL     1       0.654   4.467  20.301  0.00  0.00    +0.000 OA
ENDBRANCH   1  20
BRANCH   1  22
ATOM     22  C   UNL     1       2.576   4.913  17.798  0.00  0.00    +0.000 C 
BRANCH  22  23
ATOM     23  C   UNL     1       3.752   4.024  17.264  0.00  0.00    +0.000 C 
ATOM     24  O   UNL     1       3.612   2.796  17.183  0.00  0.00    +0.000 OA
ATOM     25  N   UNL     1       4.862   4.621  16.706  0.00  0.00    +0.000 N 
ATOM     26  C   UNL     1       5.827   3.811  15.975  0.00  0.00    +0.000 C 
ATOM     27  C   UNL     1       6.814   4.804  15.378  0.00  0.00    +0.000 C 
ATOM     28  C   UNL     1       6.794   5.931  16.394  0.00  0.00    +0.000 C 
ATOM     29  F   UNL     1       7.565   5.568  17.459  0.00  0.00    +0.000 F 
ATOM     30  C   UNL     1       5.333   5.992  16.835  0.00  0.00    +0.000 C 
ENDBRANCH  22  23
BRANCH  22  31
ATOM     31  N   UNL     1       1.311   4.189  17.439  0.00  0.00    +0.000 NA
ATOM     32  H   UNL     1       0.549   4.843  17.670  0.00  0.00    +0.000 HD
ATOM     33  H   UNL     1       1.173   3.468  18.156  0.00  0.00    +0.000 HD
ENDBRANCH  22  31
ENDBRANCH   1  22
TORSDOF 6
ENDMDL
MODEL 6
REMARK VINA RESULT:      -8.3      3.907      9.196
REMARK  Name = 
REMARK  8 active torsions:
REMARK  status: ('A' for Active; 'I' for Inactive)
REMARK    1  A    between atoms: C_1  and  N_2
REMARK    2  A    between atoms: N_2  and  C_3
REMARK    3  A    between atoms: C_4  and  C_6
REMARK    4  A    between atoms: C_6  and  C_7
REMARK    5  A    between atoms: C_6  and  C_22
REMARK    6  A    between atoms: C_10  and  C_11
REMARK    7  A    between atoms: C_22  and  N_23
REMARK    8  A    between atoms: C_22  and  C_24
REMARK                            x       y       z     vdW  Elec       q    Type
REMARK                         _______ _______ _______ _____ _____    ______ ____
ROOT
ATOM      1  C   UNL     1       0.910  12.318  19.386  0.00  0.00    +0.000 C 
ENDROOT
BRANCH   1   2
ATOM      2  C   UNL     1       0.999  10.791  19.305  0.00  0.00    +0.000 A 
ATOM      3  C   UNL     1       0.779  10.034  20.470  0.00  0.00    +0.000 A 
ATOM      4  C   UNL     1       1.165   8.692  20.530  0.00  0.00    +0.000 A 
ATOM      5  C   UNL     1       1.725   8.061  19.413  0.00  0.00    +0.000 A 
ATOM      6  C   UNL     1       1.827   8.772  18.211  0.00  0.00    +0.000 A 
ATOM      7  C   UNL     1       1.455  10.123  18.155  0.00  0.00    +0.000 A 
BRANCH   5   8
ATOM      8  C   UNL     1       2.306   6.695  19.590  0.00  0.00    +0.000 A 
ATOM      9  C   UNL     1       3.447   6.321  18.689  0.00  0.00    +0.000 A 
ATOM     10  C   UNL     1       3.958   5.099  18.876  0.00  0.00    +0.000 A 
ATOM     11  N   UNL     1       3.438   4.253  19.849  0.00  0.00    +0.000 N 
ATOM     12  N   UNL     1       3.832   2.992  20.158  0.00  0.00    +0.000 NA
ATOM     13  C   UNL     1       3.011   2.620  21.143  0.00  0.00    +0.000 A 
ATOM     14  C   UNL     1       2.095   3.624  21.490  0.00  0.00    +0.000 A 
ATOM     15  C   UNL     1       2.370   4.672  20.645  0.00  0.00    +0.000 A 
ATOM     16  N   UNL     1       1.801   5.909  20.505  0.00  0.00    +0.000 NA
ENDBRANCH   5   8
ENDBRANCH   1   2
BRANCH   1  20
ATOM     17  C   UNL     1       4.077  14.595  19.444  0.00  0.00    +0.000 C 
ATOM     18  N   UNL     1       2.941  13.862  19.982  0.00  0.00    +0.000 N 
ATOM     19  C   UNL     1       2.539  14.269  21.320  0.00  0.00    +0.000 C 
ATOM     20  C   UNL     1       2.200  13.117  19.064  0.00  0.00    +0.000 C 
ATOM     21  O   UNL     1       2.552  13.154  17.871  0.00  0.00    +0.000 OA
ENDBRANCH   1  20
BRANCH   1  22
ATOM     22  C   UNL     1      -0.333  12.899  18.628  0.00  0.00    +0.000 C 
BRANCH  22  23
ATOM     23  C   UNL     1      -1.751  12.450  19.125  0.00  0.00    +0.000 C 
ATOM     24  O   UNL     1      -2.148  12.790  20.248  0.00  0.00    +0.000 OA
ATOM     25  N   UNL     1      -2.625  11.848  18.248  0.00  0.00    +0.000 N 
ATOM     26  C   UNL     1      -4.021  11.672  18.624  0.00  0.00    +0.000 C 
ATOM     27  C   UNL     1      -4.708  11.130  17.379  0.00  0.00    +0.000 C 
ATOM     28  C   UNL     1      -3.593  10.353  16.706  0.00  0.00    +0.000 C 
ATOM     29  F   UNL     1      -3.455   9.155  17.340  0.00  0.00    +0.000 F 
ATOM     30  C   UNL     1      -2.351  11.202  16.973  0.00  0.00    +0.000 C 
ENDBRANCH  22  23
BRANCH  22  31
ATOM     31  N   UNL     1      -0.359  14.400  18.596  0.00  0.00    +0.000 NA
ATOM     32  H   UNL     1       0.629  14.689  18.648  0.00  0.00    +0.000 HD
ATOM     33  H   UNL     1      -0.701  14.706  19.514  0.00  0.00    +0.000 HD
ENDBRANCH  22  31
ENDBRANCH   1  22
TORSDOF 6
ENDMDL
MODEL 7
REMARK VINA RESULT:      -8.3      1.775      2.331
REMARK  Name = 
REMARK  8 active torsions:
REMARK  status: ('A' for Active; 'I' for Inactive)
REMARK    1  A    between atoms: C_1  and  N_2
REMARK    2  A    between atoms: N_2  and  C_3
REMARK    3  A    between atoms: C_4  and  C_6
REMARK    4  A    between atoms: C_6  and  C_7
REMARK    5  A    between atoms: C_6  and  C_22
REMARK    6  A    between atoms: C_10  and  C_11
REMARK    7  A    between atoms: C_22  and  N_23
REMARK    8  A    between atoms: C_22  and  C_24
REMARK                            x       y       z     vdW  Elec       q    Type
REMARK                         _______ _______ _______ _____ _____    ______ ____
ROOT
ATOM      1  C   UNL     1       3.369   5.337  18.306  0.00  0.00    +0.000 C 
ENDROOT
BRANCH   1   2
ATOM      2  C   UNL     1       2.858   6.717  18.736  0.00  0.00    +0.000 A 
ATOM      3  C   UNL     1       2.376   6.885  20.047  0.00  0.00    +0.000 A 
ATOM      4  C   UNL     1       1.609   8.003  20.385  0.00  0.00    +0.000 A 
ATOM      5  C   UNL     1       1.354   9.004  19.440  0.00  0.00    +0.000 A 
ATOM      6  C   UNL     1       1.939   8.906  18.172  0.00  0.00    +0.000 A 
ATOM      7  C   UNL     1       2.695   7.776  17.828  0.00  0.00    +0.000 A 
BRANCH   5   8
ATOM      8  C   UNL     1       0.365  10.068  19.790  0.00  0.00    +0.000 A 
ATOM      9  C   UNL     1       0.678  10.918  20.987  0.00  0.00    +0.000 A 
ATOM     10  C   UNL     1      -0.215  11.873  21.271  0.00  0.00    +0.000 A 
ATOM     11  N   UNL     1      -1.353  12.036  20.489  0.00  0.00    +0.000 N 
ATOM     12  N   UNL     1      -2.352  12.941  20.645  0.00  0.00    +0.000 NA
ATOM     13  C   UNL     1      -3.202  12.672  19.651  0.00  0.00    +0.000 A 
ATOM     14  C   UNL     1      -2.766  11.612  18.841  0.00  0.00    +0.000 A 
ATOM     15  C   UNL     1      -1.577  11.201  19.393  0.00  0.00    +0.000 A 
ATOM     16  N   UNL     1      -0.704  10.205  19.048  0.00  0.00    +0.000 NA
ENDBRANCH   5   8
ENDBRANCH   1   2
BRANCH   1  20
ATOM     17  C   UNL     1       1.732   1.969  19.400  0.00  0.00    +0.000 C 
ATOM     18  N   UNL     1       2.731   3.026  19.362  0.00  0.00    +0.000 N 
ATOM     19  C   UNL     1       4.033   2.644  19.888  0.00  0.00    +0.000 C 
ATOM     20  C   UNL     1       2.431   4.128  18.561  0.00  0.00    +0.000 C 
ATOM     21  O   UNL     1       1.356   4.112  17.935  0.00  0.00    +0.000 OA
ENDBRANCH   1  20
BRANCH   1  22
ATOM     22  C   UNL     1       3.941   5.325  16.846  0.00  0.00    +0.000 C 
BRANCH  22  23
ATOM     23  C   UNL     1       5.292   6.082  16.600  0.00  0.00    +0.000 C 
ATOM     24  O   UNL     1       5.443   6.757  15.573  0.00  0.00    +0.000 OA
ATOM     25  N   UNL     1       6.229   6.154  17.606  0.00  0.00    +0.000 N 
ATOM     26  C   UNL     1       7.356   7.069  17.481  0.00  0.00    +0.000 C 
ATOM     27  C   UNL     1       8.082   6.999  18.817  0.00  0.00    +0.000 C 
ATOM     28  C   UNL     1       7.800   5.577  19.264  0.00  0.00    +0.000 C 
ATOM     29  F   UNL     1       8.636   4.737  18.591  0.00  0.00    +0.000 F 
ATOM     30  C   UNL     1       6.366   5.331  18.799  0.00  0.00    +0.000 C 
ENDBRANCH  22  23
BRANCH  22  31
ATOM     31  N   UNL     1       4.133   3.942  16.297  0.00  0.00    +0.000 NA
ATOM     32  H   UNL     1       3.191   3.522  16.284  0.00  0.00    +0.000 HD
ATOM     33  H   UNL     1       4.581   3.392  17.039  0.00  0.00    +0.000 HD
ENDBRANCH  22  31
ENDBRANCH   1  22
TORSDOF 6
ENDMDL
MODEL 8
REMARK VINA RESULT:      -8.2      2.183      4.242
REMARK  Name = 
REMARK  8 active torsions:
REMARK  status: ('A' for Active; 'I' for Inactive)
REMARK    1  A    between atoms: C_1  and  N_2
REMARK    2  A    between atoms: N_2  and  C_3
REMARK    3  A    between atoms: C_4  and  C_6
REMARK    4  A    between atoms: C_6  and  C_7
REMARK    5  A    between atoms: C_6  and  C_22
REMARK    6  A    between atoms: C_10  and  C_11
REMARK    7  A    between atoms: C_22  and  N_23
REMARK    8  A    between atoms: C_22  and  C_24
REMARK                            x       y       z     vdW  Elec       q    Type
REMARK                         _______ _______ _______ _____ _____    ______ ____
ROOT
ATOM      1  C   UNL     1       4.004   6.049  18.042  0.00  0.00    +0.000 C 
ENDROOT
BRANCH   1   2
ATOM      2  C   UNL     1       3.194   7.310  18.361  0.00  0.00    +0.000 A 
ATOM      3  C   UNL     1       2.564   7.415  19.615  0.00  0.00    +0.000 A 
ATOM      4  C   UNL     1       1.564   8.367  19.831  0.00  0.00    +0.000 A 
ATOM      5  C   UNL     1       1.211   9.271  18.822  0.00  0.00    +0.000 A 
ATOM      6  C   UNL     1       1.923   9.257  17.617  0.00  0.00    +0.000 A 
ATOM      7  C   UNL     1       2.915   8.291  17.394  0.00  0.00    +0.000 A 
BRANCH   5   8
ATOM      8  C   UNL     1       0.003  10.126  19.032  0.00  0.00    +0.000 A 
ATOM      9  C   UNL     1      -0.993  10.181  17.911  0.00  0.00    +0.000 A 
ATOM     10  C   UNL     1      -2.071  10.942  18.128  0.00  0.00    +0.000 A 
ATOM     11  N   UNL     1      -2.225  11.630  19.327  0.00  0.00    +0.000 N 
ATOM     12  N   UNL     1      -3.245  12.444  19.698  0.00  0.00    +0.000 NA
ATOM     13  C   UNL     1      -2.909  12.859  20.922  0.00  0.00    +0.000 A 
ATOM     14  C   UNL     1      -1.690  12.320  21.358  0.00  0.00    +0.000 A 
ATOM     15  C   UNL     1      -1.250  11.534  20.321  0.00  0.00    +0.000 A 
ATOM     16  N   UNL     1      -0.124  10.773  20.162  0.00  0.00    +0.000 NA
ENDBRANCH   5   8
ENDBRANCH   1   2
BRANCH   1  20
ATOM     17  C   UNL     1       6.197   5.356  14.891  0.00  0.00    +0.000 C 
ATOM     18  N   UNL     1       5.187   5.099  15.906  0.00  0.00    +0.000 N 
ATOM     19  C   UNL     1       4.788   3.704  16.020  0.00  0.00    +0.000 C 
ATOM     20  C   UNL     1       4.971   6.121  16.831  0.00  0.00    +0.000 C 
ATOM     21  O   UNL     1       5.663   7.149  16.729  0.00  0.00    +0.000 OA
ENDBRANCH   1  20
BRANCH   1  22
ATOM     22  C   UNL     1       4.703   5.436  19.304  0.00  0.00    +0.000 C 
BRANCH  22  23
ATOM     23  C   UNL     1       4.355   3.952  19.667  0.00  0.00    +0.000 C 
ATOM     24  O   UNL     1       5.218   3.070  19.561  0.00  0.00    +0.000 OA
ATOM     25  N   UNL     1       3.158   3.661  20.283  0.00  0.00    +0.000 N 
ATOM     26  C   UNL     1       2.942   2.340  20.858  0.00  0.00    +0.000 C 
ATOM     27  C   UNL     1       1.604   2.427  21.576  0.00  0.00    +0.000 C 
ATOM     28  C   UNL     1       0.857   3.455  20.747  0.00  0.00    +0.000 C 
ATOM     29  F   UNL     1       0.388   2.846  19.621  0.00  0.00    +0.000 F 
ATOM     30  C   UNL     1       1.942   4.458  20.355  0.00  0.00    +0.000 C 
ENDBRANCH  22  23
BRANCH  22  31
ATOM     31  N   UNL     1       6.201   5.509  19.243  0.00  0.00    +0.000 NA
ATOM     32  H   UNL     1       6.411   6.391  18.751  0.00  0.00    +0.000 HD
ATOM     33  H   UNL     1       6.500   4.820  18.544  0.00  0.00    +0.000 HD
ENDBRANCH  22  31
ENDBRANCH   1  22
TORSDOF 6
ENDMDL
MODEL 9
REMARK VINA RESULT:      -8.2      1.838      2.291
REMARK  Name = 
REMARK  8 active torsions:
REMARK  status: ('A' for Active; 'I' for Inactive)
REMARK    1  A    between atoms: C_1  and  N_2
REMARK    2  A    between atoms: N_2  and  C_3
REMARK    3  A    between atoms: C_4  and  C_6
REMARK    4  A    between atoms: C_6  and  C_7
REMARK    5  A    between atoms: C_6  and  C_22
REMARK    6  A    between atoms: C_10  and  C_11
REMARK    7  A    between atoms: C_22  and  N_23
REMARK    8  A    between atoms: C_22  and  C_24
REMARK                            x       y       z     vdW  Elec       q    Type
REMARK                         _______ _______ _______ _____ _____    ______ ____
ROOT
ATOM      1  C   UNL     1       3.223   5.268  18.123  0.00  0.00    +0.000 C 
ENDROOT
BRANCH   1   2
ATOM      2  C   UNL     1       2.877   6.723  18.457  0.00  0.00    +0.000 A 
ATOM      3  C   UNL     1       2.380   7.026  19.738  0.00  0.00    +0.000 A 
ATOM      4  C   UNL     1       1.749   8.248  19.986  0.00  0.00    +0.000 A 
ATOM      5  C   UNL     1       1.650   9.215  18.978  0.00  0.00    +0.000 A 
ATOM      6  C   UNL     1       2.255   8.972  17.740  0.00  0.00    +0.000 A 
ATOM      7  C   UNL     1       2.875   7.739  17.487  0.00  0.00    +0.000 A 
BRANCH   5   8
ATOM      8  C   UNL     1       0.792  10.412  19.232  0.00  0.00    +0.000 A 
ATOM      9  C   UNL     1      -0.572  10.160  19.807  0.00  0.00    +0.000 A 
ATOM     10  C   UNL     1      -1.316  11.248  20.037  0.00  0.00    +0.000 A 
ATOM     11  N   UNL     1      -0.828  12.517  19.745  0.00  0.00    +0.000 N 
ATOM     12  N   UNL     1      -1.452  13.710  19.909  0.00  0.00    +0.000 NA
ATOM     13  C   UNL     1      -0.568  14.610  19.470  0.00  0.00    +0.000 A 
ATOM     14  C   UNL     1       0.628  14.021  19.032  0.00  0.00    +0.000 A 
ATOM     15  C   UNL     1       0.451  12.670  19.205  0.00  0.00    +0.000 A 
ATOM     16  N   UNL     1       1.262  11.599  18.945  0.00  0.00    +0.000 NA
ENDBRANCH   5   8
ENDBRANCH   1   2
BRANCH   1  20
ATOM     17  C   UNL     1       0.963   2.295  19.250  0.00  0.00    +0.000 C 
ATOM     18  N   UNL     1       2.079   3.227  19.301  0.00  0.00    +0.000 N 
ATOM     19  C   UNL     1       3.180   2.803  20.153  0.00  0.00    +0.000 C 
ATOM     20  C   UNL     1       2.101   4.214  18.316  0.00  0.00    +0.000 C 
ATOM     21  O   UNL     1       1.189   4.208  17.471  0.00  0.00    +0.000 OA
ENDBRANCH   1  20
BRANCH   1  22
ATOM     22  C   UNL     1       3.928   5.112  16.731  0.00  0.00    +0.000 C 
BRANCH  22  23
ATOM     23  C   UNL     1       5.270   5.893  16.516  0.00  0.00    +0.000 C 
ATOM     24  O   UNL     1       5.429   6.580  15.497  0.00  0.00    +0.000 OA
ATOM     25  N   UNL     1       6.188   5.972  17.540  0.00  0.00    +0.000 N 
ATOM     26  C   UNL     1       7.302   6.906  17.443  0.00  0.00    +0.000 C 
ATOM     27  C   UNL     1       8.004   6.836  18.791  0.00  0.00    +0.000 C 
ATOM     28  C   UNL     1       7.738   5.406  19.221  0.00  0.00    +0.000 C 
ATOM     29  F   UNL     1       8.599   4.585  18.556  0.00  0.00    +0.000 F 
ATOM     30  C   UNL     1       6.317   5.140  18.727  0.00  0.00    +0.000 C 
ENDBRANCH  22  23
BRANCH  22  31
ATOM     31  N   UNL     1       4.215   3.684  16.370  0.00  0.00    +0.000 NA
ATOM     32  H   UNL     1       3.664   3.120  17.034  0.00  0.00    +0.000 HD
ATOM     33  H   UNL     1       5.169   3.487  16.691  0.00  0.00    +0.000 HD
ENDBRANCH  22  31
ENDBRANCH   1  22
TORSDOF 6
ENDMDL
