MODEL 1
REMARK VINA RESULT:      -6.5      0.000      0.000
REMARK  Name = 
REMARK  16 active torsions:
REMARK  status: ('A' for Active; 'I' for Inactive)
REMARK    1  A    between atoms: C_1  and  O_2
REMARK    2  A    between atoms: O_2  and  C_3
REMARK    3  A    between atoms: C_4  and  O_5
REMARK    4  A    between atoms: O_5  and  C_6
REMARK    5  A    between atoms: C_6  and  C_7
REMARK    6  A    between atoms: C_7  and  C_8
REMARK    7  A    between atoms: C_8  and  C_9
REMARK    8  A    between atoms: C_9  and  N_10
REMARK    9  A    between atoms: N_10  and  C_11
REMARK   10  A    between atoms: N_10  and  C_14
REMARK   11  A    between atoms: C_11  and  C_12
REMARK   12  A    between atoms: C_12  and  O_13
REMARK   13  A    between atoms: C_14  and  C_15
REMARK   14  A    between atoms: C_15  and  O_16
REMARK   15  A    between atoms: C_18  and  O_19
REMARK   16  A    between atoms: C_24  and  C_25
REMARK                            x       y       z     vdW  Elec       q    Type
REMARK                         _______ _______ _______ _____ _____    ______ ____
ROOT
ATOM      1  C   UNL     1       2.680   6.888  19.176  0.00  0.00    +0.000 A 
ATOM      2  C   UNL     1       1.802   6.983  20.271  0.00  0.00    +0.000 A 
ATOM      3  C   UNL     1       1.372   5.822  20.923  0.00  0.00    +0.000 A 
ATOM      4  C   UNL     1       1.806   4.568  20.491  0.00  0.00    +0.000 A 
ATOM      5  C   UNL     1       2.678   4.458  19.403  0.00  0.00    +0.000 A 
ATOM      6  C   UNL     1       3.142   3.154  18.888  0.00  0.00    +0.000 A 
ATOM      7  O   UNL     1       2.838   2.066  19.364  0.00  0.00    +0.000 OA
ATOM      8  C   UNL     1       4.030   3.184  17.718  0.00  0.00    +0.000 A 
ATOM      9  C   UNL     1       4.409   4.356  17.199  0.00  0.00    +0.000 A 
ATOM     10  O   UNL     1       3.980   5.580  17.679  0.00  0.00    +0.000 OA
ATOM     11  C   UNL     1       3.113   5.613  18.754  0.00  0.00    +0.000 A 
ENDROOT
BRANCH   9  12
ATOM     12  C   UNL     1       5.319   4.433  16.032  0.00  0.00    +0.000 A 
ATOM     13  C   UNL     1       6.564   5.069  16.141  0.00  0.00    +0.000 A 
ATOM     14  C   UNL     1       7.425   5.159  15.042  0.00  0.00    +0.000 A 
ATOM     15  C   UNL     1       7.055   4.606  13.818  0.00  0.00    +0.000 A 
ATOM     16  C   UNL     1       5.832   3.954  13.694  0.00  0.00    +0.000 A 
ATOM     17  C   UNL     1       4.974   3.861  14.795  0.00  0.00    +0.000 A 
ENDBRANCH   9  12
BRANCH   1  19
ATOM     18  C   UNL     1       2.194   8.596  17.556  0.00  0.00    +0.000 C 
ATOM     19  O   UNL     1       3.127   7.934  18.403  0.00  0.00    +0.000 OA
ENDBRANCH   1  19
BRANCH   4  20
ATOM     20  O   UNL     1       1.346   3.457  21.138  0.00  0.00    +0.000 OA
ATOM     21  H   UNL     1       0.377   3.429  21.137  0.00  0.00    +0.000 HD
ENDBRANCH   4  20
BRANCH   2  22
ATOM     22  O   UNL     1       1.297   8.210  20.574  0.00  0.00    +0.000 OA
BRANCH  22  23
ATOM     23  C   UNL     1       1.259   8.642  21.932  0.00  0.00    +0.000 C 
BRANCH  23  24
ATOM     24  C   UNL     1      -0.161   9.151  22.182  0.00  0.00    +0.000 C 
BRANCH  24  25
ATOM     25  C   UNL     1      -0.168  10.684  22.250  0.00  0.00    +0.000 C 
BRANCH  25  26
ATOM     26  C   UNL     1      -1.086  11.353  21.221  0.00  0.00    +0.000 C 
BRANCH  26  27
ATOM     27  N   UNL     1      -0.466  12.334  20.294  0.00  0.00    +0.000 NA
BRANCH  27  28
ATOM     28  C   UNL     1       0.968  11.984  20.063  0.00  0.00    +0.000 C 
BRANCH  28  29
ATOM     29  C   UNL     1       1.707  12.798  18.983  0.00  0.00    +0.000 C 
BRANCH  29  30
ATOM     30  O   UNL     1       2.010  11.994  17.849  0.00  0.00    +0.000 OA
ATOM     31  H   UNL     1       2.455  11.200  18.198  0.00  0.00    +0.000 HD
ENDBRANCH  29  30
ENDBRANCH  28  29
ENDBRANCH  27  28
BRANCH  27  32
ATOM     32  C   UNL     1      -1.202  12.317  18.995  0.00  0.00    +0.000 C 
BRANCH  32  33
ATOM     33  C   UNL     1      -1.586  10.913  18.492  0.00  0.00    +0.000 C 
BRANCH  33  34
ATOM     34  O   UNL     1      -0.732  10.517  17.423  0.00  0.00    +0.000 OA
ATOM     35  H   UNL     1      -0.517  11.338  16.941  0.00  0.00    +0.000 HD
ENDBRANCH  33  34
ENDBRANCH  32  33
ENDBRANCH  27  32
ENDBRANCH  26  27
ENDBRANCH  25  26
ENDBRANCH  24  25
ENDBRANCH  23  24
ENDBRANCH  22  23
ENDBRANCH   2  22
TORSDOF 15
ENDMDL
MODEL 2
REMARK VINA RESULT:      -6.3      3.164     10.179
REMARK  Name = 
REMARK  16 active torsions:
REMARK  status: ('A' for Active; 'I' for Inactive)
REMARK    1  A    between atoms: C_1  and  O_2
REMARK    2  A    between atoms: O_2  and  C_3
REMARK    3  A    between atoms: C_4  and  O_5
REMARK    4  A    between atoms: O_5  and  C_6
REMARK    5  A    between atoms: C_6  and  C_7
REMARK    6  A    between atoms: C_7  and  C_8
REMARK    7  A    between atoms: C_8  and  C_9
REMARK    8  A    between atoms: C_9  and  N_10
REMARK    9  A    between atoms: N_10  and  C_11
REMARK   10  A    between atoms: N_10  and  C_14
REMARK   11  A    between atoms: C_11  and  C_12
REMARK   12  A    between atoms: C_12  and  O_13
REMARK   13  A    between atoms: C_14  and  C_15
REMARK   14  A    between atoms: C_15  and  O_16
REMARK   15  A    between atoms: C_18  and  O_19
REMARK   16  A    between atoms: C_24  and  C_25
REMARK                            x       y       z     vdW  Elec       q    Type
REMARK                         _______ _______ _______ _____ _____    ______ ____
ROOT
ATOM      1  C   UNL     1       0.205  10.475  20.015  0.00  0.00    +0.000 A 
ATOM      2  C   UNL     1       0.690   9.712  18.937  0.00  0.00    +0.000 A 
ATOM      3  C   UNL     1      -0.050   9.628  17.753  0.00  0.00    +0.000 A 
ATOM      4  C   UNL     1      -1.271  10.293  17.635  0.00  0.00    +0.000 A 
ATOM      5  C   UNL     1      -1.767  11.055  18.698  0.00  0.00    +0.000 A 
ATOM      6  C   UNL     1      -3.066  11.754  18.634  0.00  0.00    +0.000 A 
ATOM      7  O   UNL     1      -3.811  11.757  17.661  0.00  0.00    +0.000 OA
ATOM      8  C   UNL     1      -3.480  12.490  19.836  0.00  0.00    +0.000 A 
ATOM      9  C   UNL     1      -2.673  12.536  20.900  0.00  0.00    +0.000 A 
ATOM     10  O   UNL     1      -1.454  11.886  20.964  0.00  0.00    +0.000 OA
ATOM     11  C   UNL     1      -1.029  11.146  19.878  0.00  0.00    +0.000 A 
ENDROOT
BRANCH   9  12
ATOM     12  C   UNL     1      -3.041  13.283  22.125  0.00  0.00    +0.000 A 
ATOM     13  C   UNL     1      -3.369  12.598  23.305  0.00  0.00    +0.000 A 
ATOM     14  C   UNL     1      -3.731  13.293  24.464  0.00  0.00    +0.000 A 
ATOM     15  C   UNL     1      -3.762  14.685  24.462  0.00  0.00    +0.000 A 
ATOM     16  C   UNL     1      -3.422  15.384  23.308  0.00  0.00    +0.000 A 
ATOM     17  C   UNL     1      -3.056  14.688  22.151  0.00  0.00    +0.000 A 
ENDBRANCH   9  12
BRANCH   1  19
ATOM     18  C   UNL     1       0.614   9.529  22.186  0.00  0.00    +0.000 C 
ATOM     19  O   UNL     1       0.790  10.590  21.254  0.00  0.00    +0.000 OA
ENDBRANCH   1  19
BRANCH   4  20
ATOM     20  O   UNL     1      -1.976  10.168  16.472  0.00  0.00    +0.000 OA
ATOM     21  H   UNL     1      -1.413  10.340  15.702  0.00  0.00    +0.000 HD
ENDBRANCH   4  20
BRANCH   2  22
ATOM     22  O   UNL     1       1.813   8.970  19.140  0.00  0.00    +0.000 OA
BRANCH  22  23
ATOM     23  C   UNL     1       2.514   8.429  18.023  0.00  0.00    +0.000 C 
BRANCH  23  24
ATOM     24  C   UNL     1       3.061   7.074  18.475  0.00  0.00    +0.000 C 
BRANCH  24  25
ATOM     25  C   UNL     1       2.051   5.965  18.154  0.00  0.00    +0.000 C 
BRANCH  25  26
ATOM     26  C   UNL     1       2.512   4.560  18.559  0.00  0.00    +0.000 C 
BRANCH  26  27
ATOM     27  N   UNL     1       1.456   3.549  18.827  0.00  0.00    +0.000 NA
BRANCH  27  28
ATOM     28  C   UNL     1       2.006   2.173  18.636  0.00  0.00    +0.000 C 
BRANCH  28  29
ATOM     29  C   UNL     1       3.470   2.080  18.161  0.00  0.00    +0.000 C 
BRANCH  29  30
ATOM     30  O   UNL     1       4.325   1.646  19.213  0.00  0.00    +0.000 OA
ATOM     31  H   UNL     1       5.168   2.116  19.080  0.00  0.00    +0.000 HD
ENDBRANCH  29  30
ENDBRANCH  28  29
ENDBRANCH  27  28
BRANCH  27  32
ATOM     32  C   UNL     1       0.971   3.706  20.230  0.00  0.00    +0.000 C 
BRANCH  32  33
ATOM     33  C   UNL     1       2.075   3.994  21.265  0.00  0.00    +0.000 C 
BRANCH  33  34
ATOM     34  O   UNL     1       2.227   2.890  22.151  0.00  0.00    +0.000 OA
ATOM     35  H   UNL     1       2.826   3.200  22.857  0.00  0.00    +0.000 HD
ENDBRANCH  33  34
ENDBRANCH  32  33
ENDBRANCH  27  32
ENDBRANCH  26  27
ENDBRANCH  25  26
ENDBRANCH  24  25
ENDBRANCH  23  24
ENDBRANCH  22  23
ENDBRANCH   2  22
TORSDOF 15
ENDMDL
MODEL 3
REMARK VINA RESULT:      -6.3      3.177     10.033
REMARK  Name = 
REMARK  16 active torsions:
REMARK  status: ('A' for Active; 'I' for Inactive)
REMARK    1  A    between atoms: C_1  and  O_2
REMARK    2  A    between atoms: O_2  and  C_3
REMARK    3  A    between atoms: C_4  and  O_5
REMARK    4  A    between atoms: O_5  and  C_6
REMARK    5  A    between atoms: C_6  and  C_7
REMARK    6  A    between atoms: C_7  and  C_8
REMARK    7  A    between atoms: C_8  and  C_9
REMARK    8  A    between atoms: C_9  and  N_10
REMARK    9  A    between atoms: N_10  and  C_11
REMARK   10  A    between atoms: N_10  and  C_14
REMARK   11  A    between atoms: C_11  and  C_12
REMARK   12  A    between atoms: C_12  and  O_13
REMARK   13  A    between atoms: C_14  and  C_15
REMARK   14  A    between atoms: C_15  and  O_16
REMARK   15  A    between atoms: C_18  and  O_19
REMARK   16  A    between atoms: C_24  and  C_25
REMARK                            x       y       z     vdW  Elec       q    Type
REMARK                         _______ _______ _______ _____ _____    ______ ____
ROOT
ATOM      1  C   UNL     1       0.405  10.258  20.014  0.00  0.00    +0.000 A 
ATOM      2  C   UNL     1       0.814   9.547  18.872  0.00  0.00    +0.000 A 
ATOM      3  C   UNL     1       0.032   9.580  17.712  0.00  0.00    +0.000 A 
ATOM      4  C   UNL     1      -1.156  10.312  17.683  0.00  0.00    +0.000 A 
ATOM      5  C   UNL     1      -1.576  11.024  18.811  0.00  0.00    +0.000 A 
ATOM      6  C   UNL     1      -2.839  11.788  18.842  0.00  0.00    +0.000 A 
ATOM      7  O   UNL     1      -3.615  11.895  17.899  0.00  0.00    +0.000 OA
ATOM      8  C   UNL     1      -3.174  12.461  20.104  0.00  0.00    +0.000 A 
ATOM      9  C   UNL     1      -2.331  12.394  21.139  0.00  0.00    +0.000 A 
ATOM     10  O   UNL     1      -1.146  11.682  21.115  0.00  0.00    +0.000 OA
ATOM     11  C   UNL     1      -0.797  10.997  19.967  0.00  0.00    +0.000 A 
ENDROOT
BRANCH   9  12
ATOM     12  C   UNL     1      -2.619  13.073  22.423  0.00  0.00    +0.000 A 
ATOM     13  C   UNL     1      -1.881  14.200  22.815  0.00  0.00    +0.000 A 
ATOM     14  C   UNL     1      -2.136  14.841  24.031  0.00  0.00    +0.000 A 
ATOM     15  C   UNL     1      -3.140  14.369  24.872  0.00  0.00    +0.000 A 
ATOM     16  C   UNL     1      -3.897  13.264  24.494  0.00  0.00    +0.000 A 
ATOM     17  C   UNL     1      -3.644  12.626  23.275  0.00  0.00    +0.000 A 
ENDBRANCH   9  12
BRANCH   1  19
ATOM     18  C   UNL     1       0.805   9.167  22.118  0.00  0.00    +0.000 C 
ATOM     19  O   UNL     1       1.036  10.260  21.236  0.00  0.00    +0.000 OA
ENDBRANCH   1  19
BRANCH   4  20
ATOM     20  O   UNL     1      -1.905  10.301  16.541  0.00  0.00    +0.000 OA
ATOM     21  H   UNL     1      -1.367  10.534  15.769  0.00  0.00    +0.000 HD
ENDBRANCH   4  20
BRANCH   2  22
ATOM     22  O   UNL     1       1.903   8.739  18.984  0.00  0.00    +0.000 OA
BRANCH  22  23
ATOM     23  C   UNL     1       2.563   8.275  17.809  0.00  0.00    +0.000 C 
BRANCH  23  24
ATOM     24  C   UNL     1       3.264   6.972  18.196  0.00  0.00    +0.000 C 
BRANCH  24  25
ATOM     25  C   UNL     1       2.380   5.770  17.838  0.00  0.00    +0.000 C 
BRANCH  25  26
ATOM     26  C   UNL     1       2.854   4.442  18.436  0.00  0.00    +0.000 C 
BRANCH  26  27
ATOM     27  N   UNL     1       1.808   3.478  18.867  0.00  0.00    +0.000 NA
BRANCH  27  28
ATOM     28  C   UNL     1       2.411   2.128  19.078  0.00  0.00    +0.000 C 
BRANCH  28  29
ATOM     29  C   UNL     1       3.462   1.679  18.043  0.00  0.00    +0.000 C 
BRANCH  29  30
ATOM     30  O   UNL     1       4.268   0.623  18.553  0.00  0.00    +0.000 OA
ATOM     31  H   UNL     1       3.980   0.490  19.474  0.00  0.00    +0.000 HD
ENDBRANCH  29  30
ENDBRANCH  28  29
ENDBRANCH  27  28
BRANCH  27  32
ATOM     32  C   UNL     1       1.193   3.958  20.140  0.00  0.00    +0.000 C 
BRANCH  32  33
ATOM     33  C   UNL     1       2.203   4.420  21.208  0.00  0.00    +0.000 C 
BRANCH  33  34
ATOM     34  O   UNL     1       2.159   5.836  21.354  0.00  0.00    +0.000 OA
ATOM     35  H   UNL     1       2.955   6.072  21.868  0.00  0.00    +0.000 HD
ENDBRANCH  33  34
ENDBRANCH  32  33
ENDBRANCH  27  32
ENDBRANCH  26  27
ENDBRANCH  25  26
ENDBRANCH  24  25
ENDBRANCH  23  24
ENDBRANCH  22  23
ENDBRANCH   2  22
TORSDOF 15
ENDMDL
MODEL 4
REMARK VINA RESULT:      -6.3      3.016     10.185
REMARK  Name = 
REMARK  16 active torsions:
REMARK  status: ('A' for Active; 'I' for Inactive)
REMARK    1  A    between atoms: C_1  and  O_2
REMARK    2  A    between atoms: O_2  and  C_3
REMARK    3  A    between atoms: C_4  and  O_5
REMARK    4  A    between atoms: O_5  and  C_6
REMARK    5  A    between atoms: C_6  and  C_7
REMARK    6  A    between atoms: C_7  and  C_8
REMARK    7  A    between atoms: C_8  and  C_9
REMARK    8  A    between atoms: C_9  and  N_10
REMARK    9  A    between atoms: N_10  and  C_11
REMARK   10  A    between atoms: N_10  and  C_14
REMARK   11  A    between atoms: C_11  and  C_12
REMARK   12  A    between atoms: C_12  and  O_13
REMARK   13  A    between atoms: C_14  and  C_15
REMARK   14  A    between atoms: C_15  and  O_16
REMARK   15  A    between atoms: C_18  and  O_19
REMARK   16  A    between atoms: C_24  and  C_25
REMARK                            x       y       z     vdW  Elec       q    Type
REMARK                         _______ _______ _______ _____ _____    ______ ____
ROOT
ATOM      1  C   UNL     1       0.475  10.372  20.219  0.00  0.00    +0.000 A 
ATOM      2  C   UNL     1       0.893   9.655  19.082  0.00  0.00    +0.000 A 
ATOM      3  C   UNL     1       0.111   9.670  17.922  0.00  0.00    +0.000 A 
ATOM      4  C   UNL     1      -1.084  10.388  17.886  0.00  0.00    +0.000 A 
ATOM      5  C   UNL     1      -1.513  11.105  19.008  0.00  0.00    +0.000 A 
ATOM      6  C   UNL     1      -2.784  11.856  19.031  0.00  0.00    +0.000 A 
ATOM      7  O   UNL     1      -3.560  11.947  18.086  0.00  0.00    +0.000 OA
ATOM      8  C   UNL     1      -3.127  12.536  20.287  0.00  0.00    +0.000 A 
ATOM      9  C   UNL     1      -2.284  12.488  21.323  0.00  0.00    +0.000 A 
ATOM     10  O   UNL     1      -1.091  11.788  21.306  0.00  0.00    +0.000 OA
ATOM     11  C   UNL     1      -0.734  11.097  20.164  0.00  0.00    +0.000 A 
ENDROOT
BRANCH   9  12
ATOM     12  C   UNL     1      -2.580  13.175  22.601  0.00  0.00    +0.000 A 
ATOM     13  C   UNL     1      -3.577  12.685  23.458  0.00  0.00    +0.000 A 
ATOM     14  C   UNL     1      -3.874  13.333  24.662  0.00  0.00    +0.000 A 
ATOM     15  C   UNL     1      -3.172  14.479  25.030  0.00  0.00    +0.000 A 
ATOM     16  C   UNL     1      -2.166  14.970  24.203  0.00  0.00    +0.000 A 
ATOM     17  C   UNL     1      -1.867  14.318  23.002  0.00  0.00    +0.000 A 
ENDBRANCH   9  12
BRANCH   1  19
ATOM     18  C   UNL     1       0.870   9.313  22.340  0.00  0.00    +0.000 C 
ATOM     19  O   UNL     1       1.106  10.390  21.441  0.00  0.00    +0.000 OA
ENDBRANCH   1  19
BRANCH   4  20
ATOM     20  O   UNL     1      -1.832  10.359  16.743  0.00  0.00    +0.000 OA
ATOM     21  H   UNL     1      -1.692  11.159  16.214  0.00  0.00    +0.000 HD
ENDBRANCH   4  20
BRANCH   2  22
ATOM     22  O   UNL     1       1.991   8.859  19.202  0.00  0.00    +0.000 OA
BRANCH  22  23
ATOM     23  C   UNL     1       2.400   8.050  18.103  0.00  0.00    +0.000 C 
BRANCH  23  24
ATOM     24  C   UNL     1       2.942   6.752  18.704  0.00  0.00    +0.000 C 
BRANCH  24  25
ATOM     25  C   UNL     1       2.211   5.546  18.098  0.00  0.00    +0.000 C 
BRANCH  25  26
ATOM     26  C   UNL     1       3.139   4.410  17.651  0.00  0.00    +0.000 C 
BRANCH  26  27
ATOM     27  N   UNL     1       4.601   4.677  17.680  0.00  0.00    +0.000 NA
BRANCH  27  28
ATOM     28  C   UNL     1       5.237   3.918  18.798  0.00  0.00    +0.000 C 
BRANCH  28  29
ATOM     29  C   UNL     1       4.343   2.897  19.529  0.00  0.00    +0.000 C 
BRANCH  29  30
ATOM     30  O   UNL     1       5.110   1.811  20.036  0.00  0.00    +0.000 OA
ATOM     31  H   UNL     1       5.970   1.857  19.580  0.00  0.00    +0.000 HD
ENDBRANCH  29  30
ENDBRANCH  28  29
ENDBRANCH  27  28
BRANCH  27  32
ATOM     32  C   UNL     1       5.202   4.254  16.380  0.00  0.00    +0.000 C 
BRANCH  32  33
ATOM     33  C   UNL     1       5.558   5.412  15.429  0.00  0.00    +0.000 C 
BRANCH  33  34
ATOM     34  O   UNL     1       6.735   6.078  15.873  0.00  0.00    +0.000 OA
ATOM     35  H   UNL     1       6.509   7.028  15.889  0.00  0.00    +0.000 HD
ENDBRANCH  33  34
ENDBRANCH  32  33
ENDBRANCH  27  32
ENDBRANCH  26  27
ENDBRANCH  25  26
ENDBRANCH  24  25
ENDBRANCH  23  24
ENDBRANCH  22  23
ENDBRANCH   2  22
TORSDOF 15
ENDMDL
MODEL 5
REMARK VINA RESULT:      -6.3      0.950      1.302
REMARK  Name = 
REMARK  16 active torsions:
REMARK  status: ('A' for Active; 'I' for Inactive)
REMARK    1  A    between atoms: C_1  and  O_2
REMARK    2  A    between atoms: O_2  and  C_3
REMARK    3  A    between atoms: C_4  and  O_5
REMARK    4  A    between atoms: O_5  and  C_6
REMARK    5  A    between atoms: C_6  and  C_7
REMARK    6  A    between atoms: C_7  and  C_8
REMARK    7  A    between atoms: C_8  and  C_9
REMARK    8  A    between atoms: C_9  and  N_10
REMARK    9  A    between atoms: N_10  and  C_11
REMARK   10  A    between atoms: N_10  and  C_14
REMARK   11  A    between atoms: C_11  and  C_12
REMARK   12  A    between atoms: C_12  and  O_13
REMARK   13  A    between atoms: C_14  and  C_15
REMARK   14  A    between atoms: C_15  and  O_16
REMARK   15  A    between atoms: C_18  and  O_19
REMARK   16  A    between atoms: C_24  and  C_25
REMARK                            x       y       z     vdW  Elec       q    Type
REMARK                         _______ _______ _______ _____ _____    ______ ____
ROOT
ATOM      1  C   UNL     1       3.111   6.633  18.704  0.00  0.00    +0.000 A 
ATOM      2  C   UNL     1       2.314   6.688  19.862  0.00  0.00    +0.000 A 
ATOM      3  C   UNL     1       1.920   5.504  20.494  0.00  0.00    +0.000 A 
ATOM      4  C   UNL     1       2.309   4.266  19.980  0.00  0.00    +0.000 A 
ATOM      5  C   UNL     1       3.101   4.196  18.829  0.00  0.00    +0.000 A 
ATOM      6  C   UNL     1       3.514   2.911  18.228  0.00  0.00    +0.000 A 
ATOM      7  O   UNL     1       3.234   1.807  18.679  0.00  0.00    +0.000 OA
ATOM      8  C   UNL     1       4.317   2.985  17.001  0.00  0.00    +0.000 A 
ATOM      9  C   UNL     1       4.671   4.175  16.505  0.00  0.00    +0.000 A 
ATOM     10  O   UNL     1       4.288   5.380  17.065  0.00  0.00    +0.000 OA
ATOM     11  C   UNL     1       3.500   5.374  18.199  0.00  0.00    +0.000 A 
ENDROOT
BRANCH   9  12
ATOM     12  C   UNL     1       5.495   4.295  15.281  0.00  0.00    +0.000 A 
ATOM     13  C   UNL     1       5.119   3.635  14.101  0.00  0.00    +0.000 A 
ATOM     14  C   UNL     1       5.898   3.731  12.943  0.00  0.00    +0.000 A 
ATOM     15  C   UNL     1       7.062   4.496  12.945  0.00  0.00    +0.000 A 
ATOM     16  C   UNL     1       7.442   5.174  14.100  0.00  0.00    +0.000 A 
ATOM     17  C   UNL     1       6.660   5.081  15.256  0.00  0.00    +0.000 A 
ENDBRANCH   9  12
BRANCH   1  19
ATOM     18  C   UNL     1       2.528   8.647  17.529  0.00  0.00    +0.000 C 
ATOM     19  O   UNL     1       3.512   7.708  17.946  0.00  0.00    +0.000 OA
ENDBRANCH   1  19
BRANCH   4  20
ATOM     20  O   UNL     1       1.885   3.132  20.611  0.00  0.00    +0.000 OA
ATOM     21  H   UNL     1       1.600   3.322  21.517  0.00  0.00    +0.000 HD
ENDBRANCH   4  20
BRANCH   2  22
ATOM     22  O   UNL     1       1.844   7.905  20.251  0.00  0.00    +0.000 OA
BRANCH  22  23
ATOM     23  C   UNL     1       0.944   7.994  21.353  0.00  0.00    +0.000 C 
BRANCH  23  24
ATOM     24  C   UNL     1       0.950   9.459  21.794  0.00  0.00    +0.000 C 
BRANCH  24  25
ATOM     25  C   UNL     1      -0.308  10.170  21.278  0.00  0.00    +0.000 C 
BRANCH  25  26
ATOM     26  C   UNL     1      -0.312  10.419  19.765  0.00  0.00    +0.000 C 
BRANCH  26  27
ATOM     27  N   UNL     1      -0.789  11.746  19.296  0.00  0.00    +0.000 NA
BRANCH  27  28
ATOM     28  C   UNL     1       0.365  12.684  19.157  0.00  0.00    +0.000 C 
BRANCH  28  29
ATOM     29  C   UNL     1       1.693  12.069  18.674  0.00  0.00    +0.000 C 
BRANCH  29  30
ATOM     30  O   UNL     1       2.166  12.722  17.502  0.00  0.00    +0.000 OA
ATOM     31  H   UNL     1       1.795  12.224  16.751  0.00  0.00    +0.000 HD
ENDBRANCH  29  30
ENDBRANCH  28  29
ENDBRANCH  27  28
BRANCH  27  32
ATOM     32  C   UNL     1      -1.468  11.585  17.977  0.00  0.00    +0.000 C 
BRANCH  32  33
ATOM     33  C   UNL     1      -1.595  10.129  17.491  0.00  0.00    +0.000 C 
BRANCH  33  34
ATOM     34  O   UNL     1      -2.348  10.070  16.284  0.00  0.00    +0.000 OA
ATOM     35  H   UNL     1      -1.882   9.428  15.715  0.00  0.00    +0.000 HD
ENDBRANCH  33  34
ENDBRANCH  32  33
ENDBRANCH  27  32
ENDBRANCH  26  27
ENDBRANCH  25  26
ENDBRANCH  24  25
ENDBRANCH  23  24
ENDBRANCH  22  23
ENDBRANCH   2  22
TORSDOF 15
ENDMDL
MODEL 6
REMARK VINA RESULT:      -6.3      0.829      1.742
REMARK  Name = 
REMARK  16 active torsions:
REMARK  status: ('A' for Active; 'I' for Inactive)
REMARK    1  A    between atoms: C_1  and  O_2
REMARK    2  A    between atoms: O_2  and  C_3
REMARK    3  A    between atoms: C_4  and  O_5
REMARK    4  A    between atoms: O_5  and  C_6
REMARK    5  A    between atoms: C_6  and  C_7
REMARK    6  A    between atoms: C_7  and  C_8
REMARK    7  A    between atoms: C_8  and  C_9
REMARK    8  A    between atoms: C_9  and  N_10
REMARK    9  A    between atoms: N_10  and  C_11
REMARK   10  A    between atoms: N_10  and  C_14
REMARK   11  A    between atoms: C_11  and  C_12
REMARK   12  A    between atoms: C_12  and  O_13
REMARK   13  A    between atoms: C_14  and  C_15
REMARK   14  A    between atoms: C_15  and  O_16
REMARK   15  A    between atoms: C_18  and  O_19
REMARK   16  A    between atoms: C_24  and  C_25
REMARK                            x       y       z     vdW  Elec       q    Type
REMARK                         _______ _______ _______ _____ _____    ______ ____
ROOT
ATOM      1  C   UNL     1       2.704   6.924  19.142  0.00  0.00    +0.000 A 
ATOM      2  C   UNL     1       1.851   7.021  20.257  0.00  0.00    +0.000 A 
ATOM      3  C   UNL     1       1.455   5.863  20.935  0.00  0.00    +0.000 A 
ATOM      4  C   UNL     1       1.896   4.609  20.508  0.00  0.00    +0.000 A 
ATOM      5  C   UNL     1       2.743   4.497  19.401  0.00  0.00    +0.000 A 
ATOM      6  C   UNL     1       3.213   3.193  18.892  0.00  0.00    +0.000 A 
ATOM      7  O   UNL     1       2.937   2.108  19.389  0.00  0.00    +0.000 OA
ATOM      8  C   UNL     1       4.072   3.220  17.700  0.00  0.00    +0.000 A 
ATOM      9  C   UNL     1       4.421   4.391  17.157  0.00  0.00    +0.000 A 
ATOM     10  O   UNL     1       3.985   5.615  17.631  0.00  0.00    +0.000 OA
ATOM     11  C   UNL     1       3.145   5.650  18.727  0.00  0.00    +0.000 A 
ENDROOT
BRANCH   9  12
ATOM     12  C   UNL     1       5.301   4.465  15.967  0.00  0.00    +0.000 A 
ATOM     13  C   UNL     1       6.551   5.098  16.044  0.00  0.00    +0.000 A 
ATOM     14  C   UNL     1       7.383   5.186  14.924  0.00  0.00    +0.000 A 
ATOM     15  C   UNL     1       6.981   4.634  13.710  0.00  0.00    +0.000 A 
ATOM     16  C   UNL     1       5.753   3.985  13.617  0.00  0.00    +0.000 A 
ATOM     17  C   UNL     1       4.923   3.894  14.740  0.00  0.00    +0.000 A 
ENDBRANCH   9  12
BRANCH   1  19
ATOM     18  C   UNL     1       2.125   8.755  17.697  0.00  0.00    +0.000 C 
ATOM     19  O   UNL     1       3.116   7.966  18.346  0.00  0.00    +0.000 OA
ENDBRANCH   1  19
BRANCH   4  20
ATOM     20  O   UNL     1       1.468   3.501  21.181  0.00  0.00    +0.000 OA
ATOM     21  H   UNL     1       1.029   2.877  20.583  0.00  0.00    +0.000 HD
ENDBRANCH   4  20
BRANCH   2  22
ATOM     22  O   UNL     1       1.336   8.244  20.557  0.00  0.00    +0.000 OA
BRANCH  22  23
ATOM     23  C   UNL     1       0.161   8.339  21.359  0.00  0.00    +0.000 C 
BRANCH  23  24
ATOM     24  C   UNL     1       0.466   9.368  22.449  0.00  0.00    +0.000 C 
BRANCH  24  25
ATOM     25  C   UNL     1      -0.481  10.568  22.320  0.00  0.00    +0.000 C 
BRANCH  25  26
ATOM     26  C   UNL     1       0.088  11.730  21.498  0.00  0.00    +0.000 C 
BRANCH  26  27
ATOM     27  N   UNL     1       0.089  11.580  20.019  0.00  0.00    +0.000 NA
BRANCH  27  28
ATOM     28  C   UNL     1      -1.222  12.027  19.459  0.00  0.00    +0.000 C 
BRANCH  28  29
ATOM     29  C   UNL     1      -1.639  11.405  18.112  0.00  0.00    +0.000 C 
BRANCH  29  30
ATOM     30  O   UNL     1      -1.548  12.354  17.056  0.00  0.00    +0.000 OA
ATOM     31  H   UNL     1      -1.941  13.176  17.402  0.00  0.00    +0.000 HD
ENDBRANCH  29  30
ENDBRANCH  28  29
ENDBRANCH  27  28
BRANCH  27  32
ATOM     32  C   UNL     1       1.190  12.406  19.442  0.00  0.00    +0.000 C 
BRANCH  32  33
ATOM     33  C   UNL     1       1.777  13.457  20.403  0.00  0.00    +0.000 C 
BRANCH  33  34
ATOM     34  O   UNL     1       3.136  13.728  20.074  0.00  0.00    +0.000 OA
ATOM     35  H   UNL     1       3.264  14.680  20.250  0.00  0.00    +0.000 HD
ENDBRANCH  33  34
ENDBRANCH  32  33
ENDBRANCH  27  32
ENDBRANCH  26  27
ENDBRANCH  25  26
ENDBRANCH  24  25
ENDBRANCH  23  24
ENDBRANCH  22  23
ENDBRANCH   2  22
TORSDOF 15
ENDMDL
MODEL 7
REMARK VINA RESULT:      -6.3      1.280      1.771
REMARK  Name = 
REMARK  16 active torsions:
REMARK  status: ('A' for Active; 'I' for Inactive)
REMARK    1  A    between atoms: C_1  and  O_2
REMARK    2  A    between atoms: O_2  and  C_3
REMARK    3  A    between atoms: C_4  and  O_5
REMARK    4  A    between atoms: O_5  and  C_6
REMARK    5  A    between atoms: C_6  and  C_7
REMARK    6  A    between atoms: C_7  and  C_8
REMARK    7  A    between atoms: C_8  and  C_9
REMARK    8  A    between atoms: C_9  and  N_10
REMARK    9  A    between atoms: N_10  and  C_11
REMARK   10  A    between atoms: N_10  and  C_14
REMARK   11  A    between atoms: C_11  and  C_12
REMARK   12  A    between atoms: C_12  and  O_13
REMARK   13  A    between atoms: C_14  and  C_15
REMARK   14  A    between atoms: C_15  and  O_16
REMARK   15  A    between atoms: C_18  and  O_19
REMARK   16  A    between atoms: C_24  and  C_25
REMARK                            x       y       z     vdW  Elec       q    Type
REMARK                         _______ _______ _______ _____ _____    ______ ____
ROOT
ATOM      1  C   UNL     1       2.656   6.986  19.200  0.00  0.00    +0.000 A 
ATOM      2  C   UNL     1       1.786   7.096  20.301  0.00  0.00    +0.000 A 
ATOM      3  C   UNL     1       1.374   5.945  20.981  0.00  0.00    +0.000 A 
ATOM      4  C   UNL     1       1.816   4.686  20.571  0.00  0.00    +0.000 A 
ATOM      5  C   UNL     1       2.680   4.561  19.479  0.00  0.00    +0.000 A 
ATOM      6  C   UNL     1       3.153   3.251  18.987  0.00  0.00    +0.000 A 
ATOM      7  O   UNL     1       2.864   2.171  19.489  0.00  0.00    +0.000 OA
ATOM      8  C   UNL     1       4.030   3.265  17.809  0.00  0.00    +0.000 A 
ATOM      9  C   UNL     1       4.393   4.430  17.262  0.00  0.00    +0.000 A 
ATOM     10  O   UNL     1       3.955   5.659  17.720  0.00  0.00    +0.000 OA
ATOM     11  C   UNL     1       3.098   5.707  18.802  0.00  0.00    +0.000 A 
ENDROOT
BRANCH   9  12
ATOM     12  C   UNL     1       5.291   4.491  16.086  0.00  0.00    +0.000 A 
ATOM     13  C   UNL     1       6.556   5.090  16.186  0.00  0.00    +0.000 A 
ATOM     14  C   UNL     1       7.407   5.164  15.079  0.00  0.00    +0.000 A 
ATOM     15  C   UNL     1       7.008   4.634  13.854  0.00  0.00    +0.000 A 
ATOM     16  C   UNL     1       5.765   4.019  13.738  0.00  0.00    +0.000 A 
ATOM     17  C   UNL     1       4.917   3.940  14.848  0.00  0.00    +0.000 A 
ENDBRANCH   9  12
BRANCH   1  19
ATOM     18  C   UNL     1       2.117   8.736  17.643  0.00  0.00    +0.000 C 
ATOM     19  O   UNL     1       3.085   8.020  18.402  0.00  0.00    +0.000 OA
ENDBRANCH   1  19
BRANCH   4  20
ATOM     20  O   UNL     1       1.373   3.585  21.246  0.00  0.00    +0.000 OA
ATOM     21  H   UNL     1       1.794   3.514  22.115  0.00  0.00    +0.000 HD
ENDBRANCH   4  20
BRANCH   2  22
ATOM     22  O   UNL     1       1.271   8.324  20.583  0.00  0.00    +0.000 OA
BRANCH  22  23
ATOM     23  C   UNL     1      -0.002   8.428  21.214  0.00  0.00    +0.000 C 
BRANCH  23  24
ATOM     24  C   UNL     1      -0.168   9.896  21.608  0.00  0.00    +0.000 C 
BRANCH  24  25
ATOM     25  C   UNL     1       0.893  10.754  20.905  0.00  0.00    +0.000 C 
BRANCH  25  26
ATOM     26  C   UNL     1       0.371  11.525  19.689  0.00  0.00    +0.000 C 
BRANCH  26  27
ATOM     27  N   UNL     1      -1.102  11.581  19.501  0.00  0.00    +0.000 NA
BRANCH  27  28
ATOM     28  C   UNL     1      -1.596  12.970  19.745  0.00  0.00    +0.000 C 
BRANCH  28  29
ATOM     29  C   UNL     1      -2.817  13.108  20.676  0.00  0.00    +0.000 C 
BRANCH  29  30
ATOM     30  O   UNL     1      -3.991  13.433  19.941  0.00  0.00    +0.000 OA
ATOM     31  H   UNL     1      -4.302  12.595  19.552  0.00  0.00    +0.000 HD
ENDBRANCH  29  30
ENDBRANCH  28  29
ENDBRANCH  27  28
BRANCH  27  32
ATOM     32  C   UNL     1      -1.435  11.168  18.106  0.00  0.00    +0.000 C 
BRANCH  32  33
ATOM     33  C   UNL     1      -2.917  10.814  17.875  0.00  0.00    +0.000 C 
BRANCH  33  34
ATOM     34  O   UNL     1      -3.596  11.900  17.253  0.00  0.00    +0.000 OA
ATOM     35  H   UNL     1      -4.222  11.492  16.625  0.00  0.00    +0.000 HD
ENDBRANCH  33  34
ENDBRANCH  32  33
ENDBRANCH  27  32
ENDBRANCH  26  27
ENDBRANCH  25  26
ENDBRANCH  24  25
ENDBRANCH  23  24
ENDBRANCH  22  23
ENDBRANCH   2  22
TORSDOF 15
ENDMDL
MODEL 8
REMARK VINA RESULT:      -6.3      3.043     10.296
REMARK  Name = 
REMARK  16 active torsions:
REMARK  status: ('A' for Active; 'I' for Inactive)
REMARK    1  A    between atoms: C_1  and  O_2
REMARK    2  A    between atoms: O_2  and  C_3
REMARK    3  A    between atoms: C_4  and  O_5
REMARK    4  A    between atoms: O_5  and  C_6
REMARK    5  A    between atoms: C_6  and  C_7
REMARK    6  A    between atoms: C_7  and  C_8
REMARK    7  A    between atoms: C_8  and  C_9
REMARK    8  A    between atoms: C_9  and  N_10
REMARK    9  A    between atoms: N_10  and  C_11
REMARK   10  A    between atoms: N_10  and  C_14
REMARK   11  A    between atoms: C_11  and  C_12
REMARK   12  A    between atoms: C_12  and  O_13
REMARK   13  A    between atoms: C_14  and  C_15
REMARK   14  A    between atoms: C_15  and  O_16
REMARK   15  A    between atoms: C_18  and  O_19
REMARK   16  A    between atoms: C_24  and  C_25
REMARK                            x       y       z     vdW  Elec       q    Type
REMARK                         _______ _______ _______ _____ _____    ______ ____
ROOT
ATOM      1  C   UNL     1       0.337  10.375  20.372  0.00  0.00    +0.000 A 
ATOM      2  C   UNL     1       0.863   9.601  19.322  0.00  0.00    +0.000 A 
ATOM      3  C   UNL     1       0.196   9.546  18.094  0.00  0.00    +0.000 A 
ATOM      4  C   UNL     1      -0.994  10.250  17.905  0.00  0.00    +0.000 A 
ATOM      5  C   UNL     1      -1.530  11.023  18.940  0.00  0.00    +0.000 A 
ATOM      6  C   UNL     1      -2.801  11.763  18.800  0.00  0.00    +0.000 A 
ATOM      7  O   UNL     1      -3.483  11.794  17.783  0.00  0.00    +0.000 OA
ATOM      8  C   UNL     1      -3.264  12.508  19.978  0.00  0.00    +0.000 A 
ATOM      9  C   UNL     1      -2.523  12.524  21.091  0.00  0.00    +0.000 A 
ATOM     10  O   UNL     1      -1.331  11.835  21.226  0.00  0.00    +0.000 OA
ATOM     11  C   UNL     1      -0.864  11.086  20.163  0.00  0.00    +0.000 A 
ENDROOT
BRANCH   9  12
ATOM     12  C   UNL     1      -2.943  13.277  22.295  0.00  0.00    +0.000 A 
ATOM     13  C   UNL     1      -2.934  14.680  22.297  0.00  0.00    +0.000 A 
ATOM     14  C   UNL     1      -3.316  15.401  23.432  0.00  0.00    +0.000 A 
ATOM     15  C   UNL     1      -3.720  14.728  24.584  0.00  0.00    +0.000 A 
ATOM     16  C   UNL     1      -3.754  13.337  24.597  0.00  0.00    +0.000 A 
ATOM     17  C   UNL     1      -3.376  12.617  23.458  0.00  0.00    +0.000 A 
ENDBRANCH   9  12
BRANCH   1  19
ATOM     18  C   UNL     1       0.552   9.425  22.569  0.00  0.00    +0.000 C 
ATOM     19  O   UNL     1       0.848  10.467  21.646  0.00  0.00    +0.000 OA
ENDBRANCH   1  19
BRANCH   4  20
ATOM     20  O   UNL     1      -1.629  10.152  16.700  0.00  0.00    +0.000 OA
ATOM     21  H   UNL     1      -1.371  10.875  16.109  0.00  0.00    +0.000 HD
ENDBRANCH   4  20
BRANCH   2  22
ATOM     22  O   UNL     1       1.948   8.824  19.590  0.00  0.00    +0.000 OA
BRANCH  22  23
ATOM     23  C   UNL     1       2.318   7.790  18.680  0.00  0.00    +0.000 C 
BRANCH  23  24
ATOM     24  C   UNL     1       2.514   6.528  19.521  0.00  0.00    +0.000 C 
BRANCH  24  25
ATOM     25  C   UNL     1       2.176   5.283  18.689  0.00  0.00    +0.000 C 
BRANCH  25  26
ATOM     26  C   UNL     1       3.198   4.967  17.591  0.00  0.00    +0.000 C 
BRANCH  26  27
ATOM     27  N   UNL     1       4.439   4.261  18.001  0.00  0.00    +0.000 NA
BRANCH  27  28
ATOM     28  C   UNL     1       4.097   3.050  18.806  0.00  0.00    +0.000 C 
BRANCH  28  29
ATOM     29  C   UNL     1       3.560   1.836  18.022  0.00  0.00    +0.000 C 
BRANCH  29  30
ATOM     30  O   UNL     1       2.179   1.622  18.289  0.00  0.00    +0.000 OA
ATOM     31  H   UNL     1       1.942   0.800  17.821  0.00  0.00    +0.000 HD
ENDBRANCH  29  30
ENDBRANCH  28  29
ENDBRANCH  27  28
BRANCH  27  32
ATOM     32  C   UNL     1       5.199   3.855  16.781  0.00  0.00    +0.000 C 
BRANCH  32  33
ATOM     33  C   UNL     1       6.654   4.355  16.733  0.00  0.00    +0.000 C 
BRANCH  33  34
ATOM     34  O   UNL     1       7.268   4.226  18.011  0.00  0.00    +0.000 OA
ATOM     35  H   UNL     1       8.229   4.231  17.843  0.00  0.00    +0.000 HD
ENDBRANCH  33  34
ENDBRANCH  32  33
ENDBRANCH  27  32
ENDBRANCH  26  27
ENDBRANCH  25  26
ENDBRANCH  24  25
ENDBRANCH  23  24
ENDBRANCH  22  23
ENDBRANCH   2  22
TORSDOF 15
ENDMDL
MODEL 9
REMARK VINA RESULT:      -6.2      2.884     10.264
REMARK  Name = 
REMARK  16 active torsions:
REMARK  status: ('A' for Active; 'I' for Inactive)
REMARK    1  A    between atoms: C_1  and  O_2
REMARK    2  A    between atoms: O_2  and  C_3
REMARK    3  A    between atoms: C_4  and  O_5
REMARK    4  A    between atoms: O_5  and  C_6
REMARK    5  A    between atoms: C_6  and  C_7
REMARK    6  A    between atoms: C_7  and  C_8
REMARK    7  A    between atoms: C_8  and  C_9
REMARK    8  A    between atoms: C_9  and  N_10
REMARK    9  A    between atoms: N_10  and  C_11
REMARK   10  A    between atoms: N_10  and  C_14
REMARK   11  A    between atoms: C_11  and  C_12
REMARK   12  A    between atoms: C_12  and  O_13
REMARK   13  A    between atoms: C_14  and  C_15
REMARK   14  A    between atoms: C_15  and  O_16
REMARK   15  A    between atoms: C_18  and  O_19
REMARK   16  A    between atoms: C_24  and  C_25
REMARK                            x       y       z     vdW  Elec       q    Type
REMARK                         _______ _______ _______ _____ _____    ______ ____
ROOT
ATOM      1  C   UNL     1       0.093  10.104  20.245  0.00  0.00    +0.000 A 
ATOM      2  C   UNL     1       1.175   9.916  19.365  0.00  0.00    +0.000 A 
ATOM      3  C   UNL     1       1.622  10.980  18.573  0.00  0.00    +0.000 A 
ATOM      4  C   UNL     1       0.999  12.226  18.647  0.00  0.00    +0.000 A 
ATOM      5  C   UNL     1      -0.078  12.427  19.517  0.00  0.00    +0.000 A 
ATOM      6  C   UNL     1      -0.791  13.717  19.611  0.00  0.00    +0.000 A 
ATOM      7  O   UNL     1      -0.503  14.723  18.972  0.00  0.00    +0.000 OA
ATOM      8  C   UNL     1      -1.925  13.779  20.542  0.00  0.00    +0.000 A 
ATOM      9  C   UNL     1      -2.240  12.710  21.280  0.00  0.00    +0.000 A 
ATOM     10  O   UNL     1      -1.575  11.501  21.198  0.00  0.00    +0.000 OA
ATOM     11  C   UNL     1      -0.523  11.372  20.312  0.00  0.00    +0.000 A 
ENDROOT
BRANCH   9  12
ATOM     12  C   UNL     1      -3.364  12.734  22.245  0.00  0.00    +0.000 A 
ATOM     13  C   UNL     1      -4.667  13.023  21.813  0.00  0.00    +0.000 A 
ATOM     14  C   UNL     1      -5.733  13.061  22.718  0.00  0.00    +0.000 A 
ATOM     15  C   UNL     1      -5.513  12.803  24.069  0.00  0.00    +0.000 A 
ATOM     16  C   UNL     1      -4.231  12.495  24.515  0.00  0.00    +0.000 A 
ATOM     17  C   UNL     1      -3.166  12.453  23.608  0.00  0.00    +0.000 A 
ENDBRANCH   9  12
BRANCH   1  19
ATOM     18  C   UNL     1       0.026   8.920  22.335  0.00  0.00    +0.000 C 
ATOM     19  O   UNL     1      -0.491   9.136  21.027  0.00  0.00    +0.000 OA
ENDBRANCH   1  19
BRANCH   4  20
ATOM     20  O   UNL     1       1.449  13.232  17.842  0.00  0.00    +0.000 OA
ATOM     21  H   UNL     1       0.718  13.649  17.362  0.00  0.00    +0.000 HD
ENDBRANCH   4  20
BRANCH   2  22
ATOM     22  O   UNL     1       1.666   8.655  19.223  0.00  0.00    +0.000 OA
BRANCH  22  23
ATOM     23  C   UNL     1       1.918   8.138  17.919  0.00  0.00    +0.000 C 
BRANCH  23  24
ATOM     24  C   UNL     1       3.363   7.636  17.928  0.00  0.00    +0.000 C 
BRANCH  24  25
ATOM     25  C   UNL     1       3.393   6.114  17.735  0.00  0.00    +0.000 C 
BRANCH  25  26
ATOM     26  C   UNL     1       2.861   5.319  18.933  0.00  0.00    +0.000 C 
BRANCH  26  27
ATOM     27  N   UNL     1       1.701   4.422  18.691  0.00  0.00    +0.000 NA
BRANCH  27  28
ATOM     28  C   UNL     1       2.097   3.310  17.776  0.00  0.00    +0.000 C 
BRANCH  28  29
ATOM     29  C   UNL     1       3.381   2.542  18.146  0.00  0.00    +0.000 C 
BRANCH  29  30
ATOM     30  O   UNL     1       3.095   1.188  18.475  0.00  0.00    +0.000 OA
ATOM     31  H   UNL     1       3.452   0.655  17.741  0.00  0.00    +0.000 HD
ENDBRANCH  29  30
ENDBRANCH  28  29
ENDBRANCH  27  28
BRANCH  27  32
ATOM     32  C   UNL     1       1.236   3.860  19.993  0.00  0.00    +0.000 C 
BRANCH  32  33
ATOM     33  C   UNL     1       2.116   4.225  21.203  0.00  0.00    +0.000 C 
BRANCH  33  34
ATOM     34  O   UNL     1       2.212   3.123  22.099  0.00  0.00    +0.000 OA
ATOM     35  H   UNL     1       3.002   3.297  22.646  0.00  0.00    +0.000 HD
ENDBRANCH  33  34
ENDBRANCH  32  33
ENDBRANCH  27  32
ENDBRANCH  26  27
ENDBRANCH  25  26
ENDBRANCH  24  25
ENDBRANCH  23  24
ENDBRANCH  22  23
ENDBRANCH   2  22
TORSDOF 15
ENDMDL
