MODEL 1
REMARK VINA RESULT:      -6.7      0.000      0.000
REMARK  Name = 
REMARK  13 active torsions:
REMARK  status: ('A' for Active; 'I' for Inactive)
REMARK    1  A    between atoms: C_1  and  C_2
REMARK    2  A    between atoms: C_2  and  C_3
REMARK    3  A    between atoms: C_3  and  C_4
REMARK    4  A    between atoms: C_4  and  O_5
REMARK    5  A    between atoms: O_5  and  C_6
REMARK    6  A    between atoms: C_6  and  C_7
REMARK    7  A    between atoms: N_9  and  C_10
REMARK    8  A    between atoms: C_10  and  C_11
REMARK    9  A    between atoms: C_11  and  C_12
REMARK   10  A    between atoms: C_12  and  C_13
REMARK   11  A    between atoms: C_18  and  O_19
REMARK   12  A    between atoms: O_19  and  C_20
REMARK   13  A    between atoms: C_23  and  C_24
REMARK                            x       y       z     vdW  Elec       q    Type
REMARK                         _______ _______ _______ _____ _____    ______ ____
ROOT
ATOM      1  C   UNL     1       1.086   9.171  18.990  0.00  0.00    +0.000 C 
ATOM      2  C   UNL     1       0.692  10.308  18.023  0.00  0.00    +0.000 C 
ATOM      3  N   UNL     1      -0.319  11.268  18.557  0.00  0.00    +0.000 NA
ATOM      4  S   UNL     1       0.325  12.306  19.772  0.00  0.00    +0.000 S 
ATOM      5  O   UNL     1      -0.540  13.463  19.840  0.00  0.00    +0.000 OA
ATOM      6  O   UNL     1       1.741  12.495  19.531  0.00  0.00    +0.000 OA
ATOM      7  C   UNL     1       0.137  11.257  21.186  0.00  0.00    +0.000 A 
ATOM      8  C   UNL     1      -0.794  11.566  22.194  0.00  0.00    +0.000 A 
ATOM      9  C   UNL     1      -1.090  10.593  23.154  0.00  0.00    +0.000 A 
ATOM     10  C   UNL     1      -0.394   9.380  23.173  0.00  0.00    +0.000 A 
ATOM     11  C   UNL     1       0.564   9.103  22.195  0.00  0.00    +0.000 A 
ATOM     12  C   UNL     1       0.798  10.021  21.171  0.00  0.00    +0.000 A 
ATOM     13  O   UNL     1       1.705   9.674  20.200  0.00  0.00    +0.000 OA
ENDROOT
BRANCH   1  14
ATOM     14  C   UNL     1       2.113   8.298  18.232  0.00  0.00    +0.000 C 
BRANCH  14  15
ATOM     15  O   UNL     1       2.823   7.435  19.124  0.00  0.00    +0.000 OA
BRANCH  15  16
ATOM     16  C   UNL     1       2.385   6.077  18.994  0.00  0.00    +0.000 C 
BRANCH  16  17
ATOM     17  C   UNL     1       1.863   5.613  20.349  0.00  0.00    +0.000 C 
BRANCH  17  19
ATOM     18  C   UNL     1       1.321   3.274  21.098  0.00  0.00    +0.000 C 
ATOM     19  C   UNL     1       2.432   4.258  20.763  0.00  0.00    +0.000 C 
ENDBRANCH  17  19
ENDBRANCH  16  17
ENDBRANCH  15  16
ENDBRANCH  14  15
ENDBRANCH   1  14
BRANCH   3  20
ATOM     20  C   UNL     1      -1.665  10.633  18.773  0.00  0.00    +0.000 C 
BRANCH  20  21
ATOM     21  C   UNL     1      -2.258   9.911  17.569  0.00  0.00    +0.000 C 
BRANCH  21  22
ATOM     22  C   UNL     1      -2.993  10.872  16.630  0.00  0.00    +0.000 C 
ATOM     23  C   UNL     1      -2.881  10.412  15.183  0.00  0.00    +0.000 C 
ENDBRANCH  21  22
ENDBRANCH  20  21
ENDBRANCH   3  20
BRANCH   8  24
ATOM     24  O   UNL     1      -1.479  12.754  22.088  0.00  0.00    +0.000 OA
BRANCH  24  25
ATOM     25  C   UNL     1      -2.813  12.872  22.339  0.00  0.00    +0.000 A 
ATOM     26  C   UNL     1      -3.804  12.663  21.387  0.00  0.00    +0.000 A 
ATOM     27  C   UNL     1      -5.145  12.812  21.746  0.00  0.00    +0.000 A 
ATOM     28  C   UNL     1      -5.509  13.132  23.054  0.00  0.00    +0.000 A 
ATOM     29  C   UNL     1      -6.950  13.318  23.422  0.00  0.00    +0.000 C 
ATOM     30  C   UNL     1      -4.510  13.252  24.031  0.00  0.00    +0.000 A 
ATOM     31  C   UNL     1      -3.175  13.114  23.670  0.00  0.00    +0.000 A 
ENDBRANCH  24  25
ENDBRANCH   8  24
TORSDOF 10
ENDMDL
MODEL 2
REMARK VINA RESULT:      -6.7      0.925      1.386
REMARK  Name = 
REMARK  13 active torsions:
REMARK  status: ('A' for Active; 'I' for Inactive)
REMARK    1  A    between atoms: C_1  and  C_2
REMARK    2  A    between atoms: C_2  and  C_3
REMARK    3  A    between atoms: C_3  and  C_4
REMARK    4  A    between atoms: C_4  and  O_5
REMARK    5  A    between atoms: O_5  and  C_6
REMARK    6  A    between atoms: C_6  and  C_7
REMARK    7  A    between atoms: N_9  and  C_10
REMARK    8  A    between atoms: C_10  and  C_11
REMARK    9  A    between atoms: C_11  and  C_12
REMARK   10  A    between atoms: C_12  and  C_13
REMARK   11  A    between atoms: C_18  and  O_19
REMARK   12  A    between atoms: O_19  and  C_20
REMARK   13  A    between atoms: C_23  and  C_24
REMARK                            x       y       z     vdW  Elec       q    Type
REMARK                         _______ _______ _______ _____ _____    ______ ____
ROOT
ATOM      1  C   UNL     1       1.193   8.756  19.181  0.00  0.00    +0.000 C 
ATOM      2  C   UNL     1       0.796   9.715  18.039  0.00  0.00    +0.000 C 
ATOM      3  N   UNL     1      -0.243  10.726  18.397  0.00  0.00    +0.000 NA
ATOM      4  S   UNL     1       0.359  11.959  19.441  0.00  0.00    +0.000 S 
ATOM      5  O   UNL     1      -0.530  13.093  19.310  0.00  0.00    +0.000 OA
ATOM      6  O   UNL     1       1.775  12.138  19.195  0.00  0.00    +0.000 OA
ATOM      7  C   UNL     1       0.163  11.144  21.001  0.00  0.00    +0.000 A 
ATOM      8  C   UNL     1      -0.793  11.589  21.931  0.00  0.00    +0.000 A 
ATOM      9  C   UNL     1      -1.089  10.775  23.030  0.00  0.00    +0.000 A 
ATOM     10  C   UNL     1      -0.370   9.596  23.253  0.00  0.00    +0.000 A 
ATOM     11  C   UNL     1       0.612   9.188  22.347  0.00  0.00    +0.000 A 
ATOM     12  C   UNL     1       0.848   9.936  21.194  0.00  0.00    +0.000 A 
ATOM     13  O   UNL     1       1.779   9.458  20.305  0.00  0.00    +0.000 OA
ENDROOT
BRANCH   1  14
ATOM     14  C   UNL     1       2.251   7.796  18.588  0.00  0.00    +0.000 C 
BRANCH  14  15
ATOM     15  O   UNL     1       2.918   7.057  19.615  0.00  0.00    +0.000 OA
BRANCH  15  16
ATOM     16  C   UNL     1       2.786   5.646  19.409  0.00  0.00    +0.000 C 
BRANCH  16  17
ATOM     17  C   UNL     1       2.167   5.421  18.034  0.00  0.00    +0.000 C 
BRANCH  17  19
ATOM     18  C   UNL     1       1.180   3.153  18.497  0.00  0.00    +0.000 C 
ATOM     19  C   UNL     1       2.150   3.947  17.633  0.00  0.00    +0.000 C 
ENDBRANCH  17  19
ENDBRANCH  16  17
ENDBRANCH  15  16
ENDBRANCH  14  15
ENDBRANCH   1  14
BRANCH   3  20
ATOM     20  C   UNL     1      -1.581  10.105  18.690  0.00  0.00    +0.000 C 
BRANCH  20  21
ATOM     21  C   UNL     1      -2.454   9.808  17.476  0.00  0.00    +0.000 C 
BRANCH  21  22
ATOM     22  C   UNL     1      -2.535  11.005  16.524  0.00  0.00    +0.000 C 
ATOM     23  C   UNL     1      -2.922  10.559  15.121  0.00  0.00    +0.000 C 
ENDBRANCH  21  22
ENDBRANCH  20  21
ENDBRANCH   3  20
BRANCH   8  24
ATOM     24  O   UNL     1      -1.498  12.730  21.626  0.00  0.00    +0.000 OA
BRANCH  24  25
ATOM     25  C   UNL     1      -2.856  12.812  21.706  0.00  0.00    +0.000 A 
ATOM     26  C   UNL     1      -3.547  13.147  22.865  0.00  0.00    +0.000 A 
ATOM     27  C   UNL     1      -4.941  13.203  22.841  0.00  0.00    +0.000 A 
ATOM     28  C   UNL     1      -5.653  12.962  21.666  0.00  0.00    +0.000 A 
ATOM     29  C   UNL     1      -7.152  12.995  21.660  0.00  0.00    +0.000 C 
ATOM     30  C   UNL     1      -4.947  12.714  20.479  0.00  0.00    +0.000 A 
ATOM     31  C   UNL     1      -3.559  12.649  20.506  0.00  0.00    +0.000 A 
ENDBRANCH  24  25
ENDBRANCH   8  24
TORSDOF 10
ENDMDL
MODEL 3
REMARK VINA RESULT:      -6.6      1.521      1.867
REMARK  Name = 
REMARK  13 active torsions:
REMARK  status: ('A' for Active; 'I' for Inactive)
REMARK    1  A    between atoms: C_1  and  C_2
REMARK    2  A    between atoms: C_2  and  C_3
REMARK    3  A    between atoms: C_3  and  C_4
REMARK    4  A    between atoms: C_4  and  O_5
REMARK    5  A    between atoms: O_5  and  C_6
REMARK    6  A    between atoms: C_6  and  C_7
REMARK    7  A    between atoms: N_9  and  C_10
REMARK    8  A    between atoms: C_10  and  C_11
REMARK    9  A    between atoms: C_11  and  C_12
REMARK   10  A    between atoms: C_12  and  C_13
REMARK   11  A    between atoms: C_18  and  O_19
REMARK   12  A    between atoms: O_19  and  C_20
REMARK   13  A    between atoms: C_23  and  C_24
REMARK                            x       y       z     vdW  Elec       q    Type
REMARK                         _______ _______ _______ _____ _____    ______ ____
ROOT
ATOM      1  C   UNL     1       0.905   9.129  19.603  0.00  0.00    +0.000 C 
ATOM      2  C   UNL     1       0.670   9.860  18.264  0.00  0.00    +0.000 C 
ATOM      3  N   UNL     1      -0.404  10.898  18.293  0.00  0.00    +0.000 NA
ATOM      4  S   UNL     1       0.058  12.309  19.168  0.00  0.00    +0.000 S 
ATOM      5  O   UNL     1      -0.801  13.383  18.719  0.00  0.00    +0.000 OA
ATOM      6  O   UNL     1       1.495  12.469  19.085  0.00  0.00    +0.000 OA
ATOM      7  C   UNL     1      -0.349  11.783  20.809  0.00  0.00    +0.000 A 
ATOM      8  C   UNL     1      -1.419  12.368  21.510  0.00  0.00    +0.000 A 
ATOM      9  C   UNL     1      -1.863  11.758  22.688  0.00  0.00    +0.000 A 
ATOM     10  C   UNL     1      -1.185  10.653  23.213  0.00  0.00    +0.000 A 
ATOM     11  C   UNL     1      -0.092  10.108  22.534  0.00  0.00    +0.000 A 
ATOM     12  C   UNL     1       0.299  10.643  21.306  0.00  0.00    +0.000 A 
ATOM     13  O   UNL     1       1.339  10.032  20.649  0.00  0.00    +0.000 OA
ENDROOT
BRANCH   1  14
ATOM     14  C   UNL     1       2.029   8.100  19.338  0.00  0.00    +0.000 C 
BRANCH  14  15
ATOM     15  O   UNL     1       2.700   8.367  18.103  0.00  0.00    +0.000 OA
BRANCH  15  16
ATOM     16  C   UNL     1       3.488   7.246  17.686  0.00  0.00    +0.000 C 
BRANCH  16  17
ATOM     17  C   UNL     1       3.106   6.048  18.548  0.00  0.00    +0.000 C 
BRANCH  17  19
ATOM     18  C   UNL     1       1.557   4.229  17.761  0.00  0.00    +0.000 C 
ATOM     19  C   UNL     1       2.983   4.759  17.738  0.00  0.00    +0.000 C 
ENDBRANCH  17  19
ENDBRANCH  16  17
ENDBRANCH  15  16
ENDBRANCH  14  15
ENDBRANCH   1  14
BRANCH   3  20
ATOM     20  C   UNL     1      -1.771  10.312  18.513  0.00  0.00    +0.000 C 
BRANCH  20  21
ATOM     21  C   UNL     1      -2.480   9.796  17.266  0.00  0.00    +0.000 C 
BRANCH  21  22
ATOM     22  C   UNL     1      -2.637  10.888  16.204  0.00  0.00    +0.000 C 
ATOM     23  C   UNL     1      -2.992  10.286  14.852  0.00  0.00    +0.000 C 
ENDBRANCH  21  22
ENDBRANCH  20  21
ENDBRANCH   3  20
BRANCH   8  24
ATOM     24  O   UNL     1      -2.072  13.421  20.914  0.00  0.00    +0.000 OA
BRANCH  24  25
ATOM     25  C   UNL     1      -3.429  13.528  20.866  0.00  0.00    +0.000 A 
ATOM     26  C   UNL     1      -4.157  14.493  21.552  0.00  0.00    +0.000 A 
ATOM     27  C   UNL     1      -5.548  14.516  21.437  0.00  0.00    +0.000 A 
ATOM     28  C   UNL     1      -6.218  13.607  20.618  0.00  0.00    +0.000 A 
ATOM     29  C   UNL     1      -7.715  13.621  20.526  0.00  0.00    +0.000 C 
ATOM     30  C   UNL     1      -5.473  12.693  19.859  0.00  0.00    +0.000 A 
ATOM     31  C   UNL     1      -4.089  12.665  19.981  0.00  0.00    +0.000 A 
ENDBRANCH  24  25
ENDBRANCH   8  24
TORSDOF 10
ENDMDL
MODEL 4
REMARK VINA RESULT:      -6.6      1.172      1.947
REMARK  Name = 
REMARK  13 active torsions:
REMARK  status: ('A' for Active; 'I' for Inactive)
REMARK    1  A    between atoms: C_1  and  C_2
REMARK    2  A    between atoms: C_2  and  C_3
REMARK    3  A    between atoms: C_3  and  C_4
REMARK    4  A    between atoms: C_4  and  O_5
REMARK    5  A    between atoms: O_5  and  C_6
REMARK    6  A    between atoms: C_6  and  C_7
REMARK    7  A    between atoms: N_9  and  C_10
REMARK    8  A    between atoms: C_10  and  C_11
REMARK    9  A    between atoms: C_11  and  C_12
REMARK   10  A    between atoms: C_12  and  C_13
REMARK   11  A    between atoms: C_18  and  O_19
REMARK   12  A    between atoms: O_19  and  C_20
REMARK   13  A    between atoms: C_23  and  C_24
REMARK                            x       y       z     vdW  Elec       q    Type
REMARK                         _______ _______ _______ _____ _____    ______ ____
ROOT
ATOM      1  C   UNL     1       0.944   9.476  18.795  0.00  0.00    +0.000 C 
ATOM      2  C   UNL     1       0.537  10.715  17.969  0.00  0.00    +0.000 C 
ATOM      3  N   UNL     1      -0.436  11.628  18.641  0.00  0.00    +0.000 NA
ATOM      4  S   UNL     1       0.274  12.521  19.933  0.00  0.00    +0.000 S 
ATOM      5  O   UNL     1      -0.566  13.677  20.157  0.00  0.00    +0.000 OA
ATOM      6  O   UNL     1       1.683  12.713  19.659  0.00  0.00    +0.000 OA
ATOM      7  C   UNL     1       0.117  11.331  21.234  0.00  0.00    +0.000 A 
ATOM      8  C   UNL     1      -0.770  11.545  22.305  0.00  0.00    +0.000 A 
ATOM      9  C   UNL     1      -1.048  10.479  23.168  0.00  0.00    +0.000 A 
ATOM     10  C   UNL     1      -0.375   9.261  23.030  0.00  0.00    +0.000 A 
ATOM     11  C   UNL     1       0.541   9.075  21.992  0.00  0.00    +0.000 A 
ATOM     12  C   UNL     1       0.754  10.093  21.063  0.00  0.00    +0.000 A 
ATOM     13  O   UNL     1       1.617   9.838  20.026  0.00  0.00    +0.000 OA
ENDROOT
BRANCH   1  14
ATOM     14  C   UNL     1       1.925   8.674  17.909  0.00  0.00    +0.000 C 
BRANCH  14  15
ATOM     15  O   UNL     1       2.694   7.751  18.686  0.00  0.00    +0.000 OA
BRANCH  15  16
ATOM     16  C   UNL     1       2.597   6.422  18.162  0.00  0.00    +0.000 C 
BRANCH  16  17
ATOM     17  C   UNL     1       4.009   5.877  17.978  0.00  0.00    +0.000 C 
BRANCH  17  19
ATOM     18  C   UNL     1       6.156   6.910  17.171  0.00  0.00    +0.000 C 
ATOM     19  C   UNL     1       4.734   6.518  16.796  0.00  0.00    +0.000 C 
ENDBRANCH  17  19
ENDBRANCH  16  17
ENDBRANCH  15  16
ENDBRANCH  14  15
ENDBRANCH   1  14
BRANCH   3  20
ATOM     20  C   UNL     1      -1.785  10.995  18.841  0.00  0.00    +0.000 C 
BRANCH  20  21
ATOM     21  C   UNL     1      -2.763  11.139  17.681  0.00  0.00    +0.000 C 
BRANCH  21  22
ATOM     22  C   UNL     1      -2.785   9.892  16.792  0.00  0.00    +0.000 C 
ATOM     23  C   UNL     1      -2.869  10.273  15.321  0.00  0.00    +0.000 C 
ENDBRANCH  21  22
ENDBRANCH  20  21
ENDBRANCH   3  20
BRANCH   8  24
ATOM     24  O   UNL     1      -1.435  12.747  22.352  0.00  0.00    +0.000 OA
BRANCH  24  25
ATOM     25  C   UNL     1      -2.754  12.858  22.673  0.00  0.00    +0.000 A 
ATOM     26  C   UNL     1      -3.220  13.206  23.935  0.00  0.00    +0.000 A 
ATOM     27  C   UNL     1      -4.595  13.291  24.162  0.00  0.00    +0.000 A 
ATOM     28  C   UNL     1      -5.510  13.068  23.133  0.00  0.00    +0.000 A 
ATOM     29  C   UNL     1      -6.985  13.134  23.394  0.00  0.00    +0.000 C 
ATOM     30  C   UNL     1      -5.033  12.807  21.840  0.00  0.00    +0.000 A 
ATOM     31  C   UNL     1      -3.664  12.712  21.617  0.00  0.00    +0.000 A 
ENDBRANCH  24  25
ENDBRANCH   8  24
TORSDOF 10
ENDMDL
MODEL 5
REMARK VINA RESULT:      -6.5      0.858      1.403
REMARK  Name = 
REMARK  13 active torsions:
REMARK  status: ('A' for Active; 'I' for Inactive)
REMARK    1  A    between atoms: C_1  and  C_2
REMARK    2  A    between atoms: C_2  and  C_3
REMARK    3  A    between atoms: C_3  and  C_4
REMARK    4  A    between atoms: C_4  and  O_5
REMARK    5  A    between atoms: O_5  and  C_6
REMARK    6  A    between atoms: C_6  and  C_7
REMARK    7  A    between atoms: N_9  and  C_10
REMARK    8  A    between atoms: C_10  and  C_11
REMARK    9  A    between atoms: C_11  and  C_12
REMARK   10  A    between atoms: C_12  and  C_13
REMARK   11  A    between atoms: C_18  and  O_19
REMARK   12  A    between atoms: O_19  and  C_20
REMARK   13  A    between atoms: C_23  and  C_24
REMARK                            x       y       z     vdW  Elec       q    Type
REMARK                         _______ _______ _______ _____ _____    ______ ____
ROOT
ATOM      1  C   UNL     1       0.879   9.417  18.906  0.00  0.00    +0.000 C 
ATOM      2  C   UNL     1       0.338  10.513  17.963  0.00  0.00    +0.000 C 
ATOM      3  N   UNL     1      -0.720  11.386  18.554  0.00  0.00    +0.000 NA
ATOM      4  S   UNL     1      -0.099  12.480  19.732  0.00  0.00    +0.000 S 
ATOM      5  O   UNL     1      -1.054  13.560  19.850  0.00  0.00    +0.000 OA
ATOM      6  O   UNL     1       1.280  12.787  19.414  0.00  0.00    +0.000 OA
ATOM      7  C   UNL     1      -0.119  11.424  21.153  0.00  0.00    +0.000 A 
ATOM      8  C   UNL     1      -1.016  11.656  22.212  0.00  0.00    +0.000 A 
ATOM      9  C   UNL     1      -1.175  10.665  23.186  0.00  0.00    +0.000 A 
ATOM     10  C   UNL     1      -0.378   9.515  23.164  0.00  0.00    +0.000 A 
ATOM     11  C   UNL     1       0.545   9.317  22.135  0.00  0.00    +0.000 A 
ATOM     12  C   UNL     1       0.642  10.248  21.100  0.00  0.00    +0.000 A 
ATOM     13  O   UNL     1       1.520   9.975  20.080  0.00  0.00    +0.000 OA
ENDROOT
BRANCH   1  14
ATOM     14  C   UNL     1       1.933   8.632  18.091  0.00  0.00    +0.000 C 
BRANCH  14  15
ATOM     15  O   UNL     1       2.647   7.707  18.915  0.00  0.00    +0.000 OA
BRANCH  15  16
ATOM     16  C   UNL     1       3.136   6.599  18.151  0.00  0.00    +0.000 C 
BRANCH  16  17
ATOM     17  C   UNL     1       3.220   5.386  19.071  0.00  0.00    +0.000 C 
BRANCH  17  19
ATOM     18  C   UNL     1       1.519   4.097  17.740  0.00  0.00    +0.000 C 
ATOM     19  C   UNL     1       1.914   4.597  19.122  0.00  0.00    +0.000 C 
ENDBRANCH  17  19
ENDBRANCH  16  17
ENDBRANCH  15  16
ENDBRANCH  14  15
ENDBRANCH   1  14
BRANCH   3  20
ATOM     20  C   UNL     1      -1.993  10.641  18.843  0.00  0.00    +0.000 C 
BRANCH  20  21
ATOM     21  C   UNL     1      -2.772  10.160  17.624  0.00  0.00    +0.000 C 
BRANCH  21  22
ATOM     22  C   UNL     1      -3.770  11.212  17.132  0.00  0.00    +0.000 C 
ATOM     23  C   UNL     1      -5.054  11.168  17.947  0.00  0.00    +0.000 C 
ENDBRANCH  21  22
ENDBRANCH  20  21
ENDBRANCH   3  20
BRANCH   8  24
ATOM     24  O   UNL     1      -1.803  12.781  22.145  0.00  0.00    +0.000 OA
BRANCH  24  25
ATOM     25  C   UNL     1      -3.108  12.804  22.540  0.00  0.00    +0.000 A 
ATOM     26  C   UNL     1      -3.518  12.988  23.855  0.00  0.00    +0.000 A 
ATOM     27  C   UNL     1      -4.881  12.994  24.155  0.00  0.00    +0.000 A 
ATOM     28  C   UNL     1      -5.841  12.854  23.152  0.00  0.00    +0.000 A 
ATOM     29  C   UNL     1      -7.301  12.832  23.490  0.00  0.00    +0.000 C 
ATOM     30  C   UNL     1      -5.424  12.760  21.817  0.00  0.00    +0.000 A 
ATOM     31  C   UNL     1      -4.066  12.744  21.519  0.00  0.00    +0.000 A 
ENDBRANCH  24  25
ENDBRANCH   8  24
TORSDOF 10
ENDMDL
MODEL 6
REMARK VINA RESULT:      -6.5      1.239      1.863
REMARK  Name = 
REMARK  13 active torsions:
REMARK  status: ('A' for Active; 'I' for Inactive)
REMARK    1  A    between atoms: C_1  and  C_2
REMARK    2  A    between atoms: C_2  and  C_3
REMARK    3  A    between atoms: C_3  and  C_4
REMARK    4  A    between atoms: C_4  and  O_5
REMARK    5  A    between atoms: O_5  and  C_6
REMARK    6  A    between atoms: C_6  and  C_7
REMARK    7  A    between atoms: N_9  and  C_10
REMARK    8  A    between atoms: C_10  and  C_11
REMARK    9  A    between atoms: C_11  and  C_12
REMARK   10  A    between atoms: C_12  and  C_13
REMARK   11  A    between atoms: C_18  and  O_19
REMARK   12  A    between atoms: O_19  and  C_20
REMARK   13  A    between atoms: C_23  and  C_24
REMARK                            x       y       z     vdW  Elec       q    Type
REMARK                         _______ _______ _______ _____ _____    ______ ____
ROOT
ATOM      1  C   UNL     1       1.165   8.929  19.380  0.00  0.00    +0.000 C 
ATOM      2  C   UNL     1       0.901   9.844  18.165  0.00  0.00    +0.000 C 
ATOM      3  N   UNL     1      -0.132  10.900  18.384  0.00  0.00    +0.000 NA
ATOM      4  S   UNL     1       0.416  12.163  19.420  0.00  0.00    +0.000 S 
ATOM      5  O   UNL     1      -0.420  13.315  19.160  0.00  0.00    +0.000 OA
ATOM      6  O   UNL     1       1.854  12.290  19.293  0.00  0.00    +0.000 OA
ATOM      7  C   UNL     1       0.060  11.430  20.992  0.00  0.00    +0.000 A 
ATOM      8  C   UNL     1      -0.959  11.947  21.813  0.00  0.00    +0.000 A 
ATOM      9  C   UNL     1      -1.375  11.194  22.917  0.00  0.00    +0.000 A 
ATOM     10  C   UNL     1      -0.718  10.007  23.255  0.00  0.00    +0.000 A 
ATOM     11  C   UNL     1       0.326   9.528  22.459  0.00  0.00    +0.000 A 
ATOM     12  C   UNL     1       0.685  10.214  21.299  0.00  0.00    +0.000 A 
ATOM     13  O   UNL     1       1.674   9.668  20.518  0.00  0.00    +0.000 OA
ENDROOT
BRANCH   1  14
ATOM     14  C   UNL     1       2.239   7.913  18.926  0.00  0.00    +0.000 C 
BRANCH  14  15
ATOM     15  O   UNL     1       2.195   6.721  19.715  0.00  0.00    +0.000 OA
BRANCH  15  16
ATOM     16  C   UNL     1       3.304   5.862  19.424  0.00  0.00    +0.000 C 
BRANCH  16  17
ATOM     17  C   UNL     1       3.128   5.319  18.010  0.00  0.00    +0.000 C 
BRANCH  17  19
ATOM     18  C   UNL     1       4.651   4.067  16.448  0.00  0.00    +0.000 C 
ATOM     19  C   UNL     1       4.420   5.371  17.198  0.00  0.00    +0.000 C 
ENDBRANCH  17  19
ENDBRANCH  16  17
ENDBRANCH  15  16
ENDBRANCH  14  15
ENDBRANCH   1  14
BRANCH   3  20
ATOM     20  C   UNL     1      -1.510  10.332  18.585  0.00  0.00    +0.000 C 
BRANCH  20  21
ATOM     21  C   UNL     1      -2.205   9.819  17.329  0.00  0.00    +0.000 C 
BRANCH  21  22
ATOM     22  C   UNL     1      -2.770  10.962  16.481  0.00  0.00    +0.000 C 
ATOM     23  C   UNL     1      -3.008  10.510  15.047  0.00  0.00    +0.000 C 
ENDBRANCH  21  22
ENDBRANCH  20  21
ENDBRANCH   3  20
BRANCH   8  24
ATOM     24  O   UNL     1      -1.597  13.090  21.396  0.00  0.00    +0.000 OA
BRANCH  24  25
ATOM     25  C   UNL     1      -2.953  13.225  21.378  0.00  0.00    +0.000 A 
ATOM     26  C   UNL     1      -3.671  13.977  22.300  0.00  0.00    +0.000 A 
ATOM     27  C   UNL     1      -5.061  14.050  22.195  0.00  0.00    +0.000 A 
ATOM     28  C   UNL     1      -5.739  13.409  21.159  0.00  0.00    +0.000 A 
ATOM     29  C   UNL     1      -7.235  13.469  21.072  0.00  0.00    +0.000 C 
ATOM     30  C   UNL     1      -5.003  12.727  20.179  0.00  0.00    +0.000 A 
ATOM     31  C   UNL     1      -3.619  12.647  20.290  0.00  0.00    +0.000 A 
ENDBRANCH  24  25
ENDBRANCH   8  24
TORSDOF 10
ENDMDL
MODEL 7
REMARK VINA RESULT:      -6.4      1.333      1.939
REMARK  Name = 
REMARK  13 active torsions:
REMARK  status: ('A' for Active; 'I' for Inactive)
REMARK    1  A    between atoms: C_1  and  C_2
REMARK    2  A    between atoms: C_2  and  C_3
REMARK    3  A    between atoms: C_3  and  C_4
REMARK    4  A    between atoms: C_4  and  O_5
REMARK    5  A    between atoms: O_5  and  C_6
REMARK    6  A    between atoms: C_6  and  C_7
REMARK    7  A    between atoms: N_9  and  C_10
REMARK    8  A    between atoms: C_10  and  C_11
REMARK    9  A    between atoms: C_11  and  C_12
REMARK   10  A    between atoms: C_12  and  C_13
REMARK   11  A    between atoms: C_18  and  O_19
REMARK   12  A    between atoms: O_19  and  C_20
REMARK   13  A    between atoms: C_23  and  C_24
REMARK                            x       y       z     vdW  Elec       q    Type
REMARK                         _______ _______ _______ _____ _____    ______ ____
ROOT
ATOM      1  C   UNL     1       1.159   9.032  18.856  0.00  0.00    +0.000 C 
ATOM      2  C   UNL     1       0.538  10.012  17.838  0.00  0.00    +0.000 C 
ATOM      3  N   UNL     1      -0.576  10.852  18.371  0.00  0.00    +0.000 NA
ATOM      4  S   UNL     1      -0.027  12.073  19.457  0.00  0.00    +0.000 S 
ATOM      5  O   UNL     1      -1.055  13.090  19.502  0.00  0.00    +0.000 OA
ATOM      6  O   UNL     1       1.326  12.450  19.102  0.00  0.00    +0.000 OA
ATOM      7  C   UNL     1       0.033  11.130  20.954  0.00  0.00    +0.000 A 
ATOM      8  C   UNL     1      -0.873  11.380  22.001  0.00  0.00    +0.000 A 
ATOM      9  C   UNL     1      -0.957  10.457  23.049  0.00  0.00    +0.000 A 
ATOM     10  C   UNL     1      -0.083   9.368  23.107  0.00  0.00    +0.000 A 
ATOM     11  C   UNL     1       0.847   9.155  22.086  0.00  0.00    +0.000 A 
ATOM     12  C   UNL     1       0.875  10.009  20.983  0.00  0.00    +0.000 A 
ATOM     13  O   UNL     1       1.765   9.721  19.977  0.00  0.00    +0.000 OA
ENDROOT
BRANCH   1  14
ATOM     14  C   UNL     1       2.262   8.262  18.092  0.00  0.00    +0.000 C 
BRANCH  14  15
ATOM     15  O   UNL     1       2.204   6.859  18.366  0.00  0.00    +0.000 OA
BRANCH  15  16
ATOM     16  C   UNL     1       3.276   6.451  19.224  0.00  0.00    +0.000 C 
BRANCH  16  17
ATOM     17  C   UNL     1       2.970   5.048  19.734  0.00  0.00    +0.000 C 
BRANCH  17  19
ATOM     18  C   UNL     1       0.845   3.799  20.237  0.00  0.00    +0.000 C 
ATOM     19  C   UNL     1       1.709   4.999  20.595  0.00  0.00    +0.000 C 
ENDBRANCH  17  19
ENDBRANCH  16  17
ENDBRANCH  15  16
ENDBRANCH  14  15
ENDBRANCH   1  14
BRANCH   3  20
ATOM     20  C   UNL     1      -1.792  10.044  18.729  0.00  0.00    +0.000 C 
BRANCH  20  21
ATOM     21  C   UNL     1      -2.994  10.212  17.806  0.00  0.00    +0.000 C 
BRANCH  21  22
ATOM     22  C   UNL     1      -2.655  11.055  16.574  0.00  0.00    +0.000 C 
ATOM     23  C   UNL     1      -2.799  10.238  15.298  0.00  0.00    +0.000 C 
ENDBRANCH  21  22
ENDBRANCH  20  21
ENDBRANCH   3  20
BRANCH   8  24
ATOM     24  O   UNL     1      -1.737  12.439  21.857  0.00  0.00    +0.000 OA
BRANCH  24  25
ATOM     25  C   UNL     1      -1.904  13.402  22.806  0.00  0.00    +0.000 A 
ATOM     26  C   UNL     1      -3.007  13.481  23.648  0.00  0.00    +0.000 A 
ATOM     27  C   UNL     1      -3.082  14.510  24.589  0.00  0.00    +0.000 A 
ATOM     28  C   UNL     1      -2.052  15.441  24.722  0.00  0.00    +0.000 A 
ATOM     29  C   UNL     1      -2.157  16.559  25.715  0.00  0.00    +0.000 C 
ATOM     30  C   UNL     1      -0.901  15.304  23.932  0.00  0.00    +0.000 A 
ATOM     31  C   UNL     1      -0.831  14.285  22.989  0.00  0.00    +0.000 A 
ENDBRANCH  24  25
ENDBRANCH   8  24
TORSDOF 10
ENDMDL
MODEL 8
REMARK VINA RESULT:      -6.4      1.159      1.602
REMARK  Name = 
REMARK  13 active torsions:
REMARK  status: ('A' for Active; 'I' for Inactive)
REMARK    1  A    between atoms: C_1  and  C_2
REMARK    2  A    between atoms: C_2  and  C_3
REMARK    3  A    between atoms: C_3  and  C_4
REMARK    4  A    between atoms: C_4  and  O_5
REMARK    5  A    between atoms: O_5  and  C_6
REMARK    6  A    between atoms: C_6  and  C_7
REMARK    7  A    between atoms: N_9  and  C_10
REMARK    8  A    between atoms: C_10  and  C_11
REMARK    9  A    between atoms: C_11  and  C_12
REMARK   10  A    between atoms: C_12  and  C_13
REMARK   11  A    between atoms: C_18  and  O_19
REMARK   12  A    between atoms: O_19  and  C_20
REMARK   13  A    between atoms: C_23  and  C_24
REMARK                            x       y       z     vdW  Elec       q    Type
REMARK                         _______ _______ _______ _____ _____    ______ ____
ROOT
ATOM      1  C   UNL     1       1.176   9.244  19.012  0.00  0.00    +0.000 C 
ATOM      2  C   UNL     1       0.786  10.386  18.049  0.00  0.00    +0.000 C 
ATOM      3  N   UNL     1      -0.237  11.337  18.580  0.00  0.00    +0.000 NA
ATOM      4  S   UNL     1       0.390  12.369  19.810  0.00  0.00    +0.000 S 
ATOM      5  O   UNL     1      -0.483  13.521  19.878  0.00  0.00    +0.000 OA
ATOM      6  O   UNL     1       1.807  12.568  19.585  0.00  0.00    +0.000 OA
ATOM      7  C   UNL     1       0.193  11.309  21.214  0.00  0.00    +0.000 A 
ATOM      8  C   UNL     1      -0.750  11.605  22.214  0.00  0.00    +0.000 A 
ATOM      9  C   UNL     1      -1.051  10.623  23.164  0.00  0.00    +0.000 A 
ATOM     10  C   UNL     1      -0.348   9.414  23.181  0.00  0.00    +0.000 A 
ATOM     11  C   UNL     1       0.622   9.149  22.211  0.00  0.00    +0.000 A 
ATOM     12  C   UNL     1       0.861  10.076  21.196  0.00  0.00    +0.000 A 
ATOM     13  O   UNL     1       1.780   9.741  20.232  0.00  0.00    +0.000 OA
ENDROOT
BRANCH   1  14
ATOM     14  C   UNL     1       2.216   8.383  18.258  0.00  0.00    +0.000 C 
BRANCH  14  15
ATOM     15  O   UNL     1       2.610   7.246  19.031  0.00  0.00    +0.000 OA
BRANCH  15  16
ATOM     16  C   UNL     1       3.199   6.235  18.205  0.00  0.00    +0.000 C 
BRANCH  16  17
ATOM     17  C   UNL     1       4.213   6.903  17.283  0.00  0.00    +0.000 C 
BRANCH  17  19
ATOM     18  C   UNL     1       4.731   4.527  16.642  0.00  0.00    +0.000 C 
ATOM     19  C   UNL     1       5.287   5.935  16.794  0.00  0.00    +0.000 C 
ENDBRANCH  17  19
ENDBRANCH  16  17
ENDBRANCH  15  16
ENDBRANCH  14  15
ENDBRANCH   1  14
BRANCH   3  20
ATOM     20  C   UNL     1      -1.581  10.693  18.778  0.00  0.00    +0.000 C 
BRANCH  20  21
ATOM     21  C   UNL     1      -2.109   9.886  17.597  0.00  0.00    +0.000 C 
BRANCH  21  22
ATOM     22  C   UNL     1      -3.484  10.379  17.136  0.00  0.00    +0.000 C 
ATOM     23  C   UNL     1      -3.459  10.762  15.663  0.00  0.00    +0.000 C 
ENDBRANCH  21  22
ENDBRANCH  20  21
ENDBRANCH   3  20
BRANCH   8  24
ATOM     24  O   UNL     1      -1.440  12.789  22.110  0.00  0.00    +0.000 OA
BRANCH  24  25
ATOM     25  C   UNL     1      -2.765  12.911  22.408  0.00  0.00    +0.000 A 
ATOM     26  C   UNL     1      -3.789  12.715  21.490  0.00  0.00    +0.000 A 
ATOM     27  C   UNL     1      -5.116  12.866  21.897  0.00  0.00    +0.000 A 
ATOM     28  C   UNL     1      -5.432  13.178  23.220  0.00  0.00    +0.000 A 
ATOM     29  C   UNL     1      -6.859  13.367  23.639  0.00  0.00    +0.000 C 
ATOM     30  C   UNL     1      -4.400  13.286  24.162  0.00  0.00    +0.000 A 
ATOM     31  C   UNL     1      -3.078  13.145  23.754  0.00  0.00    +0.000 A 
ENDBRANCH  24  25
ENDBRANCH   8  24
TORSDOF 10
ENDMDL
MODEL 9
REMARK VINA RESULT:      -6.4      1.308      1.873
REMARK  Name = 
REMARK  13 active torsions:
REMARK  status: ('A' for Active; 'I' for Inactive)
REMARK    1  A    between atoms: C_1  and  C_2
REMARK    2  A    between atoms: C_2  and  C_3
REMARK    3  A    between atoms: C_3  and  C_4
REMARK    4  A    between atoms: C_4  and  O_5
REMARK    5  A    between atoms: O_5  and  C_6
REMARK    6  A    between atoms: C_6  and  C_7
REMARK    7  A    between atoms: N_9  and  C_10
REMARK    8  A    between atoms: C_10  and  C_11
REMARK    9  A    between atoms: C_11  and  C_12
REMARK   10  A    between atoms: C_12  and  C_13
REMARK   11  A    between atoms: C_18  and  O_19
REMARK   12  A    between atoms: O_19  and  C_20
REMARK   13  A    between atoms: C_23  and  C_24
REMARK                            x       y       z     vdW  Elec       q    Type
REMARK                         _______ _______ _______ _____ _____    ______ ____
ROOT
ATOM      1  C   UNL     1       1.289   8.820  19.093  0.00  0.00    +0.000 C 
ATOM      2  C   UNL     1       0.818   9.770  17.970  0.00  0.00    +0.000 C 
ATOM      3  N   UNL     1      -0.284  10.702  18.355  0.00  0.00    +0.000 NA
ATOM      4  S   UNL     1       0.244  11.955  19.415  0.00  0.00    +0.000 S 
ATOM      5  O   UNL     1      -0.720  13.028  19.311  0.00  0.00    +0.000 OA
ATOM      6  O   UNL     1       1.642  12.233  19.160  0.00  0.00    +0.000 OA
ATOM      7  C   UNL     1       0.119  11.103  20.962  0.00  0.00    +0.000 A 
ATOM      8  C   UNL     1      -0.856  11.467  21.908  0.00  0.00    +0.000 A 
ATOM      9  C   UNL     1      -1.086  10.616  22.995  0.00  0.00    +0.000 A 
ATOM     10  C   UNL     1      -0.288   9.485  23.191  0.00  0.00    +0.000 A 
ATOM     11  C   UNL     1       0.711   9.159  22.271  0.00  0.00    +0.000 A 
ATOM     12  C   UNL     1       0.885   9.941  21.128  0.00  0.00    +0.000 A 
ATOM     13  O   UNL     1       1.838   9.542  20.223  0.00  0.00    +0.000 OA
ENDROOT
BRANCH   1  14
ATOM     14  C   UNL     1       2.403   7.944  18.474  0.00  0.00    +0.000 C 
BRANCH  14  15
ATOM     15  O   UNL     1       2.061   6.556  18.521  0.00  0.00    +0.000 OA
BRANCH  15  16
ATOM     16  C   UNL     1       2.737   5.889  19.593  0.00  0.00    +0.000 C 
BRANCH  16  17
ATOM     17  C   UNL     1       1.706   5.529  20.656  0.00  0.00    +0.000 C 
BRANCH  17  19
ATOM     18  C   UNL     1       1.997   3.204  21.570  0.00  0.00    +0.000 C 
ATOM     19  C   UNL     1       1.255   4.073  20.566  0.00  0.00    +0.000 C 
ENDBRANCH  17  19
ENDBRANCH  16  17
ENDBRANCH  15  16
ENDBRANCH  14  15
ENDBRANCH   1  14
BRANCH   3  20
ATOM     20  C   UNL     1      -1.574   9.987  18.649  0.00  0.00    +0.000 C 
BRANCH  20  21
ATOM     21  C   UNL     1      -2.522   9.818  17.467  0.00  0.00    +0.000 C 
BRANCH  21  22
ATOM     22  C   UNL     1      -2.745  11.137  16.720  0.00  0.00    +0.000 C 
ATOM     23  C   UNL     1      -4.230  11.424  16.555  0.00  0.00    +0.000 C 
ENDBRANCH  21  22
ENDBRANCH  20  21
ENDBRANCH   3  20
BRANCH   8  24
ATOM     24  O   UNL     1      -1.639  12.562  21.629  0.00  0.00    +0.000 OA
BRANCH  24  25
ATOM     25  C   UNL     1      -1.874  13.561  22.527  0.00  0.00    +0.000 A 
ATOM     26  C   UNL     1      -0.876  14.235  23.218  0.00  0.00    +0.000 A 
ATOM     27  C   UNL     1      -1.223  15.244  24.118  0.00  0.00    +0.000 A 
ATOM     28  C   UNL     1      -2.556  15.610  24.311  0.00  0.00    +0.000 A 
ATOM     29  C   UNL     1      -2.920  16.674  25.302  0.00  0.00    +0.000 C 
ATOM     30  C   UNL     1      -3.552  14.988  23.544  0.00  0.00    +0.000 A 
ATOM     31  C   UNL     1      -3.206  13.977  22.655  0.00  0.00    +0.000 A 
ENDBRANCH  24  25
ENDBRANCH   8  24
TORSDOF 10
ENDMDL
