MODEL 1
REMARK VINA RESULT:      -7.5      0.000      0.000
REMARK  Name = 
REMARK  11 active torsions:
REMARK  status: ('A' for Active; 'I' for Inactive)
REMARK    1  A    between atoms: C_1  and  O_2
REMARK    2  A    between atoms: O_2  and  C_3
REMARK    3  A    between atoms: C_3  and  O_4
REMARK    4  A    between atoms: O_4  and  C_5
REMARK    5  A    between atoms: C_8  and  C_9
REMARK    6  A    between atoms: C_11  and  C_12
REMARK    7  A    between atoms: C_15  and  O_16
REMARK    8  A    between atoms: O_16  and  C_17
REMARK    9  A    between atoms: C_18  and  O_19
REMARK   10  A    between atoms: O_19  and  C_20
REMARK   11  A    between atoms: C_24  and  N_25
REMARK                            x       y       z     vdW  Elec       q    Type
REMARK                         _______ _______ _______ _____ _____    ______ ____
ROOT
ATOM      1  C   UNL     1       3.660   5.391  18.928  0.00  0.00    +0.000 A 
ATOM      2  C   UNL     1       3.069   6.633  19.247  0.00  0.00    +0.000 A 
ATOM      3  C   UNL     1       2.061   6.774  20.209  0.00  0.00    +0.000 A 
ATOM      4  C   UNL     1       1.667   5.590  20.819  0.00  0.00    +0.000 A 
ATOM      5  N   UNL     1       2.201   4.369  20.571  0.00  0.00    +0.000 NA
ATOM      6  C   UNL     1       3.182   4.284  19.654  0.00  0.00    +0.000 A 
ENDROOT
BRANCH   1  10
ATOM      7  C   UNL     1       6.793   5.228  15.959  0.00  0.00    +0.000 A 
ATOM      8  C   UNL     1       6.988   4.683  17.223  0.00  0.00    +0.000 A 
ATOM      9  C   UNL     1       5.955   4.710  18.160  0.00  0.00    +0.000 A 
ATOM     10  C   UNL     1       4.720   5.334  17.890  0.00  0.00    +0.000 A 
ATOM     11  C   UNL     1       4.575   5.929  16.625  0.00  0.00    +0.000 A 
ATOM     12  C   UNL     1       5.592   5.866  15.662  0.00  0.00    +0.000 A 
BRANCH   7  13
ATOM     13  O   UNL     1       7.718   5.200  14.956  0.00  0.00    +0.000 OA
BRANCH  13  14
ATOM     14  C   UNL     1       7.181   4.934  13.659  0.00  0.00    +0.000 C 
BRANCH  14  16
ATOM     15  C   UNL     1       6.102   3.357  12.295  0.00  0.00    +0.000 C 
ATOM     16  O   UNL     1       6.513   3.673  13.619  0.00  0.00    +0.000 OA
ENDBRANCH  14  16
ENDBRANCH  13  14
ENDBRANCH   7  13
ENDBRANCH   1  10
BRANCH   3  17
ATOM     17  C   UNL     1       1.474   8.091  20.541  0.00  0.00    +0.000 A 
ATOM     18  C   UNL     1       1.014   8.383  21.832  0.00  0.00    +0.000 A 
ATOM     19  C   UNL     1       0.452   9.624  22.134  0.00  0.00    +0.000 A 
ATOM     20  C   UNL     1       0.338  10.626  21.163  0.00  0.00    +0.000 A 
ATOM     21  C   UNL     1       0.780  10.363  19.857  0.00  0.00    +0.000 A 
ATOM     22  C   UNL     1       1.333   9.100  19.568  0.00  0.00    +0.000 A 
BRANCH  20  23
ATOM     23  O   UNL     1      -0.219  11.768  21.674  0.00  0.00    +0.000 OA
ATOM     24  C   UNL     1      -1.071  11.671  22.804  0.00  0.00    +0.000 C 
ENDBRANCH  20  23
BRANCH  21  25
ATOM     25  O   UNL     1       0.636  11.344  18.912  0.00  0.00    +0.000 OA
ATOM     26  C   UNL     1       1.746  12.188  18.633  0.00  0.00    +0.000 C 
ENDBRANCH  21  25
ENDBRANCH   3  17
BRANCH   6  27
ATOM     27  N   UNL     1       3.670   2.991  19.478  0.00  0.00    +0.000 N 
ATOM     28  H   UNL     1       2.901   2.357  19.683  0.00  0.00    +0.000 HD
ATOM     29  H   UNL     1       4.480   2.819  20.062  0.00  0.00    +0.000 HD
ENDBRANCH   6  27
TORSDOF 8
ENDMDL
MODEL 2
REMARK VINA RESULT:      -7.5      1.422      2.451
REMARK  Name = 
REMARK  11 active torsions:
REMARK  status: ('A' for Active; 'I' for Inactive)
REMARK    1  A    between atoms: C_1  and  O_2
REMARK    2  A    between atoms: O_2  and  C_3
REMARK    3  A    between atoms: C_3  and  O_4
REMARK    4  A    between atoms: O_4  and  C_5
REMARK    5  A    between atoms: C_8  and  C_9
REMARK    6  A    between atoms: C_11  and  C_12
REMARK    7  A    between atoms: C_15  and  O_16
REMARK    8  A    between atoms: O_16  and  C_17
REMARK    9  A    between atoms: C_18  and  O_19
REMARK   10  A    between atoms: O_19  and  C_20
REMARK   11  A    between atoms: C_24  and  N_25
REMARK                            x       y       z     vdW  Elec       q    Type
REMARK                         _______ _______ _______ _____ _____    ______ ____
ROOT
ATOM      1  C   UNL     1       4.441   5.116  17.707  0.00  0.00    +0.000 A 
ATOM      2  C   UNL     1       3.678   6.296  17.841  0.00  0.00    +0.000 A 
ATOM      3  C   UNL     1       2.926   6.594  18.984  0.00  0.00    +0.000 A 
ATOM      4  C   UNL     1       2.970   5.626  19.980  0.00  0.00    +0.000 A 
ATOM      5  N   UNL     1       3.693   4.481  19.923  0.00  0.00    +0.000 NA
ATOM      6  C   UNL     1       4.417   4.247  18.813  0.00  0.00    +0.000 A 
ENDROOT
BRANCH   1  10
ATOM      7  C   UNL     1       6.698   4.490  14.078  0.00  0.00    +0.000 A 
ATOM      8  C   UNL     1       7.263   5.164  15.154  0.00  0.00    +0.000 A 
ATOM      9  C   UNL     1       6.536   5.327  16.334  0.00  0.00    +0.000 A 
ATOM     10  C   UNL     1       5.205   4.880  16.457  0.00  0.00    +0.000 A 
ATOM     11  C   UNL     1       4.641   4.256  15.330  0.00  0.00    +0.000 A 
ATOM     12  C   UNL     1       5.380   4.048  14.158  0.00  0.00    +0.000 A 
BRANCH   7  13
ATOM     13  O   UNL     1       7.346   4.228  12.906  0.00  0.00    +0.000 OA
BRANCH  13  14
ATOM     14  C   UNL     1       6.586   3.471  11.962  0.00  0.00    +0.000 C 
BRANCH  14  16
ATOM     15  C   UNL     1       6.513   1.275  11.135  0.00  0.00    +0.000 C 
ATOM     16  O   UNL     1       7.348   2.388  11.428  0.00  0.00    +0.000 OA
ENDBRANCH  14  16
ENDBRANCH  13  14
ENDBRANCH   7  13
ENDBRANCH   1  10
BRANCH   3  17
ATOM     17  C   UNL     1       2.151   7.849  19.108  0.00  0.00    +0.000 A 
ATOM     18  C   UNL     1       2.181   8.830  18.108  0.00  0.00    +0.000 A 
ATOM     19  C   UNL     1       1.456  10.014  18.237  0.00  0.00    +0.000 A 
ATOM     20  C   UNL     1       0.662  10.262  19.364  0.00  0.00    +0.000 A 
ATOM     21  C   UNL     1       0.618   9.304  20.389  0.00  0.00    +0.000 A 
ATOM     22  C   UNL     1       1.366   8.119  20.246  0.00  0.00    +0.000 A 
BRANCH  20  23
ATOM     23  O   UNL     1       0.020  11.468  19.279  0.00  0.00    +0.000 OA
ATOM     24  C   UNL     1       0.665  12.626  19.783  0.00  0.00    +0.000 C 
ENDBRANCH  20  23
BRANCH  21  25
ATOM     25  O   UNL     1      -0.143   9.572  21.497  0.00  0.00    +0.000 OA
ATOM     26  C   UNL     1       0.455   9.439  22.780  0.00  0.00    +0.000 C 
ENDBRANCH  21  25
ENDBRANCH   3  17
BRANCH   6  27
ATOM     27  N   UNL     1       5.130   3.050  18.856  0.00  0.00    +0.000 N 
ATOM     28  H   UNL     1       6.113   3.296  18.942  0.00  0.00    +0.000 HD
ATOM     29  H   UNL     1       4.944   2.479  18.041  0.00  0.00    +0.000 HD
ENDBRANCH   6  27
TORSDOF 8
ENDMDL
MODEL 3
REMARK VINA RESULT:      -7.5      1.111      2.003
REMARK  Name = 
REMARK  11 active torsions:
REMARK  status: ('A' for Active; 'I' for Inactive)
REMARK    1  A    between atoms: C_1  and  O_2
REMARK    2  A    between atoms: O_2  and  C_3
REMARK    3  A    between atoms: C_3  and  O_4
REMARK    4  A    between atoms: O_4  and  C_5
REMARK    5  A    between atoms: C_8  and  C_9
REMARK    6  A    between atoms: C_11  and  C_12
REMARK    7  A    between atoms: C_15  and  O_16
REMARK    8  A    between atoms: O_16  and  C_17
REMARK    9  A    between atoms: C_18  and  O_19
REMARK   10  A    between atoms: O_19  and  C_20
REMARK   11  A    between atoms: C_24  and  N_25
REMARK                            x       y       z     vdW  Elec       q    Type
REMARK                         _______ _______ _______ _____ _____    ______ ____
ROOT
ATOM      1  C   UNL     1       3.737   5.551  18.711  0.00  0.00    +0.000 A 
ATOM      2  C   UNL     1       3.119   6.819  18.777  0.00  0.00    +0.000 A 
ATOM      3  C   UNL     1       2.165   7.153  19.745  0.00  0.00    +0.000 A 
ATOM      4  C   UNL     1       1.852   6.131  20.633  0.00  0.00    +0.000 A 
ATOM      5  N   UNL     1       2.417   4.900  20.636  0.00  0.00    +0.000 NA
ATOM      6  C   UNL     1       3.346   4.630  19.700  0.00  0.00    +0.000 A 
ENDROOT
BRANCH   1  10
ATOM      7  C   UNL     1       6.662   4.839  15.613  0.00  0.00    +0.000 A 
ATOM      8  C   UNL     1       6.863   5.837  16.559  0.00  0.00    +0.000 A 
ATOM      9  C   UNL     1       5.928   6.032  17.576  0.00  0.00    +0.000 A 
ATOM     10  C   UNL     1       4.736   5.283  17.647  0.00  0.00    +0.000 A 
ATOM     11  C   UNL     1       4.533   4.322  16.641  0.00  0.00    +0.000 A 
ATOM     12  C   UNL     1       5.489   4.089  15.642  0.00  0.00    +0.000 A 
BRANCH   7  13
ATOM     13  O   UNL     1       7.543   4.531  14.617  0.00  0.00    +0.000 OA
BRANCH  13  14
ATOM     14  C   UNL     1       7.185   5.035  13.329  0.00  0.00    +0.000 C 
BRANCH  14  16
ATOM     15  C   UNL     1       6.014   3.336  12.211  0.00  0.00    +0.000 C 
ATOM     16  O   UNL     1       7.257   4.016  12.332  0.00  0.00    +0.000 OA
ENDBRANCH  14  16
ENDBRANCH  13  14
ENDBRANCH   7  13
ENDBRANCH   1  10
BRANCH   3  17
ATOM     17  C   UNL     1       1.547   8.497  19.807  0.00  0.00    +0.000 A 
ATOM     18  C   UNL     1       1.386   9.281  18.657  0.00  0.00    +0.000 A 
ATOM     19  C   UNL     1       0.812  10.551  18.725  0.00  0.00    +0.000 A 
ATOM     20  C   UNL     1       0.365  11.083  19.940  0.00  0.00    +0.000 A 
ATOM     21  C   UNL     1       0.521  10.327  21.113  0.00  0.00    +0.000 A 
ATOM     22  C   UNL     1       1.114   9.052  21.027  0.00  0.00    +0.000 A 
BRANCH  20  23
ATOM     23  O   UNL     1      -0.183  12.327  19.781  0.00  0.00    +0.000 OA
ATOM     24  C   UNL     1      -1.192  12.512  18.802  0.00  0.00    +0.000 C 
ENDBRANCH  20  23
BRANCH  21  25
ATOM     25  O   UNL     1       0.104  10.873  22.298  0.00  0.00    +0.000 OA
ATOM     26  C   UNL     1      -0.692  10.079  23.170  0.00  0.00    +0.000 C 
ENDBRANCH  21  25
ENDBRANCH   3  17
BRANCH   6  27
ATOM     27  N   UNL     1       3.872   3.343  19.792  0.00  0.00    +0.000 N 
ATOM     28  H   UNL     1       3.773   2.918  18.873  0.00  0.00    +0.000 HD
ATOM     29  H   UNL     1       3.411   2.806  20.517  0.00  0.00    +0.000 HD
ENDBRANCH   6  27
TORSDOF 8
ENDMDL
MODEL 4
REMARK VINA RESULT:      -7.4      3.547      9.887
REMARK  Name = 
REMARK  11 active torsions:
REMARK  status: ('A' for Active; 'I' for Inactive)
REMARK    1  A    between atoms: C_1  and  O_2
REMARK    2  A    between atoms: O_2  and  C_3
REMARK    3  A    between atoms: C_3  and  O_4
REMARK    4  A    between atoms: O_4  and  C_5
REMARK    5  A    between atoms: C_8  and  C_9
REMARK    6  A    between atoms: C_11  and  C_12
REMARK    7  A    between atoms: C_15  and  O_16
REMARK    8  A    between atoms: O_16  and  C_17
REMARK    9  A    between atoms: C_18  and  O_19
REMARK   10  A    between atoms: O_19  and  C_20
REMARK   11  A    between atoms: C_24  and  N_25
REMARK                            x       y       z     vdW  Elec       q    Type
REMARK                         _______ _______ _______ _____ _____    ______ ____
ROOT
ATOM      1  C   UNL     1       0.885   9.785  19.684  0.00  0.00    +0.000 A 
ATOM      2  C   UNL     1       1.356   8.458  19.798  0.00  0.00    +0.000 A 
ATOM      3  C   UNL     1       2.185   7.858  18.843  0.00  0.00    +0.000 A 
ATOM      4  C   UNL     1       2.499   8.663  17.755  0.00  0.00    +0.000 A 
ATOM      5  N   UNL     1       2.095   9.946  17.591  0.00  0.00    +0.000 NA
ATOM      6  C   UNL     1       1.316  10.488  18.545  0.00  0.00    +0.000 A 
ENDROOT
BRANCH   1  10
ATOM      7  C   UNL     1      -1.674  11.458  22.735  0.00  0.00    +0.000 A 
ATOM      8  C   UNL     1      -1.682  11.973  21.444  0.00  0.00    +0.000 A 
ATOM      9  C   UNL     1      -0.878  11.400  20.459  0.00  0.00    +0.000 A 
ATOM     10  C   UNL     1       0.004  10.338  20.743  0.00  0.00    +0.000 A 
ATOM     11  C   UNL     1       0.035   9.878  22.071  0.00  0.00    +0.000 A 
ATOM     12  C   UNL     1      -0.804  10.419  23.055  0.00  0.00    +0.000 A 
BRANCH   7  13
ATOM     13  O   UNL     1      -2.465  11.910  23.751  0.00  0.00    +0.000 OA
BRANCH  13  14
ATOM     14  C   UNL     1      -3.468  12.846  23.354  0.00  0.00    +0.000 C 
BRANCH  14  16
ATOM     15  C   UNL     1      -5.758  13.129  23.786  0.00  0.00    +0.000 C 
ATOM     16  O   UNL     1      -4.759  12.238  23.308  0.00  0.00    +0.000 OA
ENDBRANCH  14  16
ENDBRANCH  13  14
ENDBRANCH   7  13
ENDBRANCH   1  10
BRANCH   3  17
ATOM     17  C   UNL     1       2.683   6.473  18.996  0.00  0.00    +0.000 A 
ATOM     18  C   UNL     1       3.502   5.877  18.027  0.00  0.00    +0.000 A 
ATOM     19  C   UNL     1       3.959   4.568  18.175  0.00  0.00    +0.000 A 
ATOM     20  C   UNL     1       3.627   3.804  19.301  0.00  0.00    +0.000 A 
ATOM     21  C   UNL     1       2.800   4.367  20.285  0.00  0.00    +0.000 A 
ATOM     22  C   UNL     1       2.338   5.687  20.114  0.00  0.00    +0.000 A 
BRANCH  20  23
ATOM     23  O   UNL     1       4.195   2.559  19.257  0.00  0.00    +0.000 OA
ATOM     24  C   UNL     1       3.525   1.523  18.559  0.00  0.00    +0.000 C 
ENDBRANCH  20  23
BRANCH  21  25
ATOM     25  O   UNL     1       2.462   3.598  21.368  0.00  0.00    +0.000 OA
ATOM     26  C   UNL     1       1.272   2.822  21.306  0.00  0.00    +0.000 C 
ENDBRANCH  21  25
ENDBRANCH   3  17
BRANCH   6  27
ATOM     27  N   UNL     1       0.962  11.811  18.288  0.00  0.00    +0.000 N 
ATOM     28  H   UNL     1       0.978  11.930  17.278  0.00  0.00    +0.000 HD
ATOM     29  H   UNL     1       1.579  12.458  18.764  0.00  0.00    +0.000 HD
ENDBRANCH   6  27
TORSDOF 8
ENDMDL
MODEL 5
REMARK VINA RESULT:      -7.3      3.737      9.782
REMARK  Name = 
REMARK  11 active torsions:
REMARK  status: ('A' for Active; 'I' for Inactive)
REMARK    1  A    between atoms: C_1  and  O_2
REMARK    2  A    between atoms: O_2  and  C_3
REMARK    3  A    between atoms: C_3  and  O_4
REMARK    4  A    between atoms: O_4  and  C_5
REMARK    5  A    between atoms: C_8  and  C_9
REMARK    6  A    between atoms: C_11  and  C_12
REMARK    7  A    between atoms: C_15  and  O_16
REMARK    8  A    between atoms: O_16  and  C_17
REMARK    9  A    between atoms: C_18  and  O_19
REMARK   10  A    between atoms: O_19  and  C_20
REMARK   11  A    between atoms: C_24  and  N_25
REMARK                            x       y       z     vdW  Elec       q    Type
REMARK                         _______ _______ _______ _____ _____    ______ ____
ROOT
ATOM      1  C   UNL     1       0.884   9.788  19.723  0.00  0.00    +0.000 A 
ATOM      2  C   UNL     1       1.219   8.421  19.838  0.00  0.00    +0.000 A 
ATOM      3  C   UNL     1       2.043   7.758  18.921  0.00  0.00    +0.000 A 
ATOM      4  C   UNL     1       2.496   8.543  17.869  0.00  0.00    +0.000 A 
ATOM      5  N   UNL     1       2.225   9.861  17.706  0.00  0.00    +0.000 NA
ATOM      6  C   UNL     1       1.446  10.463  18.624  0.00  0.00    +0.000 A 
ENDROOT
BRANCH   1  10
ATOM      7  C   UNL     1      -1.695  11.532  22.717  0.00  0.00    +0.000 A 
ATOM      8  C   UNL     1      -0.825  10.501  23.047  0.00  0.00    +0.000 A 
ATOM      9  C   UNL     1       0.029   9.972  22.079  0.00  0.00    +0.000 A 
ATOM     10  C   UNL     1      -0.001  10.409  20.740  0.00  0.00    +0.000 A 
ATOM     11  C   UNL     1      -0.934  11.411  20.423  0.00  0.00    +0.000 A 
ATOM     12  C   UNL     1      -1.763  11.980  21.400  0.00  0.00    +0.000 A 
BRANCH   7  13
ATOM     13  O   UNL     1      -2.525  12.156  23.602  0.00  0.00    +0.000 OA
BRANCH  13  14
ATOM     14  C   UNL     1      -3.553  12.946  23.001  0.00  0.00    +0.000 C 
BRANCH  14  16
ATOM     15  C   UNL     1      -5.769  12.925  22.228  0.00  0.00    +0.000 C 
ATOM     16  O   UNL     1      -4.824  12.303  23.090  0.00  0.00    +0.000 OA
ENDBRANCH  14  16
ENDBRANCH  13  14
ENDBRANCH   7  13
ENDBRANCH   1  10
BRANCH   3  17
ATOM     17  C   UNL     1       2.398   6.329  19.077  0.00  0.00    +0.000 A 
ATOM     18  C   UNL     1       2.905   5.580  18.007  0.00  0.00    +0.000 A 
ATOM     19  C   UNL     1       3.227   4.231  18.159  0.00  0.00    +0.000 A 
ATOM     20  C   UNL     1       3.068   3.580  19.388  0.00  0.00    +0.000 A 
ATOM     21  C   UNL     1       2.553   4.299  20.478  0.00  0.00    +0.000 A 
ATOM     22  C   UNL     1       2.222   5.657  20.303  0.00  0.00    +0.000 A 
BRANCH  20  23
ATOM     23  O   UNL     1       3.463   2.271  19.326  0.00  0.00    +0.000 OA
ATOM     24  C   UNL     1       3.602   1.655  18.056  0.00  0.00    +0.000 C 
ENDBRANCH  20  23
BRANCH  21  25
ATOM     25  O   UNL     1       2.377   3.641  21.667  0.00  0.00    +0.000 OA
ATOM     26  C   UNL     1       1.405   2.605  21.734  0.00  0.00    +0.000 C 
ENDBRANCH  21  25
ENDBRANCH   3  17
BRANCH   6  27
ATOM     27  N   UNL     1       1.235  11.817  18.373  0.00  0.00    +0.000 N 
ATOM     28  H   UNL     1       0.507  12.125  19.013  0.00  0.00    +0.000 HD
ATOM     29  H   UNL     1       0.992  11.980  17.403  0.00  0.00    +0.000 HD
ENDBRANCH   6  27
TORSDOF 8
ENDMDL
MODEL 6
REMARK VINA RESULT:      -7.3      0.968      2.038
REMARK  Name = 
REMARK  11 active torsions:
REMARK  status: ('A' for Active; 'I' for Inactive)
REMARK    1  A    between atoms: C_1  and  O_2
REMARK    2  A    between atoms: O_2  and  C_3
REMARK    3  A    between atoms: C_3  and  O_4
REMARK    4  A    between atoms: O_4  and  C_5
REMARK    5  A    between atoms: C_8  and  C_9
REMARK    6  A    between atoms: C_11  and  C_12
REMARK    7  A    between atoms: C_15  and  O_16
REMARK    8  A    between atoms: O_16  and  C_17
REMARK    9  A    between atoms: C_18  and  O_19
REMARK   10  A    between atoms: O_19  and  C_20
REMARK   11  A    between atoms: C_24  and  N_25
REMARK                            x       y       z     vdW  Elec       q    Type
REMARK                         _______ _______ _______ _____ _____    ______ ____
ROOT
ATOM      1  C   UNL     1       3.554   5.734  18.875  0.00  0.00    +0.000 A 
ATOM      2  C   UNL     1       2.950   7.006  18.985  0.00  0.00    +0.000 A 
ATOM      3  C   UNL     1       1.984   7.311  19.951  0.00  0.00    +0.000 A 
ATOM      4  C   UNL     1       1.644   6.256  20.789  0.00  0.00    +0.000 A 
ATOM      5  N   UNL     1       2.193   5.018  20.748  0.00  0.00    +0.000 NA
ATOM      6  C   UNL     1       3.134   4.777  19.816  0.00  0.00    +0.000 A 
ENDROOT
BRANCH   1  10
ATOM      7  C   UNL     1       6.480   4.981  15.788  0.00  0.00    +0.000 A 
ATOM      8  C   UNL     1       5.279   4.283  15.809  0.00  0.00    +0.000 A 
ATOM      9  C   UNL     1       4.327   4.563  16.789  0.00  0.00    +0.000 A 
ATOM     10  C   UNL     1       4.567   5.499  17.816  0.00  0.00    +0.000 A 
ATOM     11  C   UNL     1       5.815   6.145  17.803  0.00  0.00    +0.000 A 
ATOM     12  C   UNL     1       6.758   5.903  16.795  0.00  0.00    +0.000 A 
BRANCH   7  13
ATOM     13  O   UNL     1       7.449   4.824  14.839  0.00  0.00    +0.000 OA
BRANCH  13  14
ATOM     14  C   UNL     1       6.959   4.722  13.501  0.00  0.00    +0.000 C 
BRANCH  14  16
ATOM     15  C   UNL     1       5.699   3.348  12.075  0.00  0.00    +0.000 C 
ATOM     16  O   UNL     1       6.591   3.380  13.181  0.00  0.00    +0.000 OA
ENDBRANCH  14  16
ENDBRANCH  13  14
ENDBRANCH   7  13
ENDBRANCH   1  10
BRANCH   3  17
ATOM     17  C   UNL     1       1.382   8.659  20.060  0.00  0.00    +0.000 A 
ATOM     18  C   UNL     1       1.164   9.457  18.929  0.00  0.00    +0.000 A 
ATOM     19  C   UNL     1       0.606  10.730  19.042  0.00  0.00    +0.000 A 
ATOM     20  C   UNL     1       0.232  11.253  20.286  0.00  0.00    +0.000 A 
ATOM     21  C   UNL     1       0.446  10.483  21.440  0.00  0.00    +0.000 A 
ATOM     22  C   UNL     1       1.022   9.205  21.308  0.00  0.00    +0.000 A 
BRANCH  20  23
ATOM     23  O   UNL     1      -0.314  12.503  20.169  0.00  0.00    +0.000 OA
ATOM     24  C   UNL     1      -0.293  13.146  18.906  0.00  0.00    +0.000 C 
ENDBRANCH  20  23
BRANCH  21  25
ATOM     25  O   UNL     1       0.100  11.020  22.653  0.00  0.00    +0.000 OA
ATOM     26  C   UNL     1      -1.246  10.894  23.093  0.00  0.00    +0.000 C 
ENDBRANCH  21  25
ENDBRANCH   3  17
BRANCH   6  27
ATOM     27  N   UNL     1       3.642   3.480  19.861  0.00  0.00    +0.000 N 
ATOM     28  H   UNL     1       4.426   3.449  19.213  0.00  0.00    +0.000 HD
ATOM     29  H   UNL     1       2.929   2.795  19.640  0.00  0.00    +0.000 HD
ENDBRANCH   6  27
TORSDOF 8
ENDMDL
MODEL 7
REMARK VINA RESULT:      -7.2      0.830      1.263
REMARK  Name = 
REMARK  11 active torsions:
REMARK  status: ('A' for Active; 'I' for Inactive)
REMARK    1  A    between atoms: C_1  and  O_2
REMARK    2  A    between atoms: O_2  and  C_3
REMARK    3  A    between atoms: C_3  and  O_4
REMARK    4  A    between atoms: O_4  and  C_5
REMARK    5  A    between atoms: C_8  and  C_9
REMARK    6  A    between atoms: C_11  and  C_12
REMARK    7  A    between atoms: C_15  and  O_16
REMARK    8  A    between atoms: O_16  and  C_17
REMARK    9  A    between atoms: C_18  and  O_19
REMARK   10  A    between atoms: O_19  and  C_20
REMARK   11  A    between atoms: C_24  and  N_25
REMARK                            x       y       z     vdW  Elec       q    Type
REMARK                         _______ _______ _______ _____ _____    ______ ____
ROOT
ATOM      1  C   UNL     1       3.479   5.245  19.133  0.00  0.00    +0.000 A 
ATOM      2  C   UNL     1       2.986   6.532  19.440  0.00  0.00    +0.000 A 
ATOM      3  C   UNL     1       1.926   6.751  20.329  0.00  0.00    +0.000 A 
ATOM      4  C   UNL     1       1.377   5.598  20.877  0.00  0.00    +0.000 A 
ATOM      5  N   UNL     1       1.810   4.337  20.637  0.00  0.00    +0.000 NA
ATOM      6  C   UNL     1       2.845   4.176  19.792  0.00  0.00    +0.000 A 
ENDROOT
BRANCH   1  10
ATOM      7  C   UNL     1       6.710   4.802  16.301  0.00  0.00    +0.000 A 
ATOM      8  C   UNL     1       5.389   4.803  15.871  0.00  0.00    +0.000 A 
ATOM      9  C   UNL     1       4.357   4.984  16.792  0.00  0.00    +0.000 A 
ATOM     10  C   UNL     1       4.603   5.106  18.174  0.00  0.00    +0.000 A 
ATOM     11  C   UNL     1       5.946   5.041  18.585  0.00  0.00    +0.000 A 
ATOM     12  C   UNL     1       6.992   4.905  17.661  0.00  0.00    +0.000 A 
BRANCH   7  13
ATOM     13  O   UNL     1       7.791   4.692  15.475  0.00  0.00    +0.000 OA
BRANCH  13  14
ATOM     14  C   UNL     1       7.495   4.837  14.085  0.00  0.00    +0.000 C 
BRANCH  14  16
ATOM     15  C   UNL     1       8.056   5.925  12.082  0.00  0.00    +0.000 C 
ATOM     16  O   UNL     1       8.376   5.769  13.459  0.00  0.00    +0.000 OA
ENDBRANCH  14  16
ENDBRANCH  13  14
ENDBRANCH   7  13
ENDBRANCH   1  10
BRANCH   3  17
ATOM     17  C   UNL     1       1.442   8.112  20.652  0.00  0.00    +0.000 A 
ATOM     18  C   UNL     1       1.094   8.474  21.960  0.00  0.00    +0.000 A 
ATOM     19  C   UNL     1       0.629   9.756  22.254  0.00  0.00    +0.000 A 
ATOM     20  C   UNL     1       0.504  10.731  21.257  0.00  0.00    +0.000 A 
ATOM     21  C   UNL     1       0.835  10.397  19.934  0.00  0.00    +0.000 A 
ATOM     22  C   UNL     1       1.292   9.095  19.654  0.00  0.00    +0.000 A 
BRANCH  20  23
ATOM     23  O   UNL     1       0.054  11.921  21.761  0.00  0.00    +0.000 OA
ATOM     24  C   UNL     1      -1.032  11.913  22.673  0.00  0.00    +0.000 C 
ENDBRANCH  20  23
BRANCH  21  25
ATOM     25  O   UNL     1       0.682  11.354  18.965  0.00  0.00    +0.000 OA
ATOM     26  C   UNL     1       1.779  12.211  18.676  0.00  0.00    +0.000 C 
ENDBRANCH  21  25
ENDBRANCH   3  17
BRANCH   6  27
ATOM     27  N   UNL     1       3.220   2.845  19.619  0.00  0.00    +0.000 N 
ATOM     28  H   UNL     1       4.171   2.852  19.259  0.00  0.00    +0.000 HD
ATOM     29  H   UNL     1       2.578   2.356  19.007  0.00  0.00    +0.000 HD
ENDBRANCH   6  27
TORSDOF 8
ENDMDL
MODEL 8
REMARK VINA RESULT:      -7.2      3.013      9.766
REMARK  Name = 
REMARK  11 active torsions:
REMARK  status: ('A' for Active; 'I' for Inactive)
REMARK    1  A    between atoms: C_1  and  O_2
REMARK    2  A    between atoms: O_2  and  C_3
REMARK    3  A    between atoms: C_3  and  O_4
REMARK    4  A    between atoms: O_4  and  C_5
REMARK    5  A    between atoms: C_8  and  C_9
REMARK    6  A    between atoms: C_11  and  C_12
REMARK    7  A    between atoms: C_15  and  O_16
REMARK    8  A    between atoms: O_16  and  C_17
REMARK    9  A    between atoms: C_18  and  O_19
REMARK   10  A    between atoms: O_19  and  C_20
REMARK   11  A    between atoms: C_24  and  N_25
REMARK                            x       y       z     vdW  Elec       q    Type
REMARK                         _______ _______ _______ _____ _____    ______ ____
ROOT
ATOM      1  C   UNL     1       0.949   9.711  19.685  0.00  0.00    +0.000 A 
ATOM      2  C   UNL     1       1.423   8.387  19.813  0.00  0.00    +0.000 A 
ATOM      3  C   UNL     1       2.228   7.767  18.849  0.00  0.00    +0.000 A 
ATOM      4  C   UNL     1       2.514   8.550  17.738  0.00  0.00    +0.000 A 
ATOM      5  N   UNL     1       2.105   9.830  17.559  0.00  0.00    +0.000 NA
ATOM      6  C   UNL     1       1.351  10.392  18.521  0.00  0.00    +0.000 A 
ENDROOT
BRANCH   1  10
ATOM      7  C   UNL     1      -1.537  11.319  22.830  0.00  0.00    +0.000 A 
ATOM      8  C   UNL     1      -0.676  10.258  23.082  0.00  0.00    +0.000 A 
ATOM      9  C   UNL     1       0.148   9.772  22.067  0.00  0.00    +0.000 A 
ATOM     10  C   UNL     1       0.096  10.285  20.755  0.00  0.00    +0.000 A 
ATOM     11  C   UNL     1      -0.828  11.317  20.516  0.00  0.00    +0.000 A 
ATOM     12  C   UNL     1      -1.627  11.841  21.542  0.00  0.00    +0.000 A 
BRANCH   7  13
ATOM     13  O   UNL     1      -2.338  11.903  23.768  0.00  0.00    +0.000 OA
BRANCH  13  14
ATOM     14  C   UNL     1      -2.702  13.254  23.482  0.00  0.00    +0.000 C 
BRANCH  14  16
ATOM     15  C   UNL     1      -4.549  12.471  24.700  0.00  0.00    +0.000 C 
ATOM     16  O   UNL     1      -3.926  13.611  24.123  0.00  0.00    +0.000 OA
ENDBRANCH  14  16
ENDBRANCH  13  14
ENDBRANCH   7  13
ENDBRANCH   1  10
BRANCH   3  17
ATOM     17  C   UNL     1       2.730   6.385  19.018  0.00  0.00    +0.000 A 
ATOM     18  C   UNL     1       2.180   5.517  19.970  0.00  0.00    +0.000 A 
ATOM     19  C   UNL     1       2.665   4.220  20.129  0.00  0.00    +0.000 A 
ATOM     20  C   UNL     1       3.711   3.732  19.336  0.00  0.00    +0.000 A 
ATOM     21  C   UNL     1       4.291   4.579  18.379  0.00  0.00    +0.000 A 
ATOM     22  C   UNL     1       3.796   5.890  18.241  0.00  0.00    +0.000 A 
BRANCH  20  23
ATOM     23  O   UNL     1       4.017   2.432  19.639  0.00  0.00    +0.000 OA
ATOM     24  C   UNL     1       3.613   1.406  18.748  0.00  0.00    +0.000 C 
ENDBRANCH  20  23
BRANCH  21  25
ATOM     25  O   UNL     1       5.332   4.096  17.629  0.00  0.00    +0.000 OA
ATOM     26  C   UNL     1       5.265   4.219  16.214  0.00  0.00    +0.000 C 
ENDBRANCH  21  25
ENDBRANCH   3  17
BRANCH   6  27
ATOM     27  N   UNL     1       0.990  11.709  18.248  0.00  0.00    +0.000 N 
ATOM     28  H   UNL     1       0.526  12.066  19.080  0.00  0.00    +0.000 HD
ATOM     29  H   UNL     1       0.406  11.769  17.422  0.00  0.00    +0.000 HD
ENDBRANCH   6  27
TORSDOF 8
ENDMDL
MODEL 9
REMARK VINA RESULT:      -7.1      3.347      9.824
REMARK  Name = 
REMARK  11 active torsions:
REMARK  status: ('A' for Active; 'I' for Inactive)
REMARK    1  A    between atoms: C_1  and  O_2
REMARK    2  A    between atoms: O_2  and  C_3
REMARK    3  A    between atoms: C_3  and  O_4
REMARK    4  A    between atoms: O_4  and  C_5
REMARK    5  A    between atoms: C_8  and  C_9
REMARK    6  A    between atoms: C_11  and  C_12
REMARK    7  A    between atoms: C_15  and  O_16
REMARK    8  A    between atoms: O_16  and  C_17
REMARK    9  A    between atoms: C_18  and  O_19
REMARK   10  A    between atoms: O_19  and  C_20
REMARK   11  A    between atoms: C_24  and  N_25
REMARK                            x       y       z     vdW  Elec       q    Type
REMARK                         _______ _______ _______ _____ _____    ______ ____
ROOT
ATOM      1  C   UNL     1       0.977   9.533  19.702  0.00  0.00    +0.000 A 
ATOM      2  C   UNL     1       1.465   8.217  19.859  0.00  0.00    +0.000 A 
ATOM      3  C   UNL     1       2.282   7.588  18.912  0.00  0.00    +0.000 A 
ATOM      4  C   UNL     1       2.564   8.351  17.786  0.00  0.00    +0.000 A 
ATOM      5  N   UNL     1       2.141   9.622  17.579  0.00  0.00    +0.000 NA
ATOM      6  C   UNL     1       1.376  10.194  18.526  0.00  0.00    +0.000 A 
ENDROOT
BRANCH   1  10
ATOM      7  C   UNL     1      -1.532  11.304  22.739  0.00  0.00    +0.000 A 
ATOM      8  C   UNL     1      -1.517  11.816  21.448  0.00  0.00    +0.000 A 
ATOM      9  C   UNL     1      -0.730  11.212  20.467  0.00  0.00    +0.000 A 
ATOM     10  C   UNL     1       0.113  10.120  20.756  0.00  0.00    +0.000 A 
ATOM     11  C   UNL     1       0.121   9.662  22.085  0.00  0.00    +0.000 A 
ATOM     12  C   UNL     1      -0.701  10.235  23.065  0.00  0.00    +0.000 A 
BRANCH   7  13
ATOM     13  O   UNL     1      -2.310  11.785  23.751  0.00  0.00    +0.000 OA
BRANCH  13  14
ATOM     14  C   UNL     1      -3.416  12.584  23.325  0.00  0.00    +0.000 C 
BRANCH  14  16
ATOM     15  C   UNL     1      -3.487  14.607  24.513  0.00  0.00    +0.000 C 
ATOM     16  O   UNL     1      -4.005  13.286  24.420  0.00  0.00    +0.000 OA
ENDBRANCH  14  16
ENDBRANCH  13  14
ENDBRANCH   7  13
ENDBRANCH   1  10
BRANCH   3  17
ATOM     17  C   UNL     1       2.798   6.215  19.111  0.00  0.00    +0.000 A 
ATOM     18  C   UNL     1       1.950   5.157  19.462  0.00  0.00    +0.000 A 
ATOM     19  C   UNL     1       2.446   3.868  19.658  0.00  0.00    +0.000 A 
ATOM     20  C   UNL     1       3.807   3.582  19.498  0.00  0.00    +0.000 A 
ATOM     21  C   UNL     1       4.687   4.621  19.156  0.00  0.00    +0.000 A 
ATOM     22  C   UNL     1       4.169   5.918  18.975  0.00  0.00    +0.000 A 
BRANCH  20  23
ATOM     23  O   UNL     1       4.078   2.257  19.714  0.00  0.00    +0.000 OA
ATOM     24  C   UNL     1       3.750   1.316  18.705  0.00  0.00    +0.000 C 
ENDBRANCH  20  23
BRANCH  21  25
ATOM     25  O   UNL     1       6.020   4.330  19.030  0.00  0.00    +0.000 OA
ATOM     26  C   UNL     1       6.941   5.405  18.891  0.00  0.00    +0.000 C 
ENDBRANCH  21  25
ENDBRANCH   3  17
BRANCH   6  27
ATOM     27  N   UNL     1       1.002  11.502  18.224  0.00  0.00    +0.000 N 
ATOM     28  H   UNL     1       0.352  11.449  17.443  0.00  0.00    +0.000 HD
ATOM     29  H   UNL     1       1.808  12.080  18.018  0.00  0.00    +0.000 HD
ENDBRANCH   6  27
TORSDOF 8
ENDMDL
