MODEL 1
REMARK VINA RESULT:      -8.5      0.000      0.000
REMARK  Name = 
REMARK  5 active torsions:
REMARK  status: ('A' for Active; 'I' for Inactive)
REMARK    1  A    between atoms: C_1  and  C_2
REMARK    2  A    between atoms: N_7  and  S_8
REMARK    3  A    between atoms: S_8  and  C_11
REMARK    4  A    between atoms: C_14  and  C_15
REMARK    5  A    between atoms: C_21  and  C_22
REMARK                            x       y       z     vdW  Elec       q    Type
REMARK                         _______ _______ _______ _____ _____    ______ ____
ROOT
ATOM      1  C   UNL     1       5.917   5.403  18.104  0.00  0.00    +0.000 A 
ATOM      2  C   UNL     1       5.477   6.552  17.442  0.00  0.00    +0.000 A 
ATOM      3  C   UNL     1       6.267   7.707  17.449  0.00  0.00    +0.000 A 
ATOM      4  C   UNL     1       7.495   7.747  18.131  0.00  0.00    +0.000 A 
ATOM      5  C   UNL     1       7.910   6.601  18.827  0.00  0.00    +0.000 A 
ATOM      6  C   UNL     1       7.118   5.440  18.822  0.00  0.00    +0.000 A 
ENDROOT
BRANCH   4   7
ATOM      7  C   UNL     1       8.276   9.036  18.091  0.00  0.00    +0.000 C 
ATOM      8  O   UNL     1       8.306   9.671  17.040  0.00  0.00    +0.000 OA
ATOM      9  N   UNL     1       8.947   9.387  19.239  0.00  0.00    +0.000 N 
ATOM     10  C   UNL     1       9.690  10.528  19.352  0.00  0.00    +0.000 A 
ATOM     11  N   UNL     1      10.508  10.809  20.344  0.00  0.00    +0.000 NA
ATOM     12  N   UNL     1      11.038  12.053  20.073  0.00  0.00    +0.000 NA
ATOM     13  C   UNL     1      10.477  12.460  18.951  0.00  0.00    +0.000 A 
ATOM     14  O   UNL     1       9.612  11.530  18.432  0.00  0.00    +0.000 OA
ATOM     15  H   UNL     1       9.027   8.774  20.031  0.00  0.00    +0.000 HD
BRANCH  13  16
ATOM     16  C   UNL     1      10.639  13.713  18.228  0.00  0.00    +0.000 A 
ATOM     17  C   UNL     1      11.861  14.011  17.613  0.00  0.00    +0.000 A 
ATOM     18  C   UNL     1      11.990  15.210  16.932  0.00  0.00    +0.000 A 
ATOM     19  N   UNL     1      11.000  16.120  16.828  0.00  0.00    +0.000 NA
ATOM     20  C   UNL     1       9.831  15.821  17.432  0.00  0.00    +0.000 A 
ATOM     21  C   UNL     1       9.605  14.648  18.134  0.00  0.00    +0.000 A 
ENDBRANCH  13  16
ENDBRANCH   4   7
BRANCH   1  22
ATOM     22  S   UNL     1       4.873   3.957  18.142  0.00  0.00    +0.000 S 
ATOM     23  O   UNL     1       5.333   3.126  19.240  0.00  0.00    +0.000 OA
ATOM     24  O   UNL     1       4.835   3.431  16.798  0.00  0.00    +0.000 OA
BRANCH  22  31
ATOM     25  C   UNL     1       1.869   5.559  20.386  0.00  0.00    +0.000 C 
ATOM     26  C   UNL     1       3.007   4.580  20.047  0.00  0.00    +0.000 C 
ATOM     27  C   UNL     1       2.666   3.159  20.498  0.00  0.00    +0.000 C 
ATOM     28  C   UNL     1       1.538   2.539  19.674  0.00  0.00    +0.000 C 
ATOM     29  C   UNL     1       1.740   2.699  18.168  0.00  0.00    +0.000 C 
ATOM     30  C   UNL     1       2.171   4.105  17.761  0.00  0.00    +0.000 C 
ATOM     31  N   UNL     1       3.320   4.589  18.571  0.00  0.00    +0.000 NA
ENDBRANCH  22  31
ENDBRANCH   1  22
TORSDOF 4
ENDMDL
MODEL 2
REMARK VINA RESULT:      -8.5      7.220     10.755
REMARK  Name = 
REMARK  5 active torsions:
REMARK  status: ('A' for Active; 'I' for Inactive)
REMARK    1  A    between atoms: C_1  and  C_2
REMARK    2  A    between atoms: N_7  and  S_8
REMARK    3  A    between atoms: S_8  and  C_11
REMARK    4  A    between atoms: C_14  and  C_15
REMARK    5  A    between atoms: C_21  and  C_22
REMARK                            x       y       z     vdW  Elec       q    Type
REMARK                         _______ _______ _______ _____ _____    ______ ____
ROOT
ATOM      1  C   UNL     1      -1.076  11.151  22.285  0.00  0.00    +0.000 A 
ATOM      2  C   UNL     1      -0.629  11.293  20.969  0.00  0.00    +0.000 A 
ATOM      3  C   UNL     1       0.182  10.305  20.397  0.00  0.00    +0.000 A 
ATOM      4  C   UNL     1       0.578   9.172  21.129  0.00  0.00    +0.000 A 
ATOM      5  C   UNL     1       0.157   9.059  22.463  0.00  0.00    +0.000 A 
ATOM      6  C   UNL     1      -0.656  10.050  23.040  0.00  0.00    +0.000 A 
ENDROOT
BRANCH   4   7
ATOM      7  C   UNL     1       1.457   8.163  20.435  0.00  0.00    +0.000 C 
ATOM      8  O   UNL     1       2.029   8.496  19.401  0.00  0.00    +0.000 OA
ATOM      9  N   UNL     1       1.518   6.909  20.996  0.00  0.00    +0.000 N 
ATOM     10  C   UNL     1       2.276   5.895  20.481  0.00  0.00    +0.000 A 
ATOM     11  N   UNL     1       2.214   4.634  20.852  0.00  0.00    +0.000 NA
ATOM     12  N   UNL     1       3.150   3.959  20.097  0.00  0.00    +0.000 NA
ATOM     13  C   UNL     1       3.744   4.864  19.343  0.00  0.00    +0.000 A 
ATOM     14  O   UNL     1       3.228   6.121  19.533  0.00  0.00    +0.000 OA
ATOM     15  H   UNL     1       0.923   6.623  21.753  0.00  0.00    +0.000 HD
BRANCH  13  16
ATOM     16  C   UNL     1       4.833   4.714  18.389  0.00  0.00    +0.000 A 
ATOM     17  C   UNL     1       6.135   5.076  18.755  0.00  0.00    +0.000 A 
ATOM     18  C   UNL     1       7.154   4.924  17.830  0.00  0.00    +0.000 A 
ATOM     19  N   UNL     1       6.965   4.447  16.582  0.00  0.00    +0.000 NA
ATOM     20  C   UNL     1       5.704   4.110  16.244  0.00  0.00    +0.000 A 
ATOM     21  C   UNL     1       4.620   4.224  17.099  0.00  0.00    +0.000 A 
ENDBRANCH  13  16
ENDBRANCH   4   7
BRANCH   1  22
ATOM     22  S   UNL     1      -2.056  12.447  23.024  0.00  0.00    +0.000 S 
ATOM     23  O   UNL     1      -1.151  13.276  23.800  0.00  0.00    +0.000 OA
ATOM     24  O   UNL     1      -3.184  11.809  23.658  0.00  0.00    +0.000 OA
BRANCH  22  31
ATOM     25  C   UNL     1      -2.712  15.644  20.581  0.00  0.00    +0.000 C 
ATOM     26  C   UNL     1      -2.705  14.860  21.905  0.00  0.00    +0.000 C 
ATOM     27  C   UNL     1      -3.957  15.159  22.731  0.00  0.00    +0.000 C 
ATOM     28  C   UNL     1      -5.225  14.587  22.099  0.00  0.00    +0.000 C 
ATOM     29  C   UNL     1      -5.074  13.127  21.674  0.00  0.00    +0.000 C 
ATOM     30  C   UNL     1      -3.771  12.842  20.934  0.00  0.00    +0.000 C 
ATOM     31  N   UNL     1      -2.591  13.375  21.664  0.00  0.00    +0.000 NA
ENDBRANCH  22  31
ENDBRANCH   1  22
TORSDOF 4
ENDMDL
MODEL 3
REMARK VINA RESULT:      -8.3      7.148     10.642
REMARK  Name = 
REMARK  5 active torsions:
REMARK  status: ('A' for Active; 'I' for Inactive)
REMARK    1  A    between atoms: C_1  and  C_2
REMARK    2  A    between atoms: N_7  and  S_8
REMARK    3  A    between atoms: S_8  and  C_11
REMARK    4  A    between atoms: C_14  and  C_15
REMARK    5  A    between atoms: C_21  and  C_22
REMARK                            x       y       z     vdW  Elec       q    Type
REMARK                         _______ _______ _______ _____ _____    ______ ____
ROOT
ATOM      1  C   UNL     1      -1.250  11.075  21.885  0.00  0.00    +0.000 A 
ATOM      2  C   UNL     1      -0.988  11.023  20.514  0.00  0.00    +0.000 A 
ATOM      3  C   UNL     1      -0.093  10.072  20.009  0.00  0.00    +0.000 A 
ATOM      4  C   UNL     1       0.573   9.173  20.860  0.00  0.00    +0.000 A 
ATOM      5  C   UNL     1       0.334   9.260  22.240  0.00  0.00    +0.000 A 
ATOM      6  C   UNL     1      -0.564  10.214  22.750  0.00  0.00    +0.000 A 
ENDROOT
BRANCH   4   7
ATOM      7  C   UNL     1       1.524   8.187  20.230  0.00  0.00    +0.000 C 
ATOM      8  O   UNL     1       2.147   8.531  19.230  0.00  0.00    +0.000 OA
ATOM      9  N   UNL     1       1.591   6.940  20.806  0.00  0.00    +0.000 N 
ATOM     10  C   UNL     1       2.411   5.948  20.349  0.00  0.00    +0.000 A 
ATOM     11  N   UNL     1       2.367   4.688  20.727  0.00  0.00    +0.000 NA
ATOM     12  N   UNL     1       3.369   4.038  20.037  0.00  0.00    +0.000 NA
ATOM     13  C   UNL     1       3.978   4.956  19.312  0.00  0.00    +0.000 A 
ATOM     14  O   UNL     1       3.412   6.197  19.457  0.00  0.00    +0.000 OA
ATOM     15  H   UNL     1       0.961   6.640  21.529  0.00  0.00    +0.000 HD
BRANCH  13  16
ATOM     16  C   UNL     1       5.128   4.835  18.427  0.00  0.00    +0.000 A 
ATOM     17  C   UNL     1       4.958   4.343  17.127  0.00  0.00    +0.000 A 
ATOM     18  C   UNL     1       6.067   4.237  16.305  0.00  0.00    +0.000 A 
ATOM     19  N   UNL     1       7.315   4.578  16.686  0.00  0.00    +0.000 NA
ATOM     20  C   UNL     1       7.462   5.044  17.943  0.00  0.00    +0.000 A 
ATOM     21  C   UNL     1       6.415   5.187  18.839  0.00  0.00    +0.000 A 
ENDBRANCH  13  16
ENDBRANCH   4   7
BRANCH   1  22
ATOM     22  S   UNL     1      -2.343  12.332  22.523  0.00  0.00    +0.000 S 
ATOM     23  O   UNL     1      -3.090  11.733  23.615  0.00  0.00    +0.000 OA
ATOM     24  O   UNL     1      -3.037  12.899  21.391  0.00  0.00    +0.000 OA
BRANCH  22  31
ATOM     25  C   UNL     1      -0.938  15.337  24.893  0.00  0.00    +0.000 C 
ATOM     26  C   UNL     1      -1.927  14.633  23.947  0.00  0.00    +0.000 C 
ATOM     27  C   UNL     1      -2.542  15.623  22.956  0.00  0.00    +0.000 C 
ATOM     28  C   UNL     1      -1.527  16.135  21.935  0.00  0.00    +0.000 C 
ATOM     29  C   UNL     1      -0.707  15.017  21.294  0.00  0.00    +0.000 C 
ATOM     30  C   UNL     1      -0.186  13.994  22.299  0.00  0.00    +0.000 C 
ATOM     31  N   UNL     1      -1.263  13.503  23.199  0.00  0.00    +0.000 NA
ENDBRANCH  22  31
ENDBRANCH   1  22
TORSDOF 4
ENDMDL
MODEL 4
REMARK VINA RESULT:      -8.3      7.239      8.984
REMARK  Name = 
REMARK  5 active torsions:
REMARK  status: ('A' for Active; 'I' for Inactive)
REMARK    1  A    between atoms: C_1  and  C_2
REMARK    2  A    between atoms: N_7  and  S_8
REMARK    3  A    between atoms: S_8  and  C_11
REMARK    4  A    between atoms: C_14  and  C_15
REMARK    5  A    between atoms: C_21  and  C_22
REMARK                            x       y       z     vdW  Elec       q    Type
REMARK                         _______ _______ _______ _____ _____    ______ ____
ROOT
ATOM      1  C   UNL     1       2.497   7.029  19.036  0.00  0.00    +0.000 A 
ATOM      2  C   UNL     1       1.988   7.276  20.313  0.00  0.00    +0.000 A 
ATOM      3  C   UNL     1       1.330   8.482  20.582  0.00  0.00    +0.000 A 
ATOM      4  C   UNL     1       1.185   9.470  19.593  0.00  0.00    +0.000 A 
ATOM      5  C   UNL     1       1.734   9.230  18.324  0.00  0.00    +0.000 A 
ATOM      6  C   UNL     1       2.397   8.020  18.052  0.00  0.00    +0.000 A 
ENDROOT
BRANCH   4   7
ATOM      7  C   UNL     1       0.467  10.741  19.973  0.00  0.00    +0.000 C 
ATOM      8  O   UNL     1       0.280  11.590  19.106  0.00  0.00    +0.000 OA
ATOM      9  N   UNL     1       0.112  10.877  21.294  0.00  0.00    +0.000 N 
ATOM     10  C   UNL     1      -0.547  11.969  21.783  0.00  0.00    +0.000 A 
ATOM     11  N   UNL     1      -0.728  12.242  23.058  0.00  0.00    +0.000 NA
ATOM     12  N   UNL     1      -1.448  13.418  23.106  0.00  0.00    +0.000 NA
ATOM     13  C   UNL     1      -1.686  13.761  21.855  0.00  0.00    +0.000 A 
ATOM     14  O   UNL     1      -1.131  12.884  20.958  0.00  0.00    +0.000 OA
ATOM     15  H   UNL     1       0.412  10.235  22.007  0.00  0.00    +0.000 HD
BRANCH  13  16
ATOM     16  C   UNL     1      -2.436  14.890  21.324  0.00  0.00    +0.000 A 
ATOM     17  C   UNL     1      -3.809  14.995  21.576  0.00  0.00    +0.000 A 
ATOM     18  C   UNL     1      -4.500  16.079  21.060  0.00  0.00    +0.000 A 
ATOM     19  N   UNL     1      -3.925  17.048  20.318  0.00  0.00    +0.000 NA
ATOM     20  C   UNL     1      -2.603  16.928  20.080  0.00  0.00    +0.000 A 
ATOM     21  C   UNL     1      -1.826  15.883  20.553  0.00  0.00    +0.000 A 
ENDBRANCH  13  16
ENDBRANCH   4   7
BRANCH   1  22
ATOM     22  S   UNL     1       3.389   5.517  18.723  0.00  0.00    +0.000 S 
ATOM     23  O   UNL     1       4.546   5.514  19.601  0.00  0.00    +0.000 OA
ATOM     24  O   UNL     1       3.561   5.418  17.293  0.00  0.00    +0.000 OA
BRANCH  22  31
ATOM     25  C   UNL     1       1.728   2.646  21.093  0.00  0.00    +0.000 C 
ATOM     26  C   UNL     1       2.856   3.371  20.338  0.00  0.00    +0.000 C 
ATOM     27  C   UNL     1       3.834   2.374  19.715  0.00  0.00    +0.000 C 
ATOM     28  C   UNL     1       3.212   1.589  18.560  0.00  0.00    +0.000 C 
ATOM     29  C   UNL     1       2.484   2.481  17.556  0.00  0.00    +0.000 C 
ATOM     30  C   UNL     1       1.588   3.527  18.212  0.00  0.00    +0.000 C 
ATOM     31  N   UNL     1       2.304   4.285  19.272  0.00  0.00    +0.000 NA
ENDBRANCH  22  31
ENDBRANCH   1  22
TORSDOF 4
ENDMDL
MODEL 5
REMARK VINA RESULT:      -8.2      6.995     10.436
REMARK  Name = 
REMARK  5 active torsions:
REMARK  status: ('A' for Active; 'I' for Inactive)
REMARK    1  A    between atoms: C_1  and  C_2
REMARK    2  A    between atoms: N_7  and  S_8
REMARK    3  A    between atoms: S_8  and  C_11
REMARK    4  A    between atoms: C_14  and  C_15
REMARK    5  A    between atoms: C_21  and  C_22
REMARK                            x       y       z     vdW  Elec       q    Type
REMARK                         _______ _______ _______ _____ _____    ______ ____
ROOT
ATOM      1  C   UNL     1      -1.061  11.551  20.351  0.00  0.00    +0.000 A 
ATOM      2  C   UNL     1      -1.005  11.066  19.043  0.00  0.00    +0.000 A 
ATOM      3  C   UNL     1      -0.090  10.060  18.709  0.00  0.00    +0.000 A 
ATOM      4  C   UNL     1       0.798   9.536  19.664  0.00  0.00    +0.000 A 
ATOM      5  C   UNL     1       0.761  10.058  20.967  0.00  0.00    +0.000 A 
ATOM      6  C   UNL     1      -0.156  11.069  21.304  0.00  0.00    +0.000 A 
ENDROOT
BRANCH   4   7
ATOM      7  C   UNL     1       1.754   8.460  19.215  0.00  0.00    +0.000 C 
ATOM      8  O   UNL     1       2.387   8.634  18.178  0.00  0.00    +0.000 OA
ATOM      9  N   UNL     1       1.812   7.324  19.989  0.00  0.00    +0.000 N 
ATOM     10  C   UNL     1       2.634   6.270  19.709  0.00  0.00    +0.000 A 
ATOM     11  N   UNL     1       2.583   5.090  20.289  0.00  0.00    +0.000 NA
ATOM     12  N   UNL     1       3.591   4.334  19.725  0.00  0.00    +0.000 NA
ATOM     13  C   UNL     1       4.210   5.121  18.866  0.00  0.00    +0.000 A 
ATOM     14  O   UNL     1       3.644   6.369  18.799  0.00  0.00    +0.000 OA
ATOM     15  H   UNL     1       1.173   7.147  20.744  0.00  0.00    +0.000 HD
BRANCH  13  16
ATOM     16  C   UNL     1       5.368   4.855  18.025  0.00  0.00    +0.000 A 
ATOM     17  C   UNL     1       5.188   4.500  16.682  0.00  0.00    +0.000 A 
ATOM     18  C   UNL     1       6.306   4.253  15.904  0.00  0.00    +0.000 A 
ATOM     19  N   UNL     1       7.571   4.329  16.365  0.00  0.00    +0.000 NA
ATOM     20  C   UNL     1       7.726   4.665  17.662  0.00  0.00    +0.000 A 
ATOM     21  C   UNL     1       6.672   4.933  18.520  0.00  0.00    +0.000 A 
ENDBRANCH  13  16
ENDBRANCH   4   7
BRANCH   1  22
ATOM     22  S   UNL     1      -2.187  12.876  20.749  0.00  0.00    +0.000 S 
ATOM     23  O   UNL     1      -3.449  12.576  20.095  0.00  0.00    +0.000 OA
ATOM     24  O   UNL     1      -1.498  14.112  20.466  0.00  0.00    +0.000 OA
BRANCH  22  31
ATOM     25  C   UNL     1      -4.058  12.296  24.325  0.00  0.00    +0.000 C 
ATOM     26  C   UNL     1      -3.840  12.913  22.931  0.00  0.00    +0.000 C 
ATOM     27  C   UNL     1      -4.183  14.403  22.927  0.00  0.00    +0.000 C 
ATOM     28  C   UNL     1      -3.187  15.235  23.736  0.00  0.00    +0.000 C 
ATOM     29  C   UNL     1      -1.732  14.914  23.402  0.00  0.00    +0.000 C 
ATOM     30  C   UNL     1      -1.444  13.417  23.322  0.00  0.00    +0.000 C 
ATOM     31  N   UNL     1      -2.423  12.710  22.455  0.00  0.00    +0.000 NA
ENDBRANCH  22  31
ENDBRANCH   1  22
TORSDOF 4
ENDMDL
MODEL 6
REMARK VINA RESULT:      -8.2      7.316      9.323
REMARK  Name = 
REMARK  5 active torsions:
REMARK  status: ('A' for Active; 'I' for Inactive)
REMARK    1  A    between atoms: C_1  and  C_2
REMARK    2  A    between atoms: N_7  and  S_8
REMARK    3  A    between atoms: S_8  and  C_11
REMARK    4  A    between atoms: C_14  and  C_15
REMARK    5  A    between atoms: C_21  and  C_22
REMARK                            x       y       z     vdW  Elec       q    Type
REMARK                         _______ _______ _______ _____ _____    ______ ____
ROOT
ATOM      1  C   UNL     1       2.426   7.065  19.281  0.00  0.00    +0.000 A 
ATOM      2  C   UNL     1       2.206   8.070  18.336  0.00  0.00    +0.000 A 
ATOM      3  C   UNL     1       1.461   9.203  18.682  0.00  0.00    +0.000 A 
ATOM      4  C   UNL     1       0.904   9.347  19.964  0.00  0.00    +0.000 A 
ATOM      5  C   UNL     1       1.096   8.313  20.894  0.00  0.00    +0.000 A 
ATOM      6  C   UNL     1       1.843   7.173  20.549  0.00  0.00    +0.000 A 
ENDROOT
BRANCH   4   7
ATOM      7  C   UNL     1       0.111  10.597  20.247  0.00  0.00    +0.000 C 
ATOM      8  O   UNL     1      -0.214  11.311  19.303  0.00  0.00    +0.000 OA
ATOM      9  N   UNL     1      -0.154  10.875  21.568  0.00  0.00    +0.000 N 
ATOM     10  C   UNL     1      -0.865  11.968  21.975  0.00  0.00    +0.000 A 
ATOM     11  N   UNL     1      -0.972  12.388  23.217  0.00  0.00    +0.000 NA
ATOM     12  N   UNL     1      -1.784  13.502  23.184  0.00  0.00    +0.000 NA
ATOM     13  C   UNL     1      -2.146  13.662  21.926  0.00  0.00    +0.000 A 
ATOM     14  O   UNL     1      -1.588  12.721  21.098  0.00  0.00    +0.000 OA
ATOM     15  H   UNL     1       0.254  10.355  22.325  0.00  0.00    +0.000 HD
BRANCH  13  16
ATOM     16  C   UNL     1      -3.029  14.653  21.328  0.00  0.00    +0.000 A 
ATOM     17  C   UNL     1      -4.351  14.312  21.019  0.00  0.00    +0.000 A 
ATOM     18  C   UNL     1      -5.171  15.273  20.451  0.00  0.00    +0.000 A 
ATOM     19  N   UNL     1      -4.768  16.529  20.170  0.00  0.00    +0.000 NA
ATOM     20  C   UNL     1      -3.489  16.839  20.468  0.00  0.00    +0.000 A 
ATOM     21  C   UNL     1      -2.594  15.949  21.039  0.00  0.00    +0.000 A 
ENDBRANCH  13  16
ENDBRANCH   4   7
BRANCH   1  22
ATOM     22  S   UNL     1       3.322   5.596  18.810  0.00  0.00    +0.000 S 
ATOM     23  O   UNL     1       4.509   5.534  19.644  0.00  0.00    +0.000 OA
ATOM     24  O   UNL     1       3.444   5.622  17.372  0.00  0.00    +0.000 OA
BRANCH  22  31
ATOM     25  C   UNL     1       1.705   2.592  21.042  0.00  0.00    +0.000 C 
ATOM     26  C   UNL     1       2.826   3.383  20.343  0.00  0.00    +0.000 C 
ATOM     27  C   UNL     1       3.860   2.444  19.721  0.00  0.00    +0.000 C 
ATOM     28  C   UNL     1       3.303   1.672  18.524  0.00  0.00    +0.000 C 
ATOM     29  C   UNL     1       2.570   2.566  17.526  0.00  0.00    +0.000 C 
ATOM     30  C   UNL     1       1.615   3.556  18.186  0.00  0.00    +0.000 C 
ATOM     31  N   UNL     1       2.271   4.308  19.289  0.00  0.00    +0.000 NA
ENDBRANCH  22  31
ENDBRANCH   1  22
TORSDOF 4
ENDMDL
MODEL 7
REMARK VINA RESULT:      -8.2      6.297      9.181
REMARK  Name = 
REMARK  5 active torsions:
REMARK  status: ('A' for Active; 'I' for Inactive)
REMARK    1  A    between atoms: C_1  and  C_2
REMARK    2  A    between atoms: N_7  and  S_8
REMARK    3  A    between atoms: S_8  and  C_11
REMARK    4  A    between atoms: C_14  and  C_15
REMARK    5  A    between atoms: C_21  and  C_22
REMARK                            x       y       z     vdW  Elec       q    Type
REMARK                         _______ _______ _______ _____ _____    ______ ____
ROOT
ATOM      1  C   UNL     1       3.048   5.833  19.005  0.00  0.00    +0.000 A 
ATOM      2  C   UNL     1       2.872   7.053  18.348  0.00  0.00    +0.000 A 
ATOM      3  C   UNL     1       2.127   8.072  18.955  0.00  0.00    +0.000 A 
ATOM      4  C   UNL     1       1.527   7.887  20.212  0.00  0.00    +0.000 A 
ATOM      5  C   UNL     1       1.675   6.643  20.846  0.00  0.00    +0.000 A 
ATOM      6  C   UNL     1       2.422   5.619  20.239  0.00  0.00    +0.000 A 
ENDROOT
BRANCH   4   7
ATOM      7  C   UNL     1       0.737   9.035  20.786  0.00  0.00    +0.000 C 
ATOM      8  O   UNL     1      -0.405   8.821  21.184  0.00  0.00    +0.000 OA
ATOM      9  N   UNL     1       1.346  10.268  20.779  0.00  0.00    +0.000 N 
ATOM     10  C   UNL     1       0.755  11.398  21.270  0.00  0.00    +0.000 A 
ATOM     11  N   UNL     1       1.202  12.625  21.105  0.00  0.00    +0.000 NA
ATOM     12  N   UNL     1       0.322  13.453  21.770  0.00  0.00    +0.000 NA
ATOM     13  C   UNL     1      -0.581  12.669  22.325  0.00  0.00    +0.000 A 
ATOM     14  O   UNL     1      -0.369  11.344  22.039  0.00  0.00    +0.000 OA
ATOM     15  H   UNL     1       2.218  10.441  20.310  0.00  0.00    +0.000 HD
BRANCH  13  16
ATOM     16  C   UNL     1      -1.715  13.006  23.172  0.00  0.00    +0.000 A 
ATOM     17  C   UNL     1      -2.778  12.105  23.307  0.00  0.00    +0.000 A 
ATOM     18  C   UNL     1      -3.845  12.449  24.119  0.00  0.00    +0.000 A 
ATOM     19  N   UNL     1      -3.926  13.615  24.792  0.00  0.00    +0.000 NA
ATOM     20  C   UNL     1      -2.897  14.475  24.647  0.00  0.00    +0.000 A 
ATOM     21  C   UNL     1      -1.787  14.221  23.859  0.00  0.00    +0.000 A 
ENDBRANCH  13  16
ENDBRANCH   4   7
BRANCH   1  22
ATOM     22  S   UNL     1       3.946   4.521  18.195  0.00  0.00    +0.000 S 
ATOM     23  O   UNL     1       3.309   4.299  16.909  0.00  0.00    +0.000 OA
ATOM     24  O   UNL     1       4.062   3.442  19.147  0.00  0.00    +0.000 OA
BRANCH  22  31
ATOM     25  C   UNL     1       6.806   7.287  17.305  0.00  0.00    +0.000 C 
ATOM     26  C   UNL     1       5.493   6.506  17.117  0.00  0.00    +0.000 C 
ATOM     27  C   UNL     1       5.232   6.214  15.638  0.00  0.00    +0.000 C 
ATOM     28  C   UNL     1       6.221   5.202  15.058  0.00  0.00    +0.000 C 
ATOM     29  C   UNL     1       6.389   3.962  15.934  0.00  0.00    +0.000 C 
ATOM     30  C   UNL     1       6.554   4.284  17.416  0.00  0.00    +0.000 C 
ATOM     31  N   UNL     1       5.503   5.217  17.901  0.00  0.00    +0.000 NA
ENDBRANCH  22  31
ENDBRANCH   1  22
TORSDOF 4
ENDMDL
MODEL 8
REMARK VINA RESULT:      -8.2      8.289     11.676
REMARK  Name = 
REMARK  5 active torsions:
REMARK  status: ('A' for Active; 'I' for Inactive)
REMARK    1  A    between atoms: C_1  and  C_2
REMARK    2  A    between atoms: N_7  and  S_8
REMARK    3  A    between atoms: S_8  and  C_11
REMARK    4  A    between atoms: C_14  and  C_15
REMARK    5  A    between atoms: C_21  and  C_22
REMARK                            x       y       z     vdW  Elec       q    Type
REMARK                         _______ _______ _______ _____ _____    ______ ____
ROOT
ATOM      1  C   UNL     1      -2.275  12.454  22.332  0.00  0.00    +0.000 A 
ATOM      2  C   UNL     1      -1.722  11.450  23.130  0.00  0.00    +0.000 A 
ATOM      3  C   UNL     1      -0.796  10.554  22.584  0.00  0.00    +0.000 A 
ATOM      4  C   UNL     1      -0.421  10.627  21.231  0.00  0.00    +0.000 A 
ATOM      5  C   UNL     1      -1.013  11.614  20.427  0.00  0.00    +0.000 A 
ATOM      6  C   UNL     1      -1.944  12.515  20.973  0.00  0.00    +0.000 A 
ENDROOT
BRANCH   4   7
ATOM      7  C   UNL     1       0.578   9.617  20.726  0.00  0.00    +0.000 C 
ATOM      8  O   UNL     1       1.104   8.858  21.536  0.00  0.00    +0.000 OA
ATOM      9  N   UNL     1       0.864   9.651  19.382  0.00  0.00    +0.000 N 
ATOM     10  C   UNL     1       1.744   8.795  18.782  0.00  0.00    +0.000 A 
ATOM     11  N   UNL     1       2.205   8.913  17.555  0.00  0.00    +0.000 NA
ATOM     12  N   UNL     1       3.045   7.838  17.349  0.00  0.00    +0.000 NA
ATOM     13  C   UNL     1       3.009   7.120  18.455  0.00  0.00    +0.000 A 
ATOM     14  O   UNL     1       2.203   7.678  19.414  0.00  0.00    +0.000 OA
ATOM     15  H   UNL     1       0.533  10.379  18.774  0.00  0.00    +0.000 HD
BRANCH  13  16
ATOM     16  C   UNL     1       3.671   5.863  18.773  0.00  0.00    +0.000 A 
ATOM     17  C   UNL     1       2.978   4.867  19.472  0.00  0.00    +0.000 A 
ATOM     18  C   UNL     1       3.630   3.681  19.762  0.00  0.00    +0.000 A 
ATOM     19  N   UNL     1       4.907   3.425  19.412  0.00  0.00    +0.000 NA
ATOM     20  C   UNL     1       5.563   4.397  18.745  0.00  0.00    +0.000 A 
ATOM     21  C   UNL     1       4.997   5.616  18.408  0.00  0.00    +0.000 A 
ENDBRANCH  13  16
ENDBRANCH   4   7
BRANCH   1  22
ATOM     22  S   UNL     1      -3.502  13.551  23.023  0.00  0.00    +0.000 S 
ATOM     23  O   UNL     1      -3.500  14.757  22.214  0.00  0.00    +0.000 OA
ATOM     24  O   UNL     1      -3.247  13.625  24.442  0.00  0.00    +0.000 OA
BRANCH  22  31
ATOM     25  C   UNL     1      -6.634  11.870  21.026  0.00  0.00    +0.000 C 
ATOM     26  C   UNL     1      -5.615  12.967  21.383  0.00  0.00    +0.000 C 
ATOM     27  C   UNL     1      -6.260  14.353  21.349  0.00  0.00    +0.000 C 
ATOM     28  C   UNL     1      -7.267  14.557  22.481  0.00  0.00    +0.000 C 
ATOM     29  C   UNL     1      -6.722  14.140  23.846  0.00  0.00    +0.000 C 
ATOM     30  C   UNL     1      -6.001  12.795  23.826  0.00  0.00    +0.000 C 
ATOM     31  N   UNL     1      -4.994  12.722  22.735  0.00  0.00    +0.000 NA
ENDBRANCH  22  31
ENDBRANCH   1  22
TORSDOF 4
ENDMDL
MODEL 9
REMARK VINA RESULT:      -8.2      7.302      9.469
REMARK  Name = 
REMARK  5 active torsions:
REMARK  status: ('A' for Active; 'I' for Inactive)
REMARK    1  A    between atoms: C_1  and  C_2
REMARK    2  A    between atoms: N_7  and  S_8
REMARK    3  A    between atoms: S_8  and  C_11
REMARK    4  A    between atoms: C_14  and  C_15
REMARK    5  A    between atoms: C_21  and  C_22
REMARK                            x       y       z     vdW  Elec       q    Type
REMARK                         _______ _______ _______ _____ _____    ______ ____
ROOT
ATOM      1  C   UNL     1       2.396   7.151  19.234  0.00  0.00    +0.000 A 
ATOM      2  C   UNL     1       1.993   7.091  20.570  0.00  0.00    +0.000 A 
ATOM      3  C   UNL     1       1.242   8.136  21.121  0.00  0.00    +0.000 A 
ATOM      4  C   UNL     1       0.898   9.267  20.360  0.00  0.00    +0.000 A 
ATOM      5  C   UNL     1       1.342   9.336  19.030  0.00  0.00    +0.000 A 
ATOM      6  C   UNL     1       2.097   8.289  18.475  0.00  0.00    +0.000 A 
ENDROOT
BRANCH   4   7
ATOM      7  C   UNL     1       0.093  10.348  21.036  0.00  0.00    +0.000 C 
ATOM      8  O   UNL     1       0.249  10.527  22.241  0.00  0.00    +0.000 OA
ATOM      9  N   UNL     1      -0.805  11.032  20.250  0.00  0.00    +0.000 N 
ATOM     10  C   UNL     1      -1.597  12.039  20.724  0.00  0.00    +0.000 A 
ATOM     11  N   UNL     1      -2.606  12.582  20.076  0.00  0.00    +0.000 NA
ATOM     12  N   UNL     1      -3.117  13.562  20.902  0.00  0.00    +0.000 NA
ATOM     13  C   UNL     1      -2.360  13.572  21.982  0.00  0.00    +0.000 A 
ATOM     14  O   UNL     1      -1.375  12.618  21.937  0.00  0.00    +0.000 OA
ATOM     15  H   UNL     1      -1.018  10.761  19.307  0.00  0.00    +0.000 HD
BRANCH  13  16
ATOM     16  C   UNL     1      -2.421  14.429  23.156  0.00  0.00    +0.000 A 
ATOM     17  C   UNL     1      -1.279  14.616  23.944  0.00  0.00    +0.000 A 
ATOM     18  C   UNL     1      -1.363  15.437  25.055  0.00  0.00    +0.000 A 
ATOM     19  N   UNL     1      -2.491  16.071  25.433  0.00  0.00    +0.000 NA
ATOM     20  C   UNL     1      -3.585  15.875  24.667  0.00  0.00    +0.000 A 
ATOM     21  C   UNL     1      -3.600  15.075  23.537  0.00  0.00    +0.000 A 
ENDBRANCH  13  16
ENDBRANCH   4   7
BRANCH   1  22
ATOM     22  S   UNL     1       3.406   5.843  18.562  0.00  0.00    +0.000 S 
ATOM     23  O   UNL     1       4.404   5.516  19.565  0.00  0.00    +0.000 OA
ATOM     24  O   UNL     1       3.812   6.262  17.242  0.00  0.00    +0.000 OA
BRANCH  22  31
ATOM     25  C   UNL     1       0.773   2.933  19.666  0.00  0.00    +0.000 C 
ATOM     26  C   UNL     1       2.068   3.763  19.735  0.00  0.00    +0.000 C 
ATOM     27  C   UNL     1       3.273   2.881  20.066  0.00  0.00    +0.000 C 
ATOM     28  C   UNL     1       3.634   1.932  18.923  0.00  0.00    +0.000 C 
ATOM     29  C   UNL     1       3.709   2.632  17.567  0.00  0.00    +0.000 C 
ATOM     30  C   UNL     1       2.539   3.576  17.307  0.00  0.00    +0.000 C 
ATOM     31  N   UNL     1       2.314   4.506  18.446  0.00  0.00    +0.000 NA
ENDBRANCH  22  31
ENDBRANCH   1  22
TORSDOF 4
ENDMDL
