MODEL 1
REMARK VINA RESULT:      -7.5      0.000      0.000
REMARK  Name = 
REMARK  10 active torsions:
REMARK  status: ('A' for Active; 'I' for Inactive)
REMARK    1  A    between atoms: C_1  and  C_2
REMARK    2  A    between atoms: C_3  and  C_4
REMARK    3  A    between atoms: C_4  and  N_5
REMARK    4  A    between atoms: N_5  and  C_6
REMARK    5  A    between atoms: C_6  and  C_7
REMARK    6  A    between atoms: C_7  and  C_8
REMARK    7  A    between atoms: C_13  and  C_14
REMARK    8  A    between atoms: C_14  and  O_16
REMARK    9  A    between atoms: C_17  and  C_18
REMARK   10  A    between atoms: N_19  and  C_20
REMARK                            x       y       z     vdW  Elec       q    Type
REMARK                         _______ _______ _______ _____ _____    ______ ____
ROOT
ATOM      1  C   UNL     1       3.079   7.352  18.268  0.00  0.00    +0.000 C 
ATOM      2  C   UNL     1       3.071   6.011  18.934  0.00  0.00    +0.000 A 
ATOM      3  C   UNL     1       2.253   5.610  19.988  0.00  0.00    +0.000 A 
ATOM      4  C   UNL     1       2.543   4.234  20.256  0.00  0.00    +0.000 A 
ATOM      5  C   UNL     1       3.548   3.844  19.371  0.00  0.00    +0.000 A 
ATOM      6  C   UNL     1       4.322   2.560  19.389  0.00  0.00    +0.000 C 
ATOM      7  N   UNL     1       3.854   4.922  18.523  0.00  0.00    +0.000 N 
ENDROOT
BRANCH   7   8
ATOM      8  C   UNL     1       4.786   4.900  17.419  0.00  0.00    +0.000 A 
ATOM      9  C   UNL     1       4.421   4.357  16.176  0.00  0.00    +0.000 A 
ATOM     10  C   UNL     1       5.315   4.350  15.097  0.00  0.00    +0.000 A 
ATOM     11  C   UNL     1       6.573   4.925  15.233  0.00  0.00    +0.000 A 
ATOM     12 CL   UNL     1       7.653   4.959  13.895  0.00  0.00    +0.000 Cl
ATOM     13  C   UNL     1       6.956   5.474  16.449  0.00  0.00    +0.000 A 
ATOM     14  C   UNL     1       6.077   5.439  17.541  0.00  0.00    +0.000 A 
ENDBRANCH   7   8
BRANCH   4  15
ATOM     15  C   UNL     1       1.938   3.421  21.326  0.00  0.00    +0.000 C 
ATOM     16  O   UNL     1       2.469   3.224  22.410  0.00  0.00    +0.000 OA
BRANCH  15  17
ATOM     17  O   UNL     1       0.714   2.918  21.038  0.00  0.00    +0.000 OA
ATOM     18  H   UNL     1       0.041   3.276  21.645  0.00  0.00    +0.000 HD
ENDBRANCH  15  17
ENDBRANCH   4  15
BRANCH   3  19
ATOM     19  C   UNL     1       1.212   6.441  20.698  0.00  0.00    +0.000 C 
BRANCH  19  20
ATOM     20  N   UNL     1       1.741   7.720  21.168  0.00  0.00    +0.000 NA
ATOM     21  H   UNL     1       2.222   8.174  20.380  0.00  0.00    +0.000 HD
BRANCH  20  22
ATOM     22  C   UNL     1       0.746   8.648  21.714  0.00  0.00    +0.000 C 
BRANCH  22  23
ATOM     23  C   UNL     1       0.843  10.047  21.102  0.00  0.00    +0.000 C 
BRANCH  23  24
ATOM     24  C   UNL     1      -0.014  10.204  19.902  0.00  0.00    +0.000 A 
ATOM     25  C   UNL     1       0.080   9.744  18.606  0.00  0.00    +0.000 A 
ATOM     26  C   UNL     1      -1.003  10.319  17.902  0.00  0.00    +0.000 A 
ATOM     27  C   UNL     1      -1.699  11.075  18.818  0.00  0.00    +0.000 A 
ATOM     28  O   UNL     1      -1.108  11.007  20.038  0.00  0.00    +0.000 OA
ENDBRANCH  23  24
ENDBRANCH  22  23
ENDBRANCH  20  22
ENDBRANCH  19  20
ENDBRANCH   3  19
TORSDOF 8
ENDMDL
MODEL 2
REMARK VINA RESULT:      -7.5      3.624      7.581
REMARK  Name = 
REMARK  10 active torsions:
REMARK  status: ('A' for Active; 'I' for Inactive)
REMARK    1  A    between atoms: C_1  and  C_2
REMARK    2  A    between atoms: C_3  and  C_4
REMARK    3  A    between atoms: C_4  and  N_5
REMARK    4  A    between atoms: N_5  and  C_6
REMARK    5  A    between atoms: C_6  and  C_7
REMARK    6  A    between atoms: C_7  and  C_8
REMARK    7  A    between atoms: C_13  and  C_14
REMARK    8  A    between atoms: C_14  and  O_16
REMARK    9  A    between atoms: C_17  and  C_18
REMARK   10  A    between atoms: N_19  and  C_20
REMARK                            x       y       z     vdW  Elec       q    Type
REMARK                         _______ _______ _______ _____ _____    ______ ____
ROOT
ATOM      1  C   UNL     1       5.094   7.161  17.286  0.00  0.00    +0.000 C 
ATOM      2  C   UNL     1       4.400   5.977  17.885  0.00  0.00    +0.000 A 
ATOM      3  C   UNL     1       4.854   4.660  17.888  0.00  0.00    +0.000 A 
ATOM      4  C   UNL     1       3.905   3.881  18.626  0.00  0.00    +0.000 A 
ATOM      5  C   UNL     1       2.888   4.746  19.032  0.00  0.00    +0.000 A 
ATOM      6  C   UNL     1       1.579   4.372  19.660  0.00  0.00    +0.000 C 
ATOM      7  N   UNL     1       3.203   6.050  18.613  0.00  0.00    +0.000 N 
ENDROOT
BRANCH   7   8
ATOM      8  C   UNL     1       2.444   7.245  18.903  0.00  0.00    +0.000 A 
ATOM      9  C   UNL     1       2.089   8.140  17.880  0.00  0.00    +0.000 A 
ATOM     10  C   UNL     1       1.337   9.291  18.152  0.00  0.00    +0.000 A 
ATOM     11  C   UNL     1       0.891   9.540  19.444  0.00  0.00    +0.000 A 
ATOM     12 CL   UNL     1      -0.072  10.927  19.770  0.00  0.00    +0.000 Cl
ATOM     13  C   UNL     1       1.222   8.667  20.472  0.00  0.00    +0.000 A 
ATOM     14  C   UNL     1       2.014   7.541  20.206  0.00  0.00    +0.000 A 
ENDBRANCH   7   8
BRANCH   4  15
ATOM     15  C   UNL     1       3.968   2.425  18.839  0.00  0.00    +0.000 C 
ATOM     16  O   UNL     1       3.299   1.618  18.209  0.00  0.00    +0.000 OA
BRANCH  15  17
ATOM     17  O   UNL     1       4.859   2.023  19.777  0.00  0.00    +0.000 OA
ATOM     18  H   UNL     1       4.401   1.697  20.573  0.00  0.00    +0.000 HD
ENDBRANCH  15  17
ENDBRANCH   4  15
BRANCH   3  19
ATOM     19  C   UNL     1       6.130   4.136  17.276  0.00  0.00    +0.000 C 
BRANCH  19  20
ATOM     20  N   UNL     1       5.981   3.817  15.857  0.00  0.00    +0.000 NA
ATOM     21  H   UNL     1       5.020   3.482  15.706  0.00  0.00    +0.000 HD
BRANCH  20  22
ATOM     22  C   UNL     1       6.247   4.925  14.934  0.00  0.00    +0.000 C 
BRANCH  22  23
ATOM     23  C   UNL     1       7.049   4.492  13.706  0.00  0.00    +0.000 C 
BRANCH  23  24
ATOM     24  C   UNL     1       6.261   3.639  12.784  0.00  0.00    +0.000 A 
ATOM     25  C   UNL     1       6.599   2.631  11.907  0.00  0.00    +0.000 A 
ATOM     26  C   UNL     1       5.406   2.272  11.237  0.00  0.00    +0.000 A 
ATOM     27  C   UNL     1       4.415   3.068  11.763  0.00  0.00    +0.000 A 
ATOM     28  O   UNL     1       4.924   3.899  12.709  0.00  0.00    +0.000 OA
ENDBRANCH  23  24
ENDBRANCH  22  23
ENDBRANCH  20  22
ENDBRANCH  19  20
ENDBRANCH   3  19
TORSDOF 8
ENDMDL
MODEL 3
REMARK VINA RESULT:      -7.5      3.742      7.643
REMARK  Name = 
REMARK  10 active torsions:
REMARK  status: ('A' for Active; 'I' for Inactive)
REMARK    1  A    between atoms: C_1  and  C_2
REMARK    2  A    between atoms: C_3  and  C_4
REMARK    3  A    between atoms: C_4  and  N_5
REMARK    4  A    between atoms: N_5  and  C_6
REMARK    5  A    between atoms: C_6  and  C_7
REMARK    6  A    between atoms: C_7  and  C_8
REMARK    7  A    between atoms: C_13  and  C_14
REMARK    8  A    between atoms: C_14  and  O_16
REMARK    9  A    between atoms: C_17  and  C_18
REMARK   10  A    between atoms: N_19  and  C_20
REMARK                            x       y       z     vdW  Elec       q    Type
REMARK                         _______ _______ _______ _____ _____    ______ ____
ROOT
ATOM      1  C   UNL     1       5.022   7.311  17.345  0.00  0.00    +0.000 C 
ATOM      2  C   UNL     1       4.387   6.130  18.012  0.00  0.00    +0.000 A 
ATOM      3  C   UNL     1       4.910   4.842  18.099  0.00  0.00    +0.000 A 
ATOM      4  C   UNL     1       3.999   4.060  18.878  0.00  0.00    +0.000 A 
ATOM      5  C   UNL     1       2.933   4.892  19.224  0.00  0.00    +0.000 A 
ATOM      6  C   UNL     1       1.642   4.487  19.868  0.00  0.00    +0.000 C 
ATOM      7  N   UNL     1       3.182   6.183  18.728  0.00  0.00    +0.000 N 
ENDROOT
BRANCH   7   8
ATOM      8  C   UNL     1       2.357   7.350  18.940  0.00  0.00    +0.000 A 
ATOM      9  C   UNL     1       1.929   7.707  20.229  0.00  0.00    +0.000 A 
ATOM     10  C   UNL     1       1.144   8.849  20.442  0.00  0.00    +0.000 A 
ATOM     11  C   UNL     1       0.812   9.674  19.375  0.00  0.00    +0.000 A 
ATOM     12 CL   UNL     1      -0.110  11.100  19.642  0.00  0.00    +0.000 Cl
ATOM     13  C   UNL     1       1.229   9.346  18.091  0.00  0.00    +0.000 A 
ATOM     14  C   UNL     1       1.975   8.179  17.873  0.00  0.00    +0.000 A 
ENDBRANCH   7   8
BRANCH   4  15
ATOM     15  C   UNL     1       4.138   2.624  19.180  0.00  0.00    +0.000 C 
ATOM     16  O   UNL     1       4.339   2.184  20.302  0.00  0.00    +0.000 OA
BRANCH  15  17
ATOM     17  O   UNL     1       3.996   1.801  18.114  0.00  0.00    +0.000 OA
ATOM     18  H   UNL     1       3.479   1.010  18.352  0.00  0.00    +0.000 HD
ENDBRANCH  15  17
ENDBRANCH   4  15
BRANCH   3  19
ATOM     19  C   UNL     1       6.218   4.351  17.526  0.00  0.00    +0.000 C 
BRANCH  19  20
ATOM     20  N   UNL     1       6.039   3.598  16.286  0.00  0.00    +0.000 NA
ATOM     21  H   UNL     1       5.351   2.854  16.462  0.00  0.00    +0.000 HD
BRANCH  20  22
ATOM     22  C   UNL     1       5.597   4.387  15.131  0.00  0.00    +0.000 C 
BRANCH  22  23
ATOM     23  C   UNL     1       6.517   4.230  13.920  0.00  0.00    +0.000 C 
BRANCH  23  24
ATOM     24  C   UNL     1       5.850   3.550  12.783  0.00  0.00    +0.000 A 
ATOM     25  C   UNL     1       4.629   3.718  12.165  0.00  0.00    +0.000 A 
ATOM     26  C   UNL     1       4.530   2.691  11.198  0.00  0.00    +0.000 A 
ATOM     27  C   UNL     1       5.704   1.977  11.273  0.00  0.00    +0.000 A 
ATOM     28  O   UNL     1       6.515   2.495  12.231  0.00  0.00    +0.000 OA
ENDBRANCH  23  24
ENDBRANCH  22  23
ENDBRANCH  20  22
ENDBRANCH  19  20
ENDBRANCH   3  19
TORSDOF 8
ENDMDL
MODEL 4
REMARK VINA RESULT:      -7.5      3.472      7.255
REMARK  Name = 
REMARK  10 active torsions:
REMARK  status: ('A' for Active; 'I' for Inactive)
REMARK    1  A    between atoms: C_1  and  C_2
REMARK    2  A    between atoms: C_3  and  C_4
REMARK    3  A    between atoms: C_4  and  N_5
REMARK    4  A    between atoms: N_5  and  C_6
REMARK    5  A    between atoms: C_6  and  C_7
REMARK    6  A    between atoms: C_7  and  C_8
REMARK    7  A    between atoms: C_13  and  C_14
REMARK    8  A    between atoms: C_14  and  O_16
REMARK    9  A    between atoms: C_17  and  C_18
REMARK   10  A    between atoms: N_19  and  C_20
REMARK                            x       y       z     vdW  Elec       q    Type
REMARK                         _______ _______ _______ _____ _____    ______ ____
ROOT
ATOM      1  C   UNL     1       4.331   7.001  17.255  0.00  0.00    +0.000 C 
ATOM      2  C   UNL     1       3.675   5.968  18.118  0.00  0.00    +0.000 A 
ATOM      3  C   UNL     1       4.024   4.623  18.218  0.00  0.00    +0.000 A 
ATOM      4  C   UNL     1       3.173   4.031  19.207  0.00  0.00    +0.000 A 
ATOM      5  C   UNL     1       2.315   5.032  19.664  0.00  0.00    +0.000 A 
ATOM      6  C   UNL     1       1.121   4.861  20.555  0.00  0.00    +0.000 C 
ATOM      7  N   UNL     1       2.642   6.241  19.027  0.00  0.00    +0.000 N 
ENDROOT
BRANCH   7   8
ATOM      8  C   UNL     1       2.038   7.528  19.283  0.00  0.00    +0.000 A 
ATOM      9  C   UNL     1       1.761   8.417  18.230  0.00  0.00    +0.000 A 
ATOM     10  C   UNL     1       1.159   9.659  18.470  0.00  0.00    +0.000 A 
ATOM     11  C   UNL     1       0.785  10.014  19.761  0.00  0.00    +0.000 A 
ATOM     12 CL   UNL     1       0.003  11.518  20.049  0.00  0.00    +0.000 Cl
ATOM     13  C   UNL     1       1.042   9.150  20.817  0.00  0.00    +0.000 A 
ATOM     14  C   UNL     1       1.686   7.927  20.582  0.00  0.00    +0.000 A 
ENDBRANCH   7   8
BRANCH   4  15
ATOM     15  C   UNL     1       3.168   2.611  19.597  0.00  0.00    +0.000 C 
ATOM     16  O   UNL     1       2.601   1.734  18.960  0.00  0.00    +0.000 OA
BRANCH  15  17
ATOM     17  O   UNL     1       3.873   2.324  20.718  0.00  0.00    +0.000 OA
ATOM     18  H   UNL     1       3.327   2.453  21.514  0.00  0.00    +0.000 HD
ENDBRANCH  15  17
ENDBRANCH   4  15
BRANCH   3  19
ATOM     19  C   UNL     1       5.123   3.910  17.469  0.00  0.00    +0.000 C 
BRANCH  19  20
ATOM     20  N   UNL     1       6.441   4.137  18.059  0.00  0.00    +0.000 NA
ATOM     21  H   UNL     1       6.704   3.292  18.584  0.00  0.00    +0.000 HD
BRANCH  20  22
ATOM     22  C   UNL     1       7.510   4.451  17.104  0.00  0.00    +0.000 C 
BRANCH  22  23
ATOM     23  C   UNL     1       7.099   5.518  16.087  0.00  0.00    +0.000 C 
BRANCH  23  24
ATOM     24  C   UNL     1       6.979   4.977  14.712  0.00  0.00    +0.000 A 
ATOM     25  C   UNL     1       6.219   3.972  14.154  0.00  0.00    +0.000 A 
ATOM     26  C   UNL     1       6.628   3.868  12.804  0.00  0.00    +0.000 A 
ATOM     27  C   UNL     1       7.596   4.829  12.621  0.00  0.00    +0.000 A 
ATOM     28  O   UNL     1       7.812   5.512  13.774  0.00  0.00    +0.000 OA
ENDBRANCH  23  24
ENDBRANCH  22  23
ENDBRANCH  20  22
ENDBRANCH  19  20
ENDBRANCH   3  19
TORSDOF 8
ENDMDL
MODEL 5
REMARK VINA RESULT:      -7.4      3.597      7.391
REMARK  Name = 
REMARK  10 active torsions:
REMARK  status: ('A' for Active; 'I' for Inactive)
REMARK    1  A    between atoms: C_1  and  C_2
REMARK    2  A    between atoms: C_3  and  C_4
REMARK    3  A    between atoms: C_4  and  N_5
REMARK    4  A    between atoms: N_5  and  C_6
REMARK    5  A    between atoms: C_6  and  C_7
REMARK    6  A    between atoms: C_7  and  C_8
REMARK    7  A    between atoms: C_13  and  C_14
REMARK    8  A    between atoms: C_14  and  O_16
REMARK    9  A    between atoms: C_17  and  C_18
REMARK   10  A    between atoms: N_19  and  C_20
REMARK                            x       y       z     vdW  Elec       q    Type
REMARK                         _______ _______ _______ _____ _____    ______ ____
ROOT
ATOM      1  C   UNL     1       4.188   7.038  17.299  0.00  0.00    +0.000 C 
ATOM      2  C   UNL     1       3.561   5.892  18.033  0.00  0.00    +0.000 A 
ATOM      3  C   UNL     1       3.901   4.546  17.920  0.00  0.00    +0.000 A 
ATOM      4  C   UNL     1       3.091   3.820  18.851  0.00  0.00    +0.000 A 
ATOM      5  C   UNL     1       2.264   4.746  19.488  0.00  0.00    +0.000 A 
ATOM      6  C   UNL     1       1.111   4.452  20.400  0.00  0.00    +0.000 C 
ATOM      7  N   UNL     1       2.574   6.034  19.019  0.00  0.00    +0.000 N 
ENDROOT
BRANCH   7   8
ATOM      8  C   UNL     1       1.995   7.273  19.486  0.00  0.00    +0.000 A 
ATOM      9  C   UNL     1       1.738   7.479  20.852  0.00  0.00    +0.000 A 
ATOM     10  C   UNL     1       1.194   8.686  21.312  0.00  0.00    +0.000 A 
ATOM     11  C   UNL     1       0.940   9.720  20.419  0.00  0.00    +0.000 A 
ATOM     12 CL   UNL     1       0.317  11.218  20.990  0.00  0.00    +0.000 Cl
ATOM     13  C   UNL     1       1.192   9.543  19.065  0.00  0.00    +0.000 A 
ATOM     14  C   UNL     1       1.693   8.319  18.600  0.00  0.00    +0.000 A 
ENDBRANCH   7   8
BRANCH   4  15
ATOM     15  C   UNL     1       3.089   2.358  19.031  0.00  0.00    +0.000 C 
ATOM     16  O   UNL     1       3.947   1.750  19.656  0.00  0.00    +0.000 OA
BRANCH  15  17
ATOM     17  O   UNL     1       2.036   1.715  18.472  0.00  0.00    +0.000 OA
ATOM     18  H   UNL     1       2.215   1.501  17.539  0.00  0.00    +0.000 HD
ENDBRANCH  15  17
ENDBRANCH   4  15
BRANCH   3  19
ATOM     19  C   UNL     1       4.958   3.947  17.024  0.00  0.00    +0.000 C 
BRANCH  19  20
ATOM     20  N   UNL     1       6.302   4.068  17.585  0.00  0.00    +0.000 NA
ATOM     21  H   UNL     1       6.552   3.164  18.009  0.00  0.00    +0.000 HD
BRANCH  20  22
ATOM     22  C   UNL     1       7.348   4.448  16.630  0.00  0.00    +0.000 C 
BRANCH  22  23
ATOM     23  C   UNL     1       6.857   5.450  15.583  0.00  0.00    +0.000 C 
BRANCH  23  24
ATOM     24  C   UNL     1       6.816   4.872  14.218  0.00  0.00    +0.000 A 
ATOM     25  C   UNL     1       6.118   3.826  13.654  0.00  0.00    +0.000 A 
ATOM     26  C   UNL     1       6.589   3.705  12.326  0.00  0.00    +0.000 A 
ATOM     27  C   UNL     1       7.527   4.698  12.159  0.00  0.00    +0.000 A 
ATOM     28  O   UNL     1       7.668   5.416  13.303  0.00  0.00    +0.000 OA
ENDBRANCH  23  24
ENDBRANCH  22  23
ENDBRANCH  20  22
ENDBRANCH  19  20
ENDBRANCH   3  19
TORSDOF 8
ENDMDL
MODEL 6
REMARK VINA RESULT:      -7.4      1.359      1.764
REMARK  Name = 
REMARK  10 active torsions:
REMARK  status: ('A' for Active; 'I' for Inactive)
REMARK    1  A    between atoms: C_1  and  C_2
REMARK    2  A    between atoms: C_3  and  C_4
REMARK    3  A    between atoms: C_4  and  N_5
REMARK    4  A    between atoms: N_5  and  C_6
REMARK    5  A    between atoms: C_6  and  C_7
REMARK    6  A    between atoms: C_7  and  C_8
REMARK    7  A    between atoms: C_13  and  C_14
REMARK    8  A    between atoms: C_14  and  O_16
REMARK    9  A    between atoms: C_17  and  C_18
REMARK   10  A    between atoms: N_19  and  C_20
REMARK                            x       y       z     vdW  Elec       q    Type
REMARK                         _______ _______ _______ _____ _____    ______ ____
ROOT
ATOM      1  C   UNL     1       2.978   7.356  18.252  0.00  0.00    +0.000 C 
ATOM      2  C   UNL     1       3.016   6.023  18.934  0.00  0.00    +0.000 A 
ATOM      3  C   UNL     1       2.208   5.604  19.988  0.00  0.00    +0.000 A 
ATOM      4  C   UNL     1       2.547   4.242  20.274  0.00  0.00    +0.000 A 
ATOM      5  C   UNL     1       3.571   3.880  19.397  0.00  0.00    +0.000 A 
ATOM      6  C   UNL     1       4.391   2.626  19.434  0.00  0.00    +0.000 C 
ATOM      7  N   UNL     1       3.841   4.959  18.539  0.00  0.00    +0.000 N 
ENDROOT
BRANCH   7   8
ATOM      8  C   UNL     1       4.779   4.959  17.440  0.00  0.00    +0.000 A 
ATOM      9  C   UNL     1       4.474   4.314  16.230  0.00  0.00    +0.000 A 
ATOM     10  C   UNL     1       5.373   4.327  15.155  0.00  0.00    +0.000 A 
ATOM     11  C   UNL     1       6.571   5.022  15.259  0.00  0.00    +0.000 A 
ATOM     12 CL   UNL     1       7.653   5.079  13.923  0.00  0.00    +0.000 Cl
ATOM     13  C   UNL     1       6.893   5.674  16.442  0.00  0.00    +0.000 A 
ATOM     14  C   UNL     1       6.014   5.622  17.532  0.00  0.00    +0.000 A 
ENDBRANCH   7   8
BRANCH   4  15
ATOM     15  C   UNL     1       1.968   3.420  21.350  0.00  0.00    +0.000 C 
ATOM     16  O   UNL     1       2.492   3.267  22.444  0.00  0.00    +0.000 OA
BRANCH  15  17
ATOM     17  O   UNL     1       0.773   2.853  21.055  0.00  0.00    +0.000 OA
ATOM     18  H   UNL     1       0.725   2.616  20.111  0.00  0.00    +0.000 HD
ENDBRANCH  15  17
ENDBRANCH   4  15
BRANCH   3  19
ATOM     19  C   UNL     1       1.133   6.404  20.684  0.00  0.00    +0.000 C 
BRANCH  19  20
ATOM     20  N   UNL     1       1.628   7.680  21.197  0.00  0.00    +0.000 NA
ATOM     21  H   UNL     1       2.177   8.130  20.452  0.00  0.00    +0.000 HD
BRANCH  20  22
ATOM     22  C   UNL     1       0.595   8.614  21.655  0.00  0.00    +0.000 C 
BRANCH  22  23
ATOM     23  C   UNL     1       0.955  10.075  21.381  0.00  0.00    +0.000 C 
BRANCH  23  24
ATOM     24  C   UNL     1       0.027  11.024  22.042  0.00  0.00    +0.000 A 
ATOM     25  C   UNL     1      -1.071  10.859  22.858  0.00  0.00    +0.000 A 
ATOM     26  C   UNL     1      -1.595  12.153  23.084  0.00  0.00    +0.000 A 
ATOM     27  C   UNL     1      -0.771  13.025  22.409  0.00  0.00    +0.000 A 
ATOM     28  O   UNL     1       0.221  12.348  21.777  0.00  0.00    +0.000 OA
ENDBRANCH  23  24
ENDBRANCH  22  23
ENDBRANCH  20  22
ENDBRANCH  19  20
ENDBRANCH   3  19
TORSDOF 8
ENDMDL
MODEL 7
REMARK VINA RESULT:      -7.3      1.221      1.881
REMARK  Name = 
REMARK  10 active torsions:
REMARK  status: ('A' for Active; 'I' for Inactive)
REMARK    1  A    between atoms: C_1  and  C_2
REMARK    2  A    between atoms: C_3  and  C_4
REMARK    3  A    between atoms: C_4  and  N_5
REMARK    4  A    between atoms: N_5  and  C_6
REMARK    5  A    between atoms: C_6  and  C_7
REMARK    6  A    between atoms: C_7  and  C_8
REMARK    7  A    between atoms: C_13  and  C_14
REMARK    8  A    between atoms: C_14  and  O_16
REMARK    9  A    between atoms: C_17  and  C_18
REMARK   10  A    between atoms: N_19  and  C_20
REMARK                            x       y       z     vdW  Elec       q    Type
REMARK                         _______ _______ _______ _____ _____    ______ ____
ROOT
ATOM      1  C   UNL     1       3.012   7.490  18.293  0.00  0.00    +0.000 C 
ATOM      2  C   UNL     1       3.019   6.133  18.928  0.00  0.00    +0.000 A 
ATOM      3  C   UNL     1       2.218   5.704  19.984  0.00  0.00    +0.000 A 
ATOM      4  C   UNL     1       2.517   4.324  20.216  0.00  0.00    +0.000 A 
ATOM      5  C   UNL     1       3.510   3.958  19.307  0.00  0.00    +0.000 A 
ATOM      6  C   UNL     1       4.289   2.677  19.284  0.00  0.00    +0.000 C 
ATOM      7  N   UNL     1       3.799   5.057  18.480  0.00  0.00    +0.000 N 
ENDROOT
BRANCH   7   8
ATOM      8  C   UNL     1       4.715   5.064  17.363  0.00  0.00    +0.000 A 
ATOM      9  C   UNL     1       5.962   5.705  17.456  0.00  0.00    +0.000 A 
ATOM     10  C   UNL     1       6.861   5.699  16.381  0.00  0.00    +0.000 A 
ATOM     11  C   UNL     1       6.546   5.017  15.213  0.00  0.00    +0.000 A 
ATOM     12 CL   UNL     1       7.669   4.970  13.911  0.00  0.00    +0.000 Cl
ATOM     13  C   UNL     1       5.322   4.370  15.098  0.00  0.00    +0.000 A 
ATOM     14  C   UNL     1       4.404   4.415  16.157  0.00  0.00    +0.000 A 
ENDBRANCH   7   8
BRANCH   4  15
ATOM     15  C   UNL     1       1.931   3.484  21.276  0.00  0.00    +0.000 C 
ATOM     16  O   UNL     1       2.478   3.264  22.347  0.00  0.00    +0.000 OA
BRANCH  15  17
ATOM     17  O   UNL     1       0.705   2.981  20.993  0.00  0.00    +0.000 OA
ATOM     18  H   UNL     1       0.150   2.951  21.794  0.00  0.00    +0.000 HD
ENDBRANCH  15  17
ENDBRANCH   4  15
BRANCH   3  19
ATOM     19  C   UNL     1       1.185   6.515  20.729  0.00  0.00    +0.000 C 
BRANCH  19  20
ATOM     20  N   UNL     1       1.763   7.673  21.406  0.00  0.00    +0.000 NA
ATOM     21  H   UNL     1       2.729   7.790  21.070  0.00  0.00    +0.000 HD
BRANCH  20  22
ATOM     22  C   UNL     1       1.041   8.936  21.217  0.00  0.00    +0.000 C 
BRANCH  22  23
ATOM     23  C   UNL     1      -0.161   9.075  22.153  0.00  0.00    +0.000 C 
BRANCH  23  24
ATOM     24  C   UNL     1      -0.712  10.452  22.170  0.00  0.00    +0.000 A 
ATOM     25  C   UNL     1      -1.343  11.206  23.135  0.00  0.00    +0.000 A 
ATOM     26  C   UNL     1      -1.721  12.417  22.508  0.00  0.00    +0.000 A 
ATOM     27  C   UNL     1      -1.277  12.332  21.209  0.00  0.00    +0.000 A 
ATOM     28  O   UNL     1      -0.657  11.143  20.995  0.00  0.00    +0.000 OA
ENDBRANCH  23  24
ENDBRANCH  22  23
ENDBRANCH  20  22
ENDBRANCH  19  20
ENDBRANCH   3  19
TORSDOF 8
ENDMDL
MODEL 8
REMARK VINA RESULT:      -7.3      3.499      7.408
REMARK  Name = 
REMARK  10 active torsions:
REMARK  status: ('A' for Active; 'I' for Inactive)
REMARK    1  A    between atoms: C_1  and  C_2
REMARK    2  A    between atoms: C_3  and  C_4
REMARK    3  A    between atoms: C_4  and  N_5
REMARK    4  A    between atoms: N_5  and  C_6
REMARK    5  A    between atoms: C_6  and  C_7
REMARK    6  A    between atoms: C_7  and  C_8
REMARK    7  A    between atoms: C_13  and  C_14
REMARK    8  A    between atoms: C_14  and  O_16
REMARK    9  A    between atoms: C_17  and  C_18
REMARK   10  A    between atoms: N_19  and  C_20
REMARK                            x       y       z     vdW  Elec       q    Type
REMARK                         _______ _______ _______ _____ _____    ______ ____
ROOT
ATOM      1  C   UNL     1       4.182   7.027  17.133  0.00  0.00    +0.000 C 
ATOM      2  C   UNL     1       3.581   5.904  17.921  0.00  0.00    +0.000 A 
ATOM      3  C   UNL     1       3.924   4.556  17.843  0.00  0.00    +0.000 A 
ATOM      4  C   UNL     1       3.143   3.858  18.819  0.00  0.00    +0.000 A 
ATOM      5  C   UNL     1       2.329   4.801  19.448  0.00  0.00    +0.000 A 
ATOM      6  C   UNL     1       1.203   4.533  20.400  0.00  0.00    +0.000 C 
ATOM      7  N   UNL     1       2.620   6.074  18.929  0.00  0.00    +0.000 N 
ENDROOT
BRANCH   7   8
ATOM      8  C   UNL     1       2.049   7.325  19.371  0.00  0.00    +0.000 A 
ATOM      9  C   UNL     1       1.826   8.376  18.466  0.00  0.00    +0.000 A 
ATOM     10  C   UNL     1       1.255   9.585  18.886  0.00  0.00    +0.000 A 
ATOM     11  C   UNL     1       0.859   9.745  20.209  0.00  0.00    +0.000 A 
ATOM     12 CL   UNL     1       0.115  11.211  20.715  0.00  0.00    +0.000 Cl
ATOM     13  C   UNL     1       1.063   8.718  21.121  0.00  0.00    +0.000 A 
ATOM     14  C   UNL     1       1.676   7.527  20.709  0.00  0.00    +0.000 A 
ENDBRANCH   7   8
BRANCH   4  15
ATOM     15  C   UNL     1       3.153   2.402  19.046  0.00  0.00    +0.000 C 
ATOM     16  O   UNL     1       3.955   1.835  19.774  0.00  0.00    +0.000 OA
BRANCH  15  17
ATOM     17  O   UNL     1       2.174   1.718  18.407  0.00  0.00    +0.000 OA
ATOM     18  H   UNL     1       1.733   2.280  17.745  0.00  0.00    +0.000 HD
ENDBRANCH  15  17
ENDBRANCH   4  15
BRANCH   3  19
ATOM     19  C   UNL     1       4.958   3.932  16.938  0.00  0.00    +0.000 C 
BRANCH  19  20
ATOM     20  N   UNL     1       6.316   4.069  17.461  0.00  0.00    +0.000 NA
ATOM     21  H   UNL     1       6.567   3.189  17.932  0.00  0.00    +0.000 HD
BRANCH  20  22
ATOM     22  C   UNL     1       7.344   4.382  16.463  0.00  0.00    +0.000 C 
BRANCH  22  23
ATOM     23  C   UNL     1       6.849   5.352  15.388  0.00  0.00    +0.000 C 
BRANCH  23  24
ATOM     24  C   UNL     1       6.935   4.781  14.023  0.00  0.00    +0.000 A 
ATOM     25  C   UNL     1       7.640   5.133  12.892  0.00  0.00    +0.000 A 
ATOM     26  C   UNL     1       7.220   4.249  11.872  0.00  0.00    +0.000 A 
ATOM     27  C   UNL     1       6.303   3.402  12.449  0.00  0.00    +0.000 A 
ATOM     28  O   UNL     1       6.128   3.714  13.759  0.00  0.00    +0.000 OA
ENDBRANCH  23  24
ENDBRANCH  22  23
ENDBRANCH  20  22
ENDBRANCH  19  20
ENDBRANCH   3  19
TORSDOF 8
ENDMDL
MODEL 9
REMARK VINA RESULT:      -7.3      0.387      1.037
REMARK  Name = 
REMARK  10 active torsions:
REMARK  status: ('A' for Active; 'I' for Inactive)
REMARK    1  A    between atoms: C_1  and  C_2
REMARK    2  A    between atoms: C_3  and  C_4
REMARK    3  A    between atoms: C_4  and  N_5
REMARK    4  A    between atoms: N_5  and  C_6
REMARK    5  A    between atoms: C_6  and  C_7
REMARK    6  A    between atoms: C_7  and  C_8
REMARK    7  A    between atoms: C_13  and  C_14
REMARK    8  A    between atoms: C_14  and  O_16
REMARK    9  A    between atoms: C_17  and  C_18
REMARK   10  A    between atoms: N_19  and  C_20
REMARK                            x       y       z     vdW  Elec       q    Type
REMARK                         _______ _______ _______ _____ _____    ______ ____
ROOT
ATOM      1  C   UNL     1       2.907   7.467  18.290  0.00  0.00    +0.000 C 
ATOM      2  C   UNL     1       2.955   6.122  18.947  0.00  0.00    +0.000 A 
ATOM      3  C   UNL     1       2.159   5.683  20.003  0.00  0.00    +0.000 A 
ATOM      4  C   UNL     1       2.503   4.317  20.260  0.00  0.00    +0.000 A 
ATOM      5  C   UNL     1       3.517   3.971  19.365  0.00  0.00    +0.000 A 
ATOM      6  C   UNL     1       4.339   2.718  19.370  0.00  0.00    +0.000 C 
ATOM      7  N   UNL     1       3.776   5.066  18.523  0.00  0.00    +0.000 N 
ENDROOT
BRANCH   7   8
ATOM      8  C   UNL     1       4.701   5.088  17.414  0.00  0.00    +0.000 A 
ATOM      9  C   UNL     1       5.931   5.760  17.512  0.00  0.00    +0.000 A 
ATOM     10  C   UNL     1       6.839   5.768  16.445  0.00  0.00    +0.000 A 
ATOM     11  C   UNL     1       6.551   5.068  15.280  0.00  0.00    +0.000 A 
ATOM     12 CL   UNL     1       7.686   5.039  13.989  0.00  0.00    +0.000 Cl
ATOM     13  C   UNL     1       5.345   4.390  15.161  0.00  0.00    +0.000 A 
ATOM     14  C   UNL     1       4.417   4.421  16.211  0.00  0.00    +0.000 A 
ENDBRANCH   7   8
BRANCH   4  15
ATOM     15  C   UNL     1       1.937   3.474  21.328  0.00  0.00    +0.000 C 
ATOM     16  O   UNL     1       2.486   3.283  22.403  0.00  0.00    +0.000 OA
BRANCH  15  17
ATOM     17  O   UNL     1       0.726   2.936  21.048  0.00  0.00    +0.000 OA
ATOM     18  H   UNL     1       0.286   2.630  21.862  0.00  0.00    +0.000 HD
ENDBRANCH  15  17
ENDBRANCH   4  15
BRANCH   3  19
ATOM     19  C   UNL     1       1.092   6.469  20.726  0.00  0.00    +0.000 C 
BRANCH  19  20
ATOM     20  N   UNL     1       1.564   7.780  21.167  0.00  0.00    +0.000 NA
ATOM     21  H   UNL     1       2.304   8.086  20.520  0.00  0.00    +0.000 HD
BRANCH  20  22
ATOM     22  C   UNL     1       0.537   8.825  21.238  0.00  0.00    +0.000 C 
BRANCH  22  23
ATOM     23  C   UNL     1       0.897  10.065  20.419  0.00  0.00    +0.000 C 
BRANCH  23  24
ATOM     24  C   UNL     1      -0.232  10.543  19.584  0.00  0.00    +0.000 A 
ATOM     25  C   UNL     1      -0.771  10.118  18.390  0.00  0.00    +0.000 A 
ATOM     26  C   UNL     1      -1.780  11.051  18.056  0.00  0.00    +0.000 A 
ATOM     27  C   UNL     1      -1.805  11.973  19.077  0.00  0.00    +0.000 A 
ATOM     28  O   UNL     1      -0.870  11.669  20.014  0.00  0.00    +0.000 OA
ENDBRANCH  23  24
ENDBRANCH  22  23
ENDBRANCH  20  22
ENDBRANCH  19  20
ENDBRANCH   3  19
TORSDOF 8
ENDMDL
