MODEL 1
REMARK VINA RESULT:      -9.4      0.000      0.000
REMARK  Name = 
REMARK  6 active torsions:
REMARK  status: ('A' for Active; 'I' for Inactive)
REMARK    1  A    between atoms: C_2  and  C_3
REMARK    2  A    between atoms: C_3  and  C_4
REMARK    3  A    between atoms: C_4  and  C_5
REMARK    4  A    between atoms: N_12  and  C_13
REMARK    5  A    between atoms: C_13  and  C_14
REMARK    6  A    between atoms: N_24  and  C_25
REMARK                            x       y       z     vdW  Elec       q    Type
REMARK                         _______ _______ _______ _____ _____    ______ ____
ROOT
ATOM      1  C   UNL     1       2.590   6.577  19.840  0.00  0.00    +0.000 C 
ENDROOT
BRANCH   1   2
ATOM      2  C   UNL     1       2.203   5.139  19.915  0.00  0.00    +0.000 A 
ATOM      3  N   UNL     1       1.305   4.598  20.720  0.00  0.00    +0.000 NA
ATOM      4  N   UNL     1       1.292   3.241  20.493  0.00  0.00    +0.000 NA
ATOM      5  C   UNL     1       2.165   2.989  19.543  0.00  0.00    +0.000 A 
ATOM      6  C   UNL     1       2.553   1.803  18.893  0.00  0.00    +0.000 A 
ATOM      7  C   UNL     1       3.444   1.874  17.898  0.00  0.00    +0.000 A 
ATOM      8  C   UNL     1       4.046   3.207  17.553  0.00  0.00    +0.000 A 
ATOM      9  N   UNL     1       5.009   3.233  16.580  0.00  0.00    +0.000 N 
ATOM     10  N   UNL     1       3.716   4.315  18.165  0.00  0.00    +0.000 NA
ATOM     11  N   UNL     1       2.770   4.159  19.137  0.00  0.00    +0.000 N 
ATOM     12  H   UNL     1       4.967   2.566  15.818  0.00  0.00    +0.000 HD
BRANCH   9  13
ATOM     13  C   UNL     1       5.878   4.368  16.342  0.00  0.00    +0.000 C 
BRANCH  13  14
ATOM     14  C   UNL     1       6.400   4.429  14.945  0.00  0.00    +0.000 A 
ATOM     15  C   UNL     1       6.026   3.806  13.771  0.00  0.00    +0.000 A 
ATOM     16  C   UNL     1       6.921   4.260  12.774  0.00  0.00    +0.000 A 
ATOM     17  C   UNL     1       7.773   5.142  13.398  0.00  0.00    +0.000 A 
ATOM     18  O   UNL     1       7.460   5.258  14.716  0.00  0.00    +0.000 OA
ENDBRANCH  13  14
ENDBRANCH   9  13
ENDBRANCH   1   2
BRANCH   1  19
ATOM     19  C   UNL     1       1.724   7.427  20.770  0.00  0.00    +0.000 C 
BRANCH  19  21
ATOM     20  O   UNL     1       1.647   8.980  18.950  0.00  0.00    +0.000 OA
ATOM     21  C   UNL     1       1.224   8.681  20.070  0.00  0.00    +0.000 C 
ATOM     22  N   UNL     1       0.255   9.434  20.705  0.00  0.00    +0.000 N 
ATOM     23  C   UNL     1      -0.398   9.124  21.987  0.00  0.00    +0.000 C 
ATOM     24  C   UNL     1      -0.343  10.322  22.958  0.00  0.00    +0.000 C 
ATOM     25  N   UNL     1      -0.914  11.495  22.278  0.00  0.00    +0.000 N 
ATOM     26  C   UNL     1      -0.209  11.864  21.036  0.00  0.00    +0.000 C 
ATOM     27  C   UNL     1      -0.230  10.668  20.064  0.00  0.00    +0.000 C 
BRANCH  25  28
ATOM     28  C   UNL     1      -1.684  12.429  22.945  0.00  0.00    +0.000 A 
ATOM     29  C   UNL     1      -1.222  13.722  23.236  0.00  0.00    +0.000 A 
ATOM     30  C   UNL     1      -2.002  14.622  23.971  0.00  0.00    +0.000 A 
ATOM     31  C   UNL     1      -3.251  14.230  24.432  0.00  0.00    +0.000 A 
ATOM     32  F   UNL     1      -3.990  15.087  25.153  0.00  0.00    +0.000 F 
ATOM     33  C   UNL     1      -3.739  12.963  24.164  0.00  0.00    +0.000 A 
ATOM     34  C   UNL     1      -2.961  12.075  23.422  0.00  0.00    +0.000 A 
ENDBRANCH  25  28
ENDBRANCH  19  21
ENDBRANCH   1  19
TORSDOF 6
ENDMDL
MODEL 2
REMARK VINA RESULT:      -9.3      1.489      1.971
REMARK  Name = 
REMARK  6 active torsions:
REMARK  status: ('A' for Active; 'I' for Inactive)
REMARK    1  A    between atoms: C_2  and  C_3
REMARK    2  A    between atoms: C_3  and  C_4
REMARK    3  A    between atoms: C_4  and  C_5
REMARK    4  A    between atoms: N_12  and  C_13
REMARK    5  A    between atoms: C_13  and  C_14
REMARK    6  A    between atoms: N_24  and  C_25
REMARK                            x       y       z     vdW  Elec       q    Type
REMARK                         _______ _______ _______ _____ _____    ______ ____
ROOT
ATOM      1  C   UNL     1       2.908   7.986  18.237  0.00  0.00    +0.000 C 
ENDROOT
BRANCH   1   2
ATOM      2  C   UNL     1       2.625   6.833  19.139  0.00  0.00    +0.000 A 
ATOM      3  N   UNL     1       1.628   6.724  20.000  0.00  0.00    +0.000 NA
ATOM      4  N   UNL     1       1.764   5.524  20.659  0.00  0.00    +0.000 NA
ATOM      5  C   UNL     1       2.826   4.922  20.172  0.00  0.00    +0.000 A 
ATOM      6  C   UNL     1       3.425   3.678  20.442  0.00  0.00    +0.000 A 
ATOM      7  C   UNL     1       4.490   3.306  19.722  0.00  0.00    +0.000 A 
ATOM      8  C   UNL     1       5.045   4.255  18.698  0.00  0.00    +0.000 A 
ATOM      9  N   UNL     1       6.180   3.873  18.032  0.00  0.00    +0.000 N 
ATOM     10  N   UNL     1       4.516   5.425  18.454  0.00  0.00    +0.000 NA
ATOM     11  N   UNL     1       3.409   5.707  19.202  0.00  0.00    +0.000 N 
ATOM     12  H   UNL     1       6.341   2.890  17.845  0.00  0.00    +0.000 HD
BRANCH   9  13
ATOM     13  C   UNL     1       6.989   4.779  17.243  0.00  0.00    +0.000 C 
BRANCH  13  14
ATOM     14  C   UNL     1       6.825   4.589  15.772  0.00  0.00    +0.000 A 
ATOM     15  C   UNL     1       5.965   3.823  15.011  0.00  0.00    +0.000 A 
ATOM     16  C   UNL     1       6.313   4.054  13.659  0.00  0.00    +0.000 A 
ATOM     17  C   UNL     1       7.351   4.956  13.680  0.00  0.00    +0.000 A 
ATOM     18  O   UNL     1       7.665   5.294  14.959  0.00  0.00    +0.000 OA
ENDBRANCH  13  14
ENDBRANCH   9  13
ENDBRANCH   1   2
BRANCH   1  19
ATOM     19  C   UNL     1       1.622   8.731  17.877  0.00  0.00    +0.000 C 
BRANCH  19  21
ATOM     20  O   UNL     1       2.655  10.874  17.609  0.00  0.00    +0.000 OA
ATOM     21  C   UNL     1       1.753  10.223  18.142  0.00  0.00    +0.000 C 
ATOM     22  N   UNL     1       0.806  10.822  18.951  0.00  0.00    +0.000 N 
ATOM     23  C   UNL     1      -0.369  10.173  19.556  0.00  0.00    +0.000 C 
ATOM     24  C   UNL     1      -0.450  10.443  21.073  0.00  0.00    +0.000 C 
ATOM     25  N   UNL     1      -0.408  11.899  21.287  0.00  0.00    +0.000 N 
ATOM     26  C   UNL     1       0.810  12.542  20.760  0.00  0.00    +0.000 C 
ATOM     27  C   UNL     1       0.922  12.259  19.249  0.00  0.00    +0.000 C 
BRANCH  25  28
ATOM     28  C   UNL     1      -1.151  12.518  22.274  0.00  0.00    +0.000 A 
ATOM     29  C   UNL     1      -2.372  12.005  22.737  0.00  0.00    +0.000 A 
ATOM     30  C   UNL     1      -3.133  12.692  23.690  0.00  0.00    +0.000 A 
ATOM     31  C   UNL     1      -2.680  13.908  24.182  0.00  0.00    +0.000 A 
ATOM     32  F   UNL     1      -3.419  14.574  25.082  0.00  0.00    +0.000 F 
ATOM     33  C   UNL     1      -1.480  14.444  23.749  0.00  0.00    +0.000 A 
ATOM     34  C   UNL     1      -0.723  13.750  22.806  0.00  0.00    +0.000 A 
ENDBRANCH  25  28
ENDBRANCH  19  21
ENDBRANCH   1  19
TORSDOF 6
ENDMDL
MODEL 3
REMARK VINA RESULT:      -8.9      1.749      2.338
REMARK  Name = 
REMARK  6 active torsions:
REMARK  status: ('A' for Active; 'I' for Inactive)
REMARK    1  A    between atoms: C_2  and  C_3
REMARK    2  A    between atoms: C_3  and  C_4
REMARK    3  A    between atoms: C_4  and  C_5
REMARK    4  A    between atoms: N_12  and  C_13
REMARK    5  A    between atoms: C_13  and  C_14
REMARK    6  A    between atoms: N_24  and  C_25
REMARK                            x       y       z     vdW  Elec       q    Type
REMARK                         _______ _______ _______ _____ _____    ______ ____
ROOT
ATOM      1  C   UNL     1       2.840   7.874  18.410  0.00  0.00    +0.000 C 
ENDROOT
BRANCH   1   2
ATOM      2  C   UNL     1       2.589   6.652  19.226  0.00  0.00    +0.000 A 
ATOM      3  N   UNL     1       1.750   6.532  20.240  0.00  0.00    +0.000 NA
ATOM      4  N   UNL     1       1.862   5.253  20.737  0.00  0.00    +0.000 NA
ATOM      5  C   UNL     1       2.750   4.620  20.003  0.00  0.00    +0.000 A 
ATOM      6  C   UNL     1       3.244   3.302  20.029  0.00  0.00    +0.000 A 
ATOM      7  C   UNL     1       4.120   2.924  19.092  0.00  0.00    +0.000 A 
ATOM      8  C   UNL     1       4.593   3.934  18.086  0.00  0.00    +0.000 A 
ATOM      9  N   UNL     1       5.546   3.533  17.187  0.00  0.00    +0.000 N 
ATOM     10  N   UNL     1       4.164   5.169  18.064  0.00  0.00    +0.000 NA
ATOM     11  N   UNL     1       3.241   5.460  19.028  0.00  0.00    +0.000 N 
ATOM     12  H   UNL     1       5.562   2.569  16.874  0.00  0.00    +0.000 HD
BRANCH   9  13
ATOM     13  C   UNL     1       6.303   4.450  16.360  0.00  0.00    +0.000 C 
BRANCH  13  14
ATOM     14  C   UNL     1       6.981   5.526  17.140  0.00  0.00    +0.000 A 
ATOM     15  C   UNL     1       7.676   5.531  18.333  0.00  0.00    +0.000 A 
ATOM     16  C   UNL     1       8.067   6.871  18.563  0.00  0.00    +0.000 A 
ATOM     17  C   UNL     1       7.602   7.596  17.491  0.00  0.00    +0.000 A 
ATOM     18  O   UNL     1       6.947   6.787  16.616  0.00  0.00    +0.000 OA
ENDBRANCH  13  14
ENDBRANCH   9  13
ENDBRANCH   1   2
BRANCH   1  19
ATOM     19  C   UNL     1       1.527   8.557  18.026  0.00  0.00    +0.000 C 
BRANCH  19  21
ATOM     20  O   UNL     1       2.495  10.693  17.549  0.00  0.00    +0.000 OA
ATOM     21  C   UNL     1       1.627  10.068  18.163  0.00  0.00    +0.000 C 
ATOM     22  N   UNL     1       0.690  10.710  18.950  0.00  0.00    +0.000 N 
ATOM     23  C   UNL     1      -0.449  10.087  19.644  0.00  0.00    +0.000 C 
ATOM     24  C   UNL     1      -0.491  10.481  21.136  0.00  0.00    +0.000 C 
ATOM     25  N   UNL     1      -0.480  11.949  21.227  0.00  0.00    +0.000 N 
ATOM     26  C   UNL     1       0.704  12.575  20.609  0.00  0.00    +0.000 C 
ATOM     27  C   UNL     1       0.777  12.170  19.124  0.00  0.00    +0.000 C 
BRANCH  25  28
ATOM     28  C   UNL     1      -1.209  12.632  22.183  0.00  0.00    +0.000 A 
ATOM     29  C   UNL     1      -0.723  13.780  22.828  0.00  0.00    +0.000 A 
ATOM     30  C   UNL     1      -1.458  14.409  23.839  0.00  0.00    +0.000 A 
ATOM     31  C   UNL     1      -2.686  13.886  24.221  0.00  0.00    +0.000 A 
ATOM     32  F   UNL     1      -3.381  14.479  25.203  0.00  0.00    +0.000 F 
ATOM     33  C   UNL     1      -3.196  12.756  23.607  0.00  0.00    +0.000 A 
ATOM     34  C   UNL     1      -2.462  12.139  22.593  0.00  0.00    +0.000 A 
ENDBRANCH  25  28
ENDBRANCH  19  21
ENDBRANCH   1  19
TORSDOF 6
ENDMDL
MODEL 4
REMARK VINA RESULT:      -8.9      1.275      1.892
REMARK  Name = 
REMARK  6 active torsions:
REMARK  status: ('A' for Active; 'I' for Inactive)
REMARK    1  A    between atoms: C_2  and  C_3
REMARK    2  A    between atoms: C_3  and  C_4
REMARK    3  A    between atoms: C_4  and  C_5
REMARK    4  A    between atoms: N_12  and  C_13
REMARK    5  A    between atoms: C_13  and  C_14
REMARK    6  A    between atoms: N_24  and  C_25
REMARK                            x       y       z     vdW  Elec       q    Type
REMARK                         _______ _______ _______ _____ _____    ______ ____
ROOT
ATOM      1  C   UNL     1       2.243   6.871  19.192  0.00  0.00    +0.000 C 
ENDROOT
BRANCH   1   2
ATOM      2  C   UNL     1       2.097   5.437  19.572  0.00  0.00    +0.000 A 
ATOM      3  N   UNL     1       1.285   4.936  20.487  0.00  0.00    +0.000 NA
ATOM      4  N   UNL     1       1.501   3.578  20.550  0.00  0.00    +0.000 NA
ATOM      5  C   UNL     1       2.422   3.281  19.660  0.00  0.00    +0.000 A 
ATOM      6  C   UNL     1       3.014   2.067  19.268  0.00  0.00    +0.000 A 
ATOM      7  C   UNL     1       3.901   2.075  18.267  0.00  0.00    +0.000 A 
ATOM      8  C   UNL     1       4.282   3.387  17.641  0.00  0.00    +0.000 A 
ATOM      9  N   UNL     1       5.247   3.368  16.670  0.00  0.00    +0.000 N 
ATOM     10  N   UNL     1       3.761   4.528  18.011  0.00  0.00    +0.000 NA
ATOM     11  N   UNL     1       2.834   4.424  19.009  0.00  0.00    +0.000 N 
ATOM     12  H   UNL     1       5.331   2.559  16.065  0.00  0.00    +0.000 HD
BRANCH   9  13
ATOM     13  C   UNL     1       5.921   4.556  16.186  0.00  0.00    +0.000 C 
BRANCH  13  14
ATOM     14  C   UNL     1       6.719   5.252  17.238  0.00  0.00    +0.000 A 
ATOM     15  C   UNL     1       6.999   6.581  17.483  0.00  0.00    +0.000 A 
ATOM     16  C   UNL     1       7.830   6.611  18.627  0.00  0.00    +0.000 A 
ATOM     17  C   UNL     1       7.992   5.302  19.018  0.00  0.00    +0.000 A 
ATOM     18  O   UNL     1       7.314   4.468  18.184  0.00  0.00    +0.000 OA
ENDBRANCH  13  14
ENDBRANCH   9  13
ENDBRANCH   1   2
BRANCH   1  19
ATOM     19  C   UNL     1       1.704   7.788  20.290  0.00  0.00    +0.000 C 
BRANCH  19  21
ATOM     20  O   UNL     1       1.646   9.517  18.636  0.00  0.00    +0.000 OA
ATOM     21  C   UNL     1       1.218   9.112  19.720  0.00  0.00    +0.000 C 
ATOM     22  N   UNL     1       0.255   9.806  20.426  0.00  0.00    +0.000 N 
ATOM     23  C   UNL     1      -0.404   9.375  21.670  0.00  0.00    +0.000 C 
ATOM     24  C   UNL     1      -0.339  10.468  22.757  0.00  0.00    +0.000 C 
ATOM     25  N   UNL     1      -0.897  11.710  22.199  0.00  0.00    +0.000 N 
ATOM     26  C   UNL     1      -0.185  12.195  21.001  0.00  0.00    +0.000 C 
ATOM     27  C   UNL     1      -0.216  11.104  19.913  0.00  0.00    +0.000 C 
BRANCH  25  28
ATOM     28  C   UNL     1      -1.658  12.580  22.955  0.00  0.00    +0.000 A 
ATOM     29  C   UNL     1      -1.181  13.828  23.384  0.00  0.00    +0.000 A 
ATOM     30  C   UNL     1      -1.953  14.657  24.206  0.00  0.00    +0.000 A 
ATOM     31  C   UNL     1      -3.211  14.237  24.614  0.00  0.00    +0.000 A 
ATOM     32  F   UNL     1      -3.943  15.024  25.417  0.00  0.00    +0.000 F 
ATOM     33  C   UNL     1      -3.715  13.013  24.211  0.00  0.00    +0.000 A 
ATOM     34  C   UNL     1      -2.943  12.196  23.385  0.00  0.00    +0.000 A 
ENDBRANCH  25  28
ENDBRANCH  19  21
ENDBRANCH   1  19
TORSDOF 6
ENDMDL
MODEL 5
REMARK VINA RESULT:      -8.9      1.674      2.425
REMARK  Name = 
REMARK  6 active torsions:
REMARK  status: ('A' for Active; 'I' for Inactive)
REMARK    1  A    between atoms: C_2  and  C_3
REMARK    2  A    between atoms: C_3  and  C_4
REMARK    3  A    between atoms: C_4  and  C_5
REMARK    4  A    between atoms: N_12  and  C_13
REMARK    5  A    between atoms: C_13  and  C_14
REMARK    6  A    between atoms: N_24  and  C_25
REMARK                            x       y       z     vdW  Elec       q    Type
REMARK                         _______ _______ _______ _____ _____    ______ ____
ROOT
ATOM      1  C   UNL     1       2.797   7.685  18.698  0.00  0.00    +0.000 C 
ENDROOT
BRANCH   1   2
ATOM      2  C   UNL     1       2.439   6.406  19.376  0.00  0.00    +0.000 A 
ATOM      3  N   UNL     1       1.567   6.244  20.356  0.00  0.00    +0.000 NA
ATOM      4  N   UNL     1       1.574   4.916  20.716  0.00  0.00    +0.000 NA
ATOM      5  C   UNL     1       2.433   4.297  19.936  0.00  0.00    +0.000 A 
ATOM      6  C   UNL     1       2.830   2.952  19.831  0.00  0.00    +0.000 A 
ATOM      7  C   UNL     1       3.699   2.609  18.874  0.00  0.00    +0.000 A 
ATOM      8  C   UNL     1       4.270   3.681  17.989  0.00  0.00    +0.000 A 
ATOM      9  N   UNL     1       5.213   3.306  17.070  0.00  0.00    +0.000 N 
ATOM     10  N   UNL     1       3.932   4.940  18.091  0.00  0.00    +0.000 NA
ATOM     11  N   UNL     1       3.008   5.196  19.064  0.00  0.00    +0.000 N 
ATOM     12  H   UNL     1       5.167   2.382  16.656  0.00  0.00    +0.000 HD
BRANCH   9  13
ATOM     13  C   UNL     1       6.056   4.245  16.358  0.00  0.00    +0.000 C 
BRANCH  13  14
ATOM     14  C   UNL     1       6.807   5.166  17.260  0.00  0.00    +0.000 A 
ATOM     15  C   UNL     1       7.094   6.515  17.203  0.00  0.00    +0.000 A 
ATOM     16  C   UNL     1       7.864   6.810  18.353  0.00  0.00    +0.000 A 
ATOM     17  C   UNL     1       7.985   5.628  19.046  0.00  0.00    +0.000 A 
ATOM     18  O   UNL     1       7.340   4.624  18.395  0.00  0.00    +0.000 OA
ENDBRANCH  13  14
ENDBRANCH   9  13
ENDBRANCH   1   2
BRANCH   1  19
ATOM     19  C   UNL     1       1.560   8.356  18.100  0.00  0.00    +0.000 C 
BRANCH  19  21
ATOM     20  O   UNL     1       2.483  10.499  17.569  0.00  0.00    +0.000 OA
ATOM     21  C   UNL     1       1.641   9.870  18.214  0.00  0.00    +0.000 C 
ATOM     22  N   UNL     1       0.714  10.509  19.016  0.00  0.00    +0.000 N 
ATOM     23  C   UNL     1      -0.397   9.879  19.748  0.00  0.00    +0.000 C 
ATOM     24  C   UNL     1      -0.406  10.292  21.235  0.00  0.00    +0.000 C 
ATOM     25  N   UNL     1      -0.415  11.762  21.306  0.00  0.00    +0.000 N 
ATOM     26  C   UNL     1       0.743  12.396  20.649  0.00  0.00    +0.000 C 
ATOM     27  C   UNL     1       0.784  11.972  19.168  0.00  0.00    +0.000 C 
BRANCH  25  28
ATOM     28  C   UNL     1      -1.129  12.447  22.271  0.00  0.00    +0.000 A 
ATOM     29  C   UNL     1      -2.347  11.978  22.787  0.00  0.00    +0.000 A 
ATOM     30  C   UNL     1      -3.079  12.728  23.715  0.00  0.00    +0.000 A 
ATOM     31  C   UNL     1      -2.599  13.963  24.129  0.00  0.00    +0.000 A 
ATOM     32  F   UNL     1      -3.311  14.689  25.004  0.00  0.00    +0.000 F 
ATOM     33  C   UNL     1      -1.402  14.457  23.642  0.00  0.00    +0.000 A 
ATOM     34  C   UNL     1      -0.674  13.700  22.724  0.00  0.00    +0.000 A 
ENDBRANCH  25  28
ENDBRANCH  19  21
ENDBRANCH   1  19
TORSDOF 6
ENDMDL
MODEL 6
REMARK VINA RESULT:      -8.8      1.082      1.232
REMARK  Name = 
REMARK  6 active torsions:
REMARK  status: ('A' for Active; 'I' for Inactive)
REMARK    1  A    between atoms: C_2  and  C_3
REMARK    2  A    between atoms: C_3  and  C_4
REMARK    3  A    between atoms: C_4  and  C_5
REMARK    4  A    between atoms: N_12  and  C_13
REMARK    5  A    between atoms: C_13  and  C_14
REMARK    6  A    between atoms: N_24  and  C_25
REMARK                            x       y       z     vdW  Elec       q    Type
REMARK                         _______ _______ _______ _____ _____    ______ ____
ROOT
ATOM      1  C   UNL     1       1.866   6.645  19.406  0.00  0.00    +0.000 C 
ENDROOT
BRANCH   1   2
ATOM      2  C   UNL     1       1.898   5.299  20.045  0.00  0.00    +0.000 A 
ATOM      3  N   UNL     1       0.960   4.755  20.800  0.00  0.00    +0.000 NA
ATOM      4  N   UNL     1       1.410   3.524  21.220  0.00  0.00    +0.000 NA
ATOM      5  C   UNL     1       2.601   3.338  20.695  0.00  0.00    +0.000 A 
ATOM      6  C   UNL     1       3.514   2.269  20.755  0.00  0.00    +0.000 A 
ATOM      7  C   UNL     1       4.647   2.348  20.047  0.00  0.00    +0.000 A 
ATOM      8  C   UNL     1       4.933   3.600  19.267  0.00  0.00    +0.000 A 
ATOM      9  N   UNL     1       6.135   3.678  18.615  0.00  0.00    +0.000 N 
ATOM     10  N   UNL     1       4.108   4.614  19.222  0.00  0.00    +0.000 NA
ATOM     11  N   UNL     1       2.958   4.432  19.937  0.00  0.00    +0.000 N 
ATOM     12  H   UNL     1       6.561   2.833  18.250  0.00  0.00    +0.000 HD
BRANCH   9  13
ATOM     13  C   UNL     1       6.675   4.908  18.074  0.00  0.00    +0.000 C 
BRANCH  13  14
ATOM     14  C   UNL     1       6.485   5.038  16.599  0.00  0.00    +0.000 A 
ATOM     15  C   UNL     1       5.431   5.471  15.820  0.00  0.00    +0.000 A 
ATOM     16  C   UNL     1       5.849   5.344  14.474  0.00  0.00    +0.000 A 
ATOM     17  C   UNL     1       7.135   4.857  14.517  0.00  0.00    +0.000 A 
ATOM     18  O   UNL     1       7.534   4.676  15.805  0.00  0.00    +0.000 OA
ENDBRANCH  13  14
ENDBRANCH   9  13
ENDBRANCH   1   2
BRANCH   1  19
ATOM     19  C   UNL     1       1.710   7.747  20.454  0.00  0.00    +0.000 C 
BRANCH  19  21
ATOM     20  O   UNL     1       1.593   9.395  18.722  0.00  0.00    +0.000 OA
ATOM     21  C   UNL     1       1.194   9.036  19.833  0.00  0.00    +0.000 C 
ATOM     22  N   UNL     1       0.237   9.751  20.527  0.00  0.00    +0.000 N 
ATOM     23  C   UNL     1      -0.389   9.371  21.804  0.00  0.00    +0.000 C 
ATOM     24  C   UNL     1      -0.315  10.515  22.836  0.00  0.00    +0.000 C 
ATOM     25  N   UNL     1      -0.902  11.722  22.232  0.00  0.00    +0.000 N 
ATOM     26  C   UNL     1      -0.222  12.159  20.998  0.00  0.00    +0.000 C 
ATOM     27  C   UNL     1      -0.262  11.017  19.963  0.00  0.00    +0.000 C 
BRANCH  25  28
ATOM     28  C   UNL     1      -1.658  12.617  22.964  0.00  0.00    +0.000 A 
ATOM     29  C   UNL     1      -1.161  13.859  23.389  0.00  0.00    +0.000 A 
ATOM     30  C   UNL     1      -1.931  14.714  24.186  0.00  0.00    +0.000 A 
ATOM     31  C   UNL     1      -3.207  14.327  24.573  0.00  0.00    +0.000 A 
ATOM     32  F   UNL     1      -3.937  15.140  25.352  0.00  0.00    +0.000 F 
ATOM     33  C   UNL     1      -3.730  13.111  24.172  0.00  0.00    +0.000 A 
ATOM     34  C   UNL     1      -2.961  12.268  23.370  0.00  0.00    +0.000 A 
ENDBRANCH  25  28
ENDBRANCH  19  21
ENDBRANCH   1  19
TORSDOF 6
ENDMDL
MODEL 7
REMARK VINA RESULT:      -8.3      1.362      2.007
REMARK  Name = 
REMARK  6 active torsions:
REMARK  status: ('A' for Active; 'I' for Inactive)
REMARK    1  A    between atoms: C_2  and  C_3
REMARK    2  A    between atoms: C_3  and  C_4
REMARK    3  A    between atoms: C_4  and  C_5
REMARK    4  A    between atoms: N_12  and  C_13
REMARK    5  A    between atoms: C_13  and  C_14
REMARK    6  A    between atoms: N_24  and  C_25
REMARK                            x       y       z     vdW  Elec       q    Type
REMARK                         _______ _______ _______ _____ _____    ______ ____
ROOT
ATOM      1  C   UNL     1       2.092   6.906  18.427  0.00  0.00    +0.000 C 
ENDROOT
BRANCH   1   2
ATOM      2  C   UNL     1       2.041   5.568  19.083  0.00  0.00    +0.000 A 
ATOM      3  N   UNL     1       1.263   5.203  20.087  0.00  0.00    +0.000 NA
ATOM      4  N   UNL     1       1.568   3.901  20.412  0.00  0.00    +0.000 NA
ATOM      5  C   UNL     1       2.508   3.497  19.587  0.00  0.00    +0.000 A 
ATOM      6  C   UNL     1       3.179   2.270  19.433  0.00  0.00    +0.000 A 
ATOM      7  C   UNL     1       4.065   2.139  18.439  0.00  0.00    +0.000 A 
ATOM      8  C   UNL     1       4.358   3.325  17.564  0.00  0.00    +0.000 A 
ATOM      9  N   UNL     1       5.324   3.178  16.604  0.00  0.00    +0.000 N 
ATOM     10  N   UNL     1       3.763   4.480  17.710  0.00  0.00    +0.000 NA
ATOM     11  N   UNL     1       2.844   4.514  18.720  0.00  0.00    +0.000 N 
ATOM     12  H   UNL     1       5.462   2.274  16.168  0.00  0.00    +0.000 HD
BRANCH   9  13
ATOM     13  C   UNL     1       5.919   4.290  15.890  0.00  0.00    +0.000 C 
BRANCH  13  14
ATOM     14  C   UNL     1       6.620   5.259  16.783  0.00  0.00    +0.000 A 
ATOM     15  C   UNL     1       7.455   5.103  17.871  0.00  0.00    +0.000 A 
ATOM     16  C   UNL     1       7.788   6.406  18.310  0.00  0.00    +0.000 A 
ATOM     17  C   UNL     1       7.150   7.273  17.453  0.00  0.00    +0.000 A 
ATOM     18  O   UNL     1       6.443   6.586  16.517  0.00  0.00    +0.000 OA
ENDBRANCH  13  14
ENDBRANCH   9  13
ENDBRANCH   1   2
BRANCH   1  19
ATOM     19  C   UNL     1       2.079   8.027  19.467  0.00  0.00    +0.000 C 
BRANCH  19  21
ATOM     20  O   UNL     1       1.796   9.740  17.818  0.00  0.00    +0.000 OA
ATOM     21  C   UNL     1       1.440   9.291  18.911  0.00  0.00    +0.000 C 
ATOM     22  N   UNL     1       0.426   9.879  19.642  0.00  0.00    +0.000 N 
ATOM     23  C   UNL     1      -0.153   9.379  20.900  0.00  0.00    +0.000 C 
ATOM     24  C   UNL     1      -0.180  10.473  21.988  0.00  0.00    +0.000 C 
ATOM     25  N   UNL     1      -0.880  11.648  21.445  0.00  0.00    +0.000 N 
ATOM     26  C   UNL     1      -0.253  12.207  20.233  0.00  0.00    +0.000 C 
ATOM     27  C   UNL     1      -0.193  11.118  19.143  0.00  0.00    +0.000 C 
BRANCH  25  28
ATOM     28  C   UNL     1      -1.712  12.432  22.222  0.00  0.00    +0.000 A 
ATOM     29  C   UNL     1      -2.548  11.895  23.214  0.00  0.00    +0.000 A 
ATOM     30  C   UNL     1      -3.428  12.708  23.938  0.00  0.00    +0.000 A 
ATOM     31  C   UNL     1      -3.485  14.068  23.667  0.00  0.00    +0.000 A 
ATOM     32  F   UNL     1      -4.343  14.843  24.349  0.00  0.00    +0.000 F 
ATOM     33  C   UNL     1      -2.676  14.632  22.696  0.00  0.00    +0.000 A 
ATOM     34  C   UNL     1      -1.795  13.817  21.985  0.00  0.00    +0.000 A 
ENDBRANCH  25  28
ENDBRANCH  19  21
ENDBRANCH   1  19
TORSDOF 6
ENDMDL
MODEL 8
REMARK VINA RESULT:      -8.3      1.378      1.677
REMARK  Name = 
REMARK  6 active torsions:
REMARK  status: ('A' for Active; 'I' for Inactive)
REMARK    1  A    between atoms: C_2  and  C_3
REMARK    2  A    between atoms: C_3  and  C_4
REMARK    3  A    between atoms: C_4  and  C_5
REMARK    4  A    between atoms: N_12  and  C_13
REMARK    5  A    between atoms: C_13  and  C_14
REMARK    6  A    between atoms: N_24  and  C_25
REMARK                            x       y       z     vdW  Elec       q    Type
REMARK                         _______ _______ _______ _____ _____    ______ ____
ROOT
ATOM      1  C   UNL     1       2.740   7.739  19.137  0.00  0.00    +0.000 C 
ENDROOT
BRANCH   1   2
ATOM      2  C   UNL     1       2.384   6.462  19.819  0.00  0.00    +0.000 A 
ATOM      3  N   UNL     1       1.361   6.252  20.629  0.00  0.00    +0.000 NA
ATOM      4  N   UNL     1       1.427   4.950  21.070  0.00  0.00    +0.000 NA
ATOM      5  C   UNL     1       2.475   4.393  20.505  0.00  0.00    +0.000 A 
ATOM      6  C   UNL     1       3.013   3.094  20.564  0.00  0.00    +0.000 A 
ATOM      7  C   UNL     1       4.079   2.803  19.810  0.00  0.00    +0.000 A 
ATOM      8  C   UNL     1       4.702   3.889  18.978  0.00  0.00    +0.000 A 
ATOM      9  N   UNL     1       5.836   3.576  18.277  0.00  0.00    +0.000 N 
ATOM     10  N   UNL     1       4.231   5.108  18.933  0.00  0.00    +0.000 NA
ATOM     11  N   UNL     1       3.117   5.307  19.698  0.00  0.00    +0.000 N 
ATOM     12  H   UNL     1       5.961   2.634  17.924  0.00  0.00    +0.000 HD
BRANCH   9  13
ATOM     13  C   UNL     1       6.705   4.567  17.674  0.00  0.00    +0.000 C 
BRANCH  13  14
ATOM     14  C   UNL     1       6.662   4.560  16.182  0.00  0.00    +0.000 A 
ATOM     15  C   UNL     1       7.541   5.000  15.212  0.00  0.00    +0.000 A 
ATOM     16  C   UNL     1       6.928   4.731  13.966  0.00  0.00    +0.000 A 
ATOM     17  C   UNL     1       5.723   4.132  14.252  0.00  0.00    +0.000 A 
ATOM     18  O   UNL     1       5.555   4.016  15.596  0.00  0.00    +0.000 OA
ENDBRANCH  13  14
ENDBRANCH   9  13
ENDBRANCH   1   2
BRANCH   1  19
ATOM     19  C   UNL     1       1.567   8.267  18.311  0.00  0.00    +0.000 C 
BRANCH  19  21
ATOM     20  O   UNL     1       2.318  10.403  17.534  0.00  0.00    +0.000 OA
ATOM     21  C   UNL     1       1.550   9.787  18.278  0.00  0.00    +0.000 C 
ATOM     22  N   UNL     1       0.621  10.442  19.064  0.00  0.00    +0.000 N 
ATOM     23  C   UNL     1      -0.411   9.817  19.908  0.00  0.00    +0.000 C 
ATOM     24  C   UNL     1      -0.379  10.371  21.348  0.00  0.00    +0.000 C 
ATOM     25  N   UNL     1      -0.484  11.837  21.282  0.00  0.00    +0.000 N 
ATOM     26  C   UNL     1       0.598  12.476  20.509  0.00  0.00    +0.000 C 
ATOM     27  C   UNL     1       0.599  11.914  19.074  0.00  0.00    +0.000 C 
BRANCH  25  28
ATOM     28  C   UNL     1      -1.198  12.566  22.214  0.00  0.00    +0.000 A 
ATOM     29  C   UNL     1      -0.684  13.720  22.827  0.00  0.00    +0.000 A 
ATOM     30  C   UNL     1      -1.406  14.397  23.817  0.00  0.00    +0.000 A 
ATOM     31  C   UNL     1      -2.648  13.918  24.209  0.00  0.00    +0.000 A 
ATOM     32  F   UNL     1      -3.330  14.557  25.171  0.00  0.00    +0.000 F 
ATOM     33  C   UNL     1      -3.186  12.784  23.627  0.00  0.00    +0.000 A 
ATOM     34  C   UNL     1      -2.465  12.119  22.635  0.00  0.00    +0.000 A 
ENDBRANCH  25  28
ENDBRANCH  19  21
ENDBRANCH   1  19
TORSDOF 6
ENDMDL
MODEL 9
REMARK VINA RESULT:      -8.3      3.135      3.654
REMARK  Name = 
REMARK  6 active torsions:
REMARK  status: ('A' for Active; 'I' for Inactive)
REMARK    1  A    between atoms: C_2  and  C_3
REMARK    2  A    between atoms: C_3  and  C_4
REMARK    3  A    between atoms: C_4  and  C_5
REMARK    4  A    between atoms: N_12  and  C_13
REMARK    5  A    between atoms: C_13  and  C_14
REMARK    6  A    between atoms: N_24  and  C_25
REMARK                            x       y       z     vdW  Elec       q    Type
REMARK                         _______ _______ _______ _____ _____    ______ ____
ROOT
ATOM      1  C   UNL     1       2.776   7.959  18.251  0.00  0.00    +0.000 C 
ENDROOT
BRANCH   1   2
ATOM      2  C   UNL     1       2.638   6.657  18.964  0.00  0.00    +0.000 A 
ATOM      3  N   UNL     1       1.889   6.407  20.024  0.00  0.00    +0.000 NA
ATOM      4  N   UNL     1       2.088   5.094  20.387  0.00  0.00    +0.000 NA
ATOM      5  C   UNL     1       2.936   4.571  19.529  0.00  0.00    +0.000 A 
ATOM      6  C   UNL     1       3.479   3.280  19.391  0.00  0.00    +0.000 A 
ATOM      7  C   UNL     1       4.289   3.028  18.356  0.00  0.00    +0.000 A 
ATOM      8  C   UNL     1       4.641   4.147  17.418  0.00  0.00    +0.000 A 
ATOM      9  N   UNL     1       5.531   3.873  16.413  0.00  0.00    +0.000 N 
ATOM     10  N   UNL     1       4.167   5.359  17.547  0.00  0.00    +0.000 NA
ATOM     11  N   UNL     1       3.315   5.518  18.604  0.00  0.00    +0.000 N 
ATOM     12  H   UNL     1       5.557   2.944  16.009  0.00  0.00    +0.000 HD
BRANCH   9  13
ATOM     13  C   UNL     1       6.185   4.895  15.621  0.00  0.00    +0.000 C 
BRANCH  13  14
ATOM     14  C   UNL     1       6.473   4.463  14.222  0.00  0.00    +0.000 A 
ATOM     15  C   UNL     1       7.433   4.832  13.300  0.00  0.00    +0.000 A 
ATOM     16  C   UNL     1       7.178   4.075  12.132  0.00  0.00    +0.000 A 
ATOM     17  C   UNL     1       6.091   3.282  12.419  0.00  0.00    +0.000 A 
ATOM     18  O   UNL     1       5.660   3.504  13.689  0.00  0.00    +0.000 OA
ENDBRANCH  13  14
ENDBRANCH   9  13
ENDBRANCH   1   2
BRANCH   1  19
ATOM     19  C   UNL     1       1.407   8.526  17.873  0.00  0.00    +0.000 C 
BRANCH  19  21
ATOM     20  O   UNL     1       1.932  10.266  19.432  0.00  0.00    +0.000 OA
ATOM     21  C   UNL     1       1.112   9.812  18.629  0.00  0.00    +0.000 C 
ATOM     22  N   UNL     1      -0.070  10.471  18.348  0.00  0.00    +0.000 N 
ATOM     23  C   UNL     1      -1.072  10.085  17.341  0.00  0.00    +0.000 C 
ATOM     24  C   UNL     1      -2.491  10.022  17.945  0.00  0.00    +0.000 C 
ATOM     25  N   UNL     1      -2.776  11.313  18.592  0.00  0.00    +0.000 N 
ATOM     26  C   UNL     1      -1.824  11.664  19.663  0.00  0.00    +0.000 C 
ATOM     27  C   UNL     1      -0.396  11.704  19.083  0.00  0.00    +0.000 C 
BRANCH  25  28
ATOM     28  C   UNL     1      -4.031  11.890  18.560  0.00  0.00    +0.000 A 
ATOM     29  C   UNL     1      -4.604  12.518  19.677  0.00  0.00    +0.000 A 
ATOM     30  C   UNL     1      -5.904  13.035  19.630  0.00  0.00    +0.000 A 
ATOM     31  C   UNL     1      -6.647  12.918  18.463  0.00  0.00    +0.000 A 
ATOM     32  F   UNL     1      -7.900  13.396  18.426  0.00  0.00    +0.000 F 
ATOM     33  C   UNL     1      -6.114  12.305  17.343  0.00  0.00    +0.000 A 
ATOM     34  C   UNL     1      -4.814  11.801  17.394  0.00  0.00    +0.000 A 
ENDBRANCH  25  28
ENDBRANCH  19  21
ENDBRANCH   1  19
TORSDOF 6
ENDMDL
