MODEL 1
REMARK VINA RESULT:      -7.6      0.000      0.000
REMARK  Name = 
REMARK  19 active torsions:
REMARK  status: ('A' for Active; 'I' for Inactive)
REMARK    1  A    between atoms: C_1  and  C_2
REMARK    2  A    between atoms: C_2  and  C_3
REMARK    3  A    between atoms: C_3  and  C_4
REMARK    4  A    between atoms: C_4  and  C_5
REMARK    5  A    between atoms: C_5  and  C_6
REMARK    6  A    between atoms: C_6  and  C_7
REMARK    7  A    between atoms: C_6  and  O_8
REMARK    8  A    between atoms: C_6  and  C_9
REMARK    9  A    between atoms: C_10  and  C_11
REMARK   10  A    between atoms: C_12  and  O_13
REMARK   11  A    between atoms: C_15  and  O_16
REMARK   12  A    between atoms: C_17  and  C_18
REMARK   13  A    between atoms: C_18  and  C_19
REMARK   14  A    between atoms: C_19  and  C_20
REMARK   15  A    between atoms: C_21  and  C_22
REMARK   16  A    between atoms: C_22  and  C_23
REMARK   17  A    between atoms: C_23  and  C_24
REMARK   18  A    between atoms: C_24  and  O_26
REMARK   19  A    between atoms: O_26  and  C_27
REMARK                            x       y       z     vdW  Elec       q    Type
REMARK                         _______ _______ _______ _____ _____    ______ ____
ROOT
ATOM      1  C   UNL     1       5.643   4.205  16.290  0.00  0.00    +0.000 C 
ATOM      2  C   UNL     1       6.862   5.117  16.506  0.00  0.00    +0.000 C 
ATOM      3  C   UNL     1       6.566   5.877  17.784  0.00  0.00    +0.000 C 
ATOM      4  C   UNL     1       5.055   6.045  17.825  0.00  0.00    +0.000 C 
ATOM      5  C   UNL     1       4.449   5.034  16.826  0.00  0.00    +0.000 C 
ENDROOT
BRANCH   2   6
ATOM      6  O   UNL     1       8.063   4.368  16.651  0.00  0.00    +0.000 OA
ATOM      7  H   UNL     1       7.942   3.502  16.222  0.00  0.00    +0.000 HD
ENDBRANCH   2   6
BRANCH   4   8
ATOM      8  O   UNL     1       4.622   5.896  19.168  0.00  0.00    +0.000 OA
ATOM      9  H   UNL     1       3.895   6.521  19.337  0.00  0.00    +0.000 HD
ENDBRANCH   4   8
BRANCH   1  11
ATOM     10  C   UNL     1       6.442   3.990  13.883  0.00  0.00    +0.000 C 
ATOM     11  C   UNL     1       5.488   3.864  14.822  0.00  0.00    +0.000 C 
BRANCH  10  12
ATOM     12  C   UNL     1       6.285   3.705  12.398  0.00  0.00    +0.000 C 
ATOM     13  C   UNL     1       7.288   4.563  11.620  0.00  0.00    +0.000 C 
BRANCH  12  14
ATOM     14  O   UNL     1       6.586   2.331  12.136  0.00  0.00    +0.000 OA
ATOM     15  H   UNL     1       7.230   2.314  11.410  0.00  0.00    +0.000 HD
ENDBRANCH  12  14
BRANCH  12  16
ATOM     16  C   UNL     1       4.823   3.962  11.956  0.00  0.00    +0.000 C 
BRANCH  16  17
ATOM     17  C   UNL     1       4.228   2.796  11.151  0.00  0.00    +0.000 C 
BRANCH  17  18
ATOM     18  C   UNL     1       2.986   3.182  10.345  0.00  0.00    +0.000 C 
BRANCH  18  20
ATOM     19  C   UNL     1       2.021   5.035   8.906  0.00  0.00    +0.000 C 
ATOM     20  C   UNL     1       3.267   4.467   9.559  0.00  0.00    +0.000 C 
ENDBRANCH  18  20
ENDBRANCH  17  18
ENDBRANCH  16  17
ENDBRANCH  12  16
ENDBRANCH  10  12
ENDBRANCH   1  11
BRANCH   5  21
ATOM     21  C   UNL     1       3.325   4.134  17.366  0.00  0.00    +0.000 C 
BRANCH  21  22
ATOM     22  C   UNL     1       3.792   2.821  18.003  0.00  0.00    +0.000 C 
BRANCH  22  23
ATOM     23  C   UNL     1       2.744   1.747  18.071  0.00  0.00    +0.000 C 
ATOM     24  C   UNL     1       1.494   1.928  18.531  0.00  0.00    +0.000 C 
BRANCH  24  25
ATOM     25  C   UNL     1       0.958   3.214  19.095  0.00  0.00    +0.000 C 
BRANCH  25  26
ATOM     26  C   UNL     1       0.757   3.150  20.605  0.00  0.00    +0.000 C 
BRANCH  26  27
ATOM     27  C   UNL     1       1.957   3.725  21.305  0.00  0.00    +0.000 C 
ATOM     28  O   UNL     1       2.470   3.273  22.321  0.00  0.00    +0.000 OA
BRANCH  27  29
ATOM     29  O   UNL     1       2.405   4.831  20.643  0.00  0.00    +0.000 OA
ATOM     30  C   UNL     1       1.633   6.002  20.910  0.00  0.00    +0.000 C 
ENDBRANCH  27  29
ENDBRANCH  26  27
ENDBRANCH  25  26
ENDBRANCH  24  25
ENDBRANCH  22  23
ENDBRANCH  21  22
ENDBRANCH   5  21
TORSDOF 16
ENDMDL
MODEL 2
REMARK VINA RESULT:      -7.2      3.302      6.377
REMARK  Name = 
REMARK  19 active torsions:
REMARK  status: ('A' for Active; 'I' for Inactive)
REMARK    1  A    between atoms: C_1  and  C_2
REMARK    2  A    between atoms: C_2  and  C_3
REMARK    3  A    between atoms: C_3  and  C_4
REMARK    4  A    between atoms: C_4  and  C_5
REMARK    5  A    between atoms: C_5  and  C_6
REMARK    6  A    between atoms: C_6  and  C_7
REMARK    7  A    between atoms: C_6  and  O_8
REMARK    8  A    between atoms: C_6  and  C_9
REMARK    9  A    between atoms: C_10  and  C_11
REMARK   10  A    between atoms: C_12  and  O_13
REMARK   11  A    between atoms: C_15  and  O_16
REMARK   12  A    between atoms: C_17  and  C_18
REMARK   13  A    between atoms: C_18  and  C_19
REMARK   14  A    between atoms: C_19  and  C_20
REMARK   15  A    between atoms: C_21  and  C_22
REMARK   16  A    between atoms: C_22  and  C_23
REMARK   17  A    between atoms: C_23  and  C_24
REMARK   18  A    between atoms: C_24  and  O_26
REMARK   19  A    between atoms: O_26  and  C_27
REMARK                            x       y       z     vdW  Elec       q    Type
REMARK                         _______ _______ _______ _____ _____    ______ ____
ROOT
ATOM      1  C   UNL     1       2.662   4.976  18.068  0.00  0.00    +0.000 C 
ATOM      2  C   UNL     1       2.053   3.724  18.718  0.00  0.00    +0.000 C 
ATOM      3  C   UNL     1       1.452   4.209  20.023  0.00  0.00    +0.000 C 
ATOM      4  C   UNL     1       2.333   5.360  20.483  0.00  0.00    +0.000 C 
ATOM      5  C   UNL     1       3.166   5.820  19.265  0.00  0.00    +0.000 C 
ENDROOT
BRANCH   2   6
ATOM      6  O   UNL     1       1.043   3.143  17.902  0.00  0.00    +0.000 OA
ATOM      7  H   UNL     1       1.375   2.297  17.553  0.00  0.00    +0.000 HD
ENDBRANCH   2   6
BRANCH   4   8
ATOM      8  O   UNL     1       1.505   6.358  21.057  0.00  0.00    +0.000 OA
ATOM      9  H   UNL     1       1.900   6.652  21.898  0.00  0.00    +0.000 HD
ENDBRANCH   4   8
BRANCH   1  11
ATOM     10  C   UNL     1       4.849   5.358  16.823  0.00  0.00    +0.000 C 
ATOM     11  C   UNL     1       3.785   4.594  17.126  0.00  0.00    +0.000 C 
BRANCH  10  12
ATOM     12  C   UNL     1       5.955   5.012  15.838  0.00  0.00    +0.000 C 
ATOM     13  C   UNL     1       5.796   3.550  15.408  0.00  0.00    +0.000 C 
BRANCH  12  14
ATOM     14  O   UNL     1       5.833   5.829  14.670  0.00  0.00    +0.000 OA
ATOM     15  H   UNL     1       5.855   6.754  14.965  0.00  0.00    +0.000 HD
ENDBRANCH  12  14
BRANCH  12  16
ATOM     16  C   UNL     1       7.341   5.294  16.470  0.00  0.00    +0.000 C 
BRANCH  16  17
ATOM     17  C   UNL     1       7.301   5.336  18.006  0.00  0.00    +0.000 C 
BRANCH  17  18
ATOM     18  C   UNL     1       7.861   6.631  18.596  0.00  0.00    +0.000 C 
BRANCH  18  20
ATOM     19  C   UNL     1       8.267   9.082  18.078  0.00  0.00    +0.000 C 
ATOM     20  C   UNL     1       7.697   7.767  17.580  0.00  0.00    +0.000 C 
ENDBRANCH  18  20
ENDBRANCH  17  18
ENDBRANCH  16  17
ENDBRANCH  12  16
ENDBRANCH  10  12
ENDBRANCH   1  11
BRANCH   5  21
ATOM     21  C   UNL     1       3.142   7.326  18.954  0.00  0.00    +0.000 C 
BRANCH  21  22
ATOM     22  C   UNL     1       2.023   7.778  18.011  0.00  0.00    +0.000 C 
BRANCH  22  23
ATOM     23  C   UNL     1       1.981   9.256  17.745  0.00  0.00    +0.000 C 
ATOM     24  C   UNL     1       1.254  10.138  18.452  0.00  0.00    +0.000 C 
BRANCH  24  25
ATOM     25  C   UNL     1       0.332   9.786  19.586  0.00  0.00    +0.000 C 
BRANCH  25  26
ATOM     26  C   UNL     1       0.591  10.629  20.831  0.00  0.00    +0.000 C 
BRANCH  26  27
ATOM     27  C   UNL     1       0.194   9.861  22.060  0.00  0.00    +0.000 C 
ATOM     28  O   UNL     1       0.165   8.639  22.154  0.00  0.00    +0.000 OA
BRANCH  27  29
ATOM     29  O   UNL     1      -0.129  10.719  23.071  0.00  0.00    +0.000 OA
ATOM     30  C   UNL     1      -0.988  11.782  22.657  0.00  0.00    +0.000 C 
ENDBRANCH  27  29
ENDBRANCH  26  27
ENDBRANCH  25  26
ENDBRANCH  24  25
ENDBRANCH  22  23
ENDBRANCH  21  22
ENDBRANCH   5  21
TORSDOF 16
ENDMDL
MODEL 3
REMARK VINA RESULT:      -7.1      3.346      5.684
REMARK  Name = 
REMARK  19 active torsions:
REMARK  status: ('A' for Active; 'I' for Inactive)
REMARK    1  A    between atoms: C_1  and  C_2
REMARK    2  A    between atoms: C_2  and  C_3
REMARK    3  A    between atoms: C_3  and  C_4
REMARK    4  A    between atoms: C_4  and  C_5
REMARK    5  A    between atoms: C_5  and  C_6
REMARK    6  A    between atoms: C_6  and  C_7
REMARK    7  A    between atoms: C_6  and  O_8
REMARK    8  A    between atoms: C_6  and  C_9
REMARK    9  A    between atoms: C_10  and  C_11
REMARK   10  A    between atoms: C_12  and  O_13
REMARK   11  A    between atoms: C_15  and  O_16
REMARK   12  A    between atoms: C_17  and  C_18
REMARK   13  A    between atoms: C_18  and  C_19
REMARK   14  A    between atoms: C_19  and  C_20
REMARK   15  A    between atoms: C_21  and  C_22
REMARK   16  A    between atoms: C_22  and  C_23
REMARK   17  A    between atoms: C_23  and  C_24
REMARK   18  A    between atoms: C_24  and  O_26
REMARK   19  A    between atoms: O_26  and  C_27
REMARK                            x       y       z     vdW  Elec       q    Type
REMARK                         _______ _______ _______ _____ _____    ______ ____
ROOT
ATOM      1  C   UNL     1       3.325   3.853  18.568  0.00  0.00    +0.000 C 
ATOM      2  C   UNL     1       2.906   2.384  18.734  0.00  0.00    +0.000 C 
ATOM      3  C   UNL     1       1.651   2.425  19.583  0.00  0.00    +0.000 C 
ATOM      4  C   UNL     1       1.811   3.626  20.502  0.00  0.00    +0.000 C 
ATOM      5  C   UNL     1       2.925   4.517  19.909  0.00  0.00    +0.000 C 
ENDROOT
BRANCH   2   6
ATOM      6  O   UNL     1       2.628   1.769  17.481  0.00  0.00    +0.000 OA
ATOM      7  H   UNL     1       1.867   2.222  17.076  0.00  0.00    +0.000 HD
ENDBRANCH   2   6
BRANCH   4   8
ATOM      8  O   UNL     1       0.547   4.256  20.643  0.00  0.00    +0.000 OA
ATOM      9  H   UNL     1      -0.133   3.574  20.786  0.00  0.00    +0.000 HD
ENDBRANCH   4   8
BRANCH   1  11
ATOM     10  C   UNL     1       5.433   4.978  17.689  0.00  0.00    +0.000 C 
ATOM     11  C   UNL     1       4.813   3.954  18.303  0.00  0.00    +0.000 C 
BRANCH  10  12
ATOM     12  C   UNL     1       6.916   5.069  17.366  0.00  0.00    +0.000 C 
ATOM     13  C   UNL     1       7.474   6.366  17.961  0.00  0.00    +0.000 C 
BRANCH  12  14
ATOM     14  O   UNL     1       7.609   3.974  17.971  0.00  0.00    +0.000 OA
ATOM     15  H   UNL     1       8.313   3.709  17.358  0.00  0.00    +0.000 HD
ENDBRANCH  12  14
BRANCH  12  16
ATOM     16  C   UNL     1       7.135   4.980  15.835  0.00  0.00    +0.000 C 
BRANCH  16  17
ATOM     17  C   UNL     1       6.366   3.820  15.187  0.00  0.00    +0.000 C 
BRANCH  17  18
ATOM     18  C   UNL     1       5.514   4.245  13.989  0.00  0.00    +0.000 C 
BRANCH  18  20
ATOM     19  C   UNL     1       7.137   4.140  12.042  0.00  0.00    +0.000 C 
ATOM     20  C   UNL     1       5.967   3.476  12.743  0.00  0.00    +0.000 C 
ENDBRANCH  18  20
ENDBRANCH  17  18
ENDBRANCH  16  17
ENDBRANCH  12  16
ENDBRANCH  10  12
ENDBRANCH   1  11
BRANCH   5  21
ATOM     21  C   UNL     1       2.583   6.005  19.731  0.00  0.00    +0.000 C 
BRANCH  21  22
ATOM     22  C   UNL     1       2.157   6.411  18.316  0.00  0.00    +0.000 C 
BRANCH  22  23
ATOM     23  C   UNL     1       2.817   7.655  17.792  0.00  0.00    +0.000 C 
ATOM     24  C   UNL     1       2.376   8.905  18.016  0.00  0.00    +0.000 C 
BRANCH  24  25
ATOM     25  C   UNL     1       1.132   9.258  18.783  0.00  0.00    +0.000 C 
BRANCH  25  26
ATOM     26  C   UNL     1       0.119  10.018  17.932  0.00  0.00    +0.000 C 
BRANCH  26  27
ATOM     27  C   UNL     1      -1.078  10.380  18.766  0.00  0.00    +0.000 C 
ATOM     28  O   UNL     1      -1.049  11.024  19.808  0.00  0.00    +0.000 OA
BRANCH  27  29
ATOM     29  O   UNL     1      -2.217   9.891  18.194  0.00  0.00    +0.000 OA
ATOM     30  C   UNL     1      -2.346  10.227  16.813  0.00  0.00    +0.000 C 
ENDBRANCH  27  29
ENDBRANCH  26  27
ENDBRANCH  25  26
ENDBRANCH  24  25
ENDBRANCH  22  23
ENDBRANCH  21  22
ENDBRANCH   5  21
TORSDOF 16
ENDMDL
MODEL 4
REMARK VINA RESULT:      -7.0      4.446      6.514
REMARK  Name = 
REMARK  19 active torsions:
REMARK  status: ('A' for Active; 'I' for Inactive)
REMARK    1  A    between atoms: C_1  and  C_2
REMARK    2  A    between atoms: C_2  and  C_3
REMARK    3  A    between atoms: C_3  and  C_4
REMARK    4  A    between atoms: C_4  and  C_5
REMARK    5  A    between atoms: C_5  and  C_6
REMARK    6  A    between atoms: C_6  and  C_7
REMARK    7  A    between atoms: C_6  and  O_8
REMARK    8  A    between atoms: C_6  and  C_9
REMARK    9  A    between atoms: C_10  and  C_11
REMARK   10  A    between atoms: C_12  and  O_13
REMARK   11  A    between atoms: C_15  and  O_16
REMARK   12  A    between atoms: C_17  and  C_18
REMARK   13  A    between atoms: C_18  and  C_19
REMARK   14  A    between atoms: C_19  and  C_20
REMARK   15  A    between atoms: C_21  and  C_22
REMARK   16  A    between atoms: C_22  and  C_23
REMARK   17  A    between atoms: C_23  and  C_24
REMARK   18  A    between atoms: C_24  and  O_26
REMARK   19  A    between atoms: O_26  and  C_27
REMARK                            x       y       z     vdW  Elec       q    Type
REMARK                         _______ _______ _______ _____ _____    ______ ____
ROOT
ATOM      1  C   UNL     1       6.143   5.545  18.743  0.00  0.00    +0.000 C 
ATOM      2  C   UNL     1       7.617   5.572  19.177  0.00  0.00    +0.000 C 
ATOM      3  C   UNL     1       8.191   6.827  18.549  0.00  0.00    +0.000 C 
ATOM      4  C   UNL     1       7.432   7.022  17.245  0.00  0.00    +0.000 C 
ATOM      5  C   UNL     1       6.154   6.157  17.320  0.00  0.00    +0.000 C 
ENDROOT
BRANCH   2   6
ATOM      6  O   UNL     1       7.751   5.631  20.592  0.00  0.00    +0.000 OA
ATOM      7  H   UNL     1       8.057   6.522  20.838  0.00  0.00    +0.000 HD
ENDBRANCH   2   6
BRANCH   4   8
ATOM      8  O   UNL     1       7.208   8.411  17.059  0.00  0.00    +0.000 OA
ATOM      9  H   UNL     1       6.712   8.544  16.232  0.00  0.00    +0.000 HD
ENDBRANCH   4   8
BRANCH   1  11
ATOM     10  C   UNL     1       4.595   3.673  19.503  0.00  0.00    +0.000 C 
ATOM     11  C   UNL     1       5.613   4.127  18.750  0.00  0.00    +0.000 C 
BRANCH  10  12
ATOM     12  C   UNL     1       4.088   2.241  19.562  0.00  0.00    +0.000 C 
ATOM     13  C   UNL     1       3.834   1.745  18.135  0.00  0.00    +0.000 C 
BRANCH  12  14
ATOM     14  O   UNL     1       5.086   1.400  20.149  0.00  0.00    +0.000 OA
ATOM     15  H   UNL     1       4.705   0.510  20.217  0.00  0.00    +0.000 HD
ENDBRANCH  12  14
BRANCH  12  16
ATOM     16  C   UNL     1       2.820   2.159  20.449  0.00  0.00    +0.000 C 
BRANCH  16  17
ATOM     17  C   UNL     1       2.417   3.518  21.043  0.00  0.00    +0.000 C 
BRANCH  17  18
ATOM     18  C   UNL     1       1.142   4.099  20.428  0.00  0.00    +0.000 C 
BRANCH  18  20
ATOM     19  C   UNL     1       1.160   3.939  17.896  0.00  0.00    +0.000 C 
ATOM     20  C   UNL     1       0.749   3.275  19.197  0.00  0.00    +0.000 C 
ENDBRANCH  18  20
ENDBRANCH  17  18
ENDBRANCH  16  17
ENDBRANCH  12  16
ENDBRANCH  10  12
ENDBRANCH   1  11
BRANCH   5  21
ATOM     21  C   UNL     1       4.831   6.870  16.994  0.00  0.00    +0.000 C 
BRANCH  21  22
ATOM     22  C   UNL     1       4.000   7.289  18.210  0.00  0.00    +0.000 C 
BRANCH  22  23
ATOM     23  C   UNL     1       2.520   7.065  18.071  0.00  0.00    +0.000 C 
ATOM     24  C   UNL     1       1.606   8.045  17.969  0.00  0.00    +0.000 C 
BRANCH  24  25
ATOM     25  C   UNL     1       1.907   9.517  18.025  0.00  0.00    +0.000 C 
BRANCH  25  26
ATOM     26  C   UNL     1       0.691  10.345  18.427  0.00  0.00    +0.000 C 
BRANCH  26  27
ATOM     27  C   UNL     1       0.747  10.653  19.897  0.00  0.00    +0.000 C 
ATOM     28  O   UNL     1       1.307  11.621  20.398  0.00  0.00    +0.000 OA
BRANCH  27  29
ATOM     29  O   UNL     1       0.077   9.699  20.606  0.00  0.00    +0.000 OA
ATOM     30  C   UNL     1      -0.160  10.066  21.966  0.00  0.00    +0.000 C 
ENDBRANCH  27  29
ENDBRANCH  26  27
ENDBRANCH  25  26
ENDBRANCH  24  25
ENDBRANCH  22  23
ENDBRANCH  21  22
ENDBRANCH   5  21
TORSDOF 16
ENDMDL
MODEL 5
REMARK VINA RESULT:      -7.0      3.565      5.474
REMARK  Name = 
REMARK  19 active torsions:
REMARK  status: ('A' for Active; 'I' for Inactive)
REMARK    1  A    between atoms: C_1  and  C_2
REMARK    2  A    between atoms: C_2  and  C_3
REMARK    3  A    between atoms: C_3  and  C_4
REMARK    4  A    between atoms: C_4  and  C_5
REMARK    5  A    between atoms: C_5  and  C_6
REMARK    6  A    between atoms: C_6  and  C_7
REMARK    7  A    between atoms: C_6  and  O_8
REMARK    8  A    between atoms: C_6  and  C_9
REMARK    9  A    between atoms: C_10  and  C_11
REMARK   10  A    between atoms: C_12  and  O_13
REMARK   11  A    between atoms: C_15  and  O_16
REMARK   12  A    between atoms: C_17  and  C_18
REMARK   13  A    between atoms: C_18  and  C_19
REMARK   14  A    between atoms: C_19  and  C_20
REMARK   15  A    between atoms: C_21  and  C_22
REMARK   16  A    between atoms: C_22  and  C_23
REMARK   17  A    between atoms: C_23  and  C_24
REMARK   18  A    between atoms: C_24  and  O_26
REMARK   19  A    between atoms: O_26  and  C_27
REMARK                            x       y       z     vdW  Elec       q    Type
REMARK                         _______ _______ _______ _____ _____    ______ ____
ROOT
ATOM      1  C   UNL     1       2.897   3.898  18.154  0.00  0.00    +0.000 C 
ATOM      2  C   UNL     1       3.109   2.480  18.708  0.00  0.00    +0.000 C 
ATOM      3  C   UNL     1       2.580   2.528  20.128  0.00  0.00    +0.000 C 
ATOM      4  C   UNL     1       2.840   3.943  20.620  0.00  0.00    +0.000 C 
ATOM      5  C   UNL     1       3.114   4.822  19.378  0.00  0.00    +0.000 C 
ENDROOT
BRANCH   2   6
ATOM      6  O   UNL     1       2.396   1.506  17.954  0.00  0.00    +0.000 OA
ATOM      7  H   UNL     1       1.528   1.365  18.373  0.00  0.00    +0.000 HD
ENDBRANCH   2   6
BRANCH   4   8
ATOM      8  O   UNL     1       1.738   4.353  21.414  0.00  0.00    +0.000 OA
ATOM      9  H   UNL     1       1.961   4.227  22.354  0.00  0.00    +0.000 HD
ENDBRANCH   4   8
BRANCH   1  11
ATOM     10  C   UNL     1       5.206   4.374  17.193  0.00  0.00    +0.000 C 
ATOM     11  C   UNL     1       3.883   4.186  17.040  0.00  0.00    +0.000 C 
BRANCH  10  12
ATOM     12  C   UNL     1       6.199   4.719  16.094  0.00  0.00    +0.000 C 
ATOM     13  C   UNL     1       5.862   6.106  15.538  0.00  0.00    +0.000 C 
BRANCH  12  14
ATOM     14  O   UNL     1       7.521   4.773  16.639  0.00  0.00    +0.000 OA
ATOM     15  H   UNL     1       7.430   4.846  17.603  0.00  0.00    +0.000 HD
ENDBRANCH  12  14
BRANCH  12  16
ATOM     16  C   UNL     1       6.185   3.624  14.998  0.00  0.00    +0.000 C 
BRANCH  16  17
ATOM     17  C   UNL     1       5.621   4.125  13.660  0.00  0.00    +0.000 C 
BRANCH  17  18
ATOM     18  C   UNL     1       6.364   3.575  12.440  0.00  0.00    +0.000 C 
BRANCH  18  20
ATOM     19  C   UNL     1       4.136   3.174  11.294  0.00  0.00    +0.000 C 
ATOM     20  C   UNL     1       5.467   2.572  11.707  0.00  0.00    +0.000 C 
ENDBRANCH  18  20
ENDBRANCH  17  18
ENDBRANCH  16  17
ENDBRANCH  12  16
ENDBRANCH  10  12
ENDBRANCH   1  11
BRANCH   5  21
ATOM     21  C   UNL     1       2.296   6.119  19.268  0.00  0.00    +0.000 C 
BRANCH  21  22
ATOM     22  C   UNL     1       3.039   7.307  18.651  0.00  0.00    +0.000 C 
BRANCH  22  23
ATOM     23  C   UNL     1       2.240   8.103  17.657  0.00  0.00    +0.000 C 
ATOM     24  C   UNL     1       1.459   9.151  17.970  0.00  0.00    +0.000 C 
BRANCH  24  25
ATOM     25  C   UNL     1       1.221   9.666  19.361  0.00  0.00    +0.000 C 
BRANCH  25  26
ATOM     26  C   UNL     1      -0.232  10.073  19.591  0.00  0.00    +0.000 C 
BRANCH  26  27
ATOM     27  C   UNL     1      -0.618  11.155  18.622  0.00  0.00    +0.000 C 
ATOM     28  O   UNL     1      -1.519  11.079  17.796  0.00  0.00    +0.000 OA
BRANCH  27  29
ATOM     29  O   UNL     1       0.179  12.250  18.794  0.00  0.00    +0.000 OA
ATOM     30  C   UNL     1      -0.484  13.482  18.513  0.00  0.00    +0.000 C 
ENDBRANCH  27  29
ENDBRANCH  26  27
ENDBRANCH  25  26
ENDBRANCH  24  25
ENDBRANCH  22  23
ENDBRANCH  21  22
ENDBRANCH   5  21
TORSDOF 16
ENDMDL
MODEL 6
REMARK VINA RESULT:      -6.9      3.000      5.673
REMARK  Name = 
REMARK  19 active torsions:
REMARK  status: ('A' for Active; 'I' for Inactive)
REMARK    1  A    between atoms: C_1  and  C_2
REMARK    2  A    between atoms: C_2  and  C_3
REMARK    3  A    between atoms: C_3  and  C_4
REMARK    4  A    between atoms: C_4  and  C_5
REMARK    5  A    between atoms: C_5  and  C_6
REMARK    6  A    between atoms: C_6  and  C_7
REMARK    7  A    between atoms: C_6  and  O_8
REMARK    8  A    between atoms: C_6  and  C_9
REMARK    9  A    between atoms: C_10  and  C_11
REMARK   10  A    between atoms: C_12  and  O_13
REMARK   11  A    between atoms: C_15  and  O_16
REMARK   12  A    between atoms: C_17  and  C_18
REMARK   13  A    between atoms: C_18  and  C_19
REMARK   14  A    between atoms: C_19  and  C_20
REMARK   15  A    between atoms: C_21  and  C_22
REMARK   16  A    between atoms: C_22  and  C_23
REMARK   17  A    between atoms: C_23  and  C_24
REMARK   18  A    between atoms: C_24  and  O_26
REMARK   19  A    between atoms: O_26  and  C_27
REMARK                            x       y       z     vdW  Elec       q    Type
REMARK                         _______ _______ _______ _____ _____    ______ ____
ROOT
ATOM      1  C   UNL     1       3.071   3.960  18.630  0.00  0.00    +0.000 C 
ATOM      2  C   UNL     1       2.857   2.495  18.217  0.00  0.00    +0.000 C 
ATOM      3  C   UNL     1       2.007   1.894  19.320  0.00  0.00    +0.000 C 
ATOM      4  C   UNL     1       2.404   2.624  20.594  0.00  0.00    +0.000 C 
ATOM      5  C   UNL     1       3.147   3.913  20.176  0.00  0.00    +0.000 C 
ENDROOT
BRANCH   2   6
ATOM      6  O   UNL     1       2.182   2.390  16.969  0.00  0.00    +0.000 OA
ATOM      7  H   UNL     1       1.293   2.023  17.127  0.00  0.00    +0.000 HD
ENDBRANCH   2   6
BRANCH   4   8
ATOM      8  O   UNL     1       1.239   2.828  21.377  0.00  0.00    +0.000 OA
ATOM      9  H   UNL     1       1.336   2.350  22.219  0.00  0.00    +0.000 HD
ENDBRANCH   4   8
BRANCH   1  11
ATOM     10  C   UNL     1       5.577   4.392  18.530  0.00  0.00    +0.000 C 
ATOM     11  C   UNL     1       4.341   4.506  18.012  0.00  0.00    +0.000 C 
BRANCH  10  12
ATOM     12  C   UNL     1       6.853   4.982  17.952  0.00  0.00    +0.000 C 
ATOM     13  C   UNL     1       7.413   6.013  18.936  0.00  0.00    +0.000 C 
BRANCH  12  14
ATOM     14  O   UNL     1       7.832   3.950  17.792  0.00  0.00    +0.000 OA
ATOM     15  H   UNL     1       7.457   3.293  17.184  0.00  0.00    +0.000 HD
ENDBRANCH  12  14
BRANCH  12  16
ATOM     16  C   UNL     1       6.575   5.591  16.554  0.00  0.00    +0.000 C 
BRANCH  16  17
ATOM     17  C   UNL     1       7.032   4.681  15.404  0.00  0.00    +0.000 C 
BRANCH  17  18
ATOM     18  C   UNL     1       5.952   3.710  14.926  0.00  0.00    +0.000 C 
BRANCH  18  20
ATOM     19  C   UNL     1       6.449   3.590  12.442  0.00  0.00    +0.000 C 
ATOM     20  C   UNL     1       5.504   4.099  13.514  0.00  0.00    +0.000 C 
ENDBRANCH  18  20
ENDBRANCH  17  18
ENDBRANCH  16  17
ENDBRANCH  12  16
ENDBRANCH  10  12
ENDBRANCH   1  11
BRANCH   5  21
ATOM     21  C   UNL     1       2.650   5.221  20.813  0.00  0.00    +0.000 C 
BRANCH  21  22
ATOM     22  C   UNL     1       1.734   6.070  19.926  0.00  0.00    +0.000 C 
BRANCH  22  23
ATOM     23  C   UNL     1       2.048   7.540  19.921  0.00  0.00    +0.000 C 
ATOM     24  C   UNL     1       1.401   8.461  20.655  0.00  0.00    +0.000 C 
BRANCH  24  25
ATOM     25  C   UNL     1       0.234   8.180  21.560  0.00  0.00    +0.000 C 
BRANCH  25  26
ATOM     26  C   UNL     1      -0.632   9.415  21.794  0.00  0.00    +0.000 C 
BRANCH  26  27
ATOM     27  C   UNL     1      -0.191  10.118  23.048  0.00  0.00    +0.000 C 
ATOM     28  O   UNL     1       0.349   9.582  24.008  0.00  0.00    +0.000 OA
BRANCH  27  29
ATOM     29  O   UNL     1      -0.474  11.450  22.967  0.00  0.00    +0.000 OA
ATOM     30  C   UNL     1      -1.302  11.786  21.853  0.00  0.00    +0.000 C 
ENDBRANCH  27  29
ENDBRANCH  26  27
ENDBRANCH  25  26
ENDBRANCH  24  25
ENDBRANCH  22  23
ENDBRANCH  21  22
ENDBRANCH   5  21
TORSDOF 16
ENDMDL
MODEL 7
REMARK VINA RESULT:      -6.9      2.977      8.596
REMARK  Name = 
REMARK  19 active torsions:
REMARK  status: ('A' for Active; 'I' for Inactive)
REMARK    1  A    between atoms: C_1  and  C_2
REMARK    2  A    between atoms: C_2  and  C_3
REMARK    3  A    between atoms: C_3  and  C_4
REMARK    4  A    between atoms: C_4  and  C_5
REMARK    5  A    between atoms: C_5  and  C_6
REMARK    6  A    between atoms: C_6  and  C_7
REMARK    7  A    between atoms: C_6  and  O_8
REMARK    8  A    between atoms: C_6  and  C_9
REMARK    9  A    between atoms: C_10  and  C_11
REMARK   10  A    between atoms: C_12  and  O_13
REMARK   11  A    between atoms: C_15  and  O_16
REMARK   12  A    between atoms: C_17  and  C_18
REMARK   13  A    between atoms: C_18  and  C_19
REMARK   14  A    between atoms: C_19  and  C_20
REMARK   15  A    between atoms: C_21  and  C_22
REMARK   16  A    between atoms: C_22  and  C_23
REMARK   17  A    between atoms: C_23  and  C_24
REMARK   18  A    between atoms: C_24  and  O_26
REMARK   19  A    between atoms: O_26  and  C_27
REMARK                            x       y       z     vdW  Elec       q    Type
REMARK                         _______ _______ _______ _____ _____    ______ ____
ROOT
ATOM      1  C   UNL     1       1.819   4.609  20.069  0.00  0.00    +0.000 C 
ATOM      2  C   UNL     1       1.393   3.510  21.056  0.00  0.00    +0.000 C 
ATOM      3  C   UNL     1       1.564   2.209  20.297  0.00  0.00    +0.000 C 
ATOM      4  C   UNL     1       1.279   2.539  18.840  0.00  0.00    +0.000 C 
ATOM      5  C   UNL     1       1.368   4.074  18.687  0.00  0.00    +0.000 C 
ENDROOT
BRANCH   2   6
ATOM      6  O   UNL     1       2.208   3.503  22.223  0.00  0.00    +0.000 OA
ATOM      7  H   UNL     1       3.102   3.799  21.978  0.00  0.00    +0.000 HD
ENDBRANCH   2   6
BRANCH   4   8
ATOM      8  O   UNL     1       2.178   1.801  18.027  0.00  0.00    +0.000 OA
ATOM      9  H   UNL     1       2.395   2.327  17.237  0.00  0.00    +0.000 HD
ENDBRANCH   4   8
BRANCH   1  11
ATOM     10  C   UNL     1       1.787   7.070  20.719  0.00  0.00    +0.000 C 
ATOM     11  C   UNL     1       1.152   5.923  20.418  0.00  0.00    +0.000 C 
BRANCH  10  12
ATOM     12  C   UNL     1       1.134   8.381  21.125  0.00  0.00    +0.000 C 
ATOM     13  C   UNL     1      -0.240   8.082  21.735  0.00  0.00    +0.000 C 
BRANCH  12  14
ATOM     14  O   UNL     1       1.928   9.026  22.126  0.00  0.00    +0.000 OA
ATOM     15  H   UNL     1       2.213   8.339  22.750  0.00  0.00    +0.000 HD
ENDBRANCH  12  14
BRANCH  12  16
ATOM     16  C   UNL     1       1.044   9.333  19.907  0.00  0.00    +0.000 C 
BRANCH  16  17
ATOM     17  C   UNL     1      -0.349   9.959  19.738  0.00  0.00    +0.000 C 
BRANCH  17  18
ATOM     18  C   UNL     1      -0.478  10.833  18.489  0.00  0.00    +0.000 C 
BRANCH  18  20
ATOM     19  C   UNL     1      -2.922  10.673  17.826  0.00  0.00    +0.000 C 
ATOM     20  C   UNL     1      -1.506  10.212  17.537  0.00  0.00    +0.000 C 
ENDBRANCH  18  20
ENDBRANCH  17  18
ENDBRANCH  16  17
ENDBRANCH  12  16
ENDBRANCH  10  12
ENDBRANCH   1  11
BRANCH   5  21
ATOM     21  C   UNL     1       2.265   4.593  17.552  0.00  0.00    +0.000 C 
BRANCH  21  22
ATOM     22  C   UNL     1       3.544   5.304  18.007  0.00  0.00    +0.000 C 
BRANCH  22  23
ATOM     23  C   UNL     1       4.736   4.405  18.184  0.00  0.00    +0.000 C 
ATOM     24  C   UNL     1       5.899   4.541  17.523  0.00  0.00    +0.000 C 
BRANCH  24  25
ATOM     25  C   UNL     1       6.179   5.578  16.472  0.00  0.00    +0.000 C 
BRANCH  25  26
ATOM     26  C   UNL     1       5.590   5.206  15.115  0.00  0.00    +0.000 C 
BRANCH  26  27
ATOM     27  C   UNL     1       6.693   4.837  14.163  0.00  0.00    +0.000 C 
ATOM     28  O   UNL     1       7.750   5.443  14.033  0.00  0.00    +0.000 OA
BRANCH  27  29
ATOM     29  O   UNL     1       6.354   3.720  13.457  0.00  0.00    +0.000 OA
ATOM     30  C   UNL     1       6.859   3.720  12.121  0.00  0.00    +0.000 C 
ENDBRANCH  27  29
ENDBRANCH  26  27
ENDBRANCH  25  26
ENDBRANCH  24  25
ENDBRANCH  22  23
ENDBRANCH  21  22
ENDBRANCH   5  21
TORSDOF 16
ENDMDL
MODEL 8
REMARK VINA RESULT:      -6.9      3.246      5.676
REMARK  Name = 
REMARK  19 active torsions:
REMARK  status: ('A' for Active; 'I' for Inactive)
REMARK    1  A    between atoms: C_1  and  C_2
REMARK    2  A    between atoms: C_2  and  C_3
REMARK    3  A    between atoms: C_3  and  C_4
REMARK    4  A    between atoms: C_4  and  C_5
REMARK    5  A    between atoms: C_5  and  C_6
REMARK    6  A    between atoms: C_6  and  C_7
REMARK    7  A    between atoms: C_6  and  O_8
REMARK    8  A    between atoms: C_6  and  C_9
REMARK    9  A    between atoms: C_10  and  C_11
REMARK   10  A    between atoms: C_12  and  O_13
REMARK   11  A    between atoms: C_15  and  O_16
REMARK   12  A    between atoms: C_17  and  C_18
REMARK   13  A    between atoms: C_18  and  C_19
REMARK   14  A    between atoms: C_19  and  C_20
REMARK   15  A    between atoms: C_21  and  C_22
REMARK   16  A    between atoms: C_22  and  C_23
REMARK   17  A    between atoms: C_23  and  C_24
REMARK   18  A    between atoms: C_24  and  O_26
REMARK   19  A    between atoms: O_26  and  C_27
REMARK                            x       y       z     vdW  Elec       q    Type
REMARK                         _______ _______ _______ _____ _____    ______ ____
ROOT
ATOM      1  C   UNL     1       3.490   3.879  18.621  0.00  0.00    +0.000 C 
ATOM      2  C   UNL     1       3.214   2.372  18.744  0.00  0.00    +0.000 C 
ATOM      3  C   UNL     1       1.891   2.271  19.477  0.00  0.00    +0.000 C 
ATOM      4  C   UNL     1       1.841   3.470  20.410  0.00  0.00    +0.000 C 
ATOM      5  C   UNL     1       2.904   4.480  19.922  0.00  0.00    +0.000 C 
ENDROOT
BRANCH   2   6
ATOM      6  O   UNL     1       3.115   1.746  17.470  0.00  0.00    +0.000 OA
ATOM      7  H   UNL     1       2.270   1.264  17.426  0.00  0.00    +0.000 HD
ENDBRANCH   2   6
BRANCH   4   8
ATOM      8  O   UNL     1       0.511   3.964  20.438  0.00  0.00    +0.000 OA
ATOM      9  H   UNL     1       0.460   4.701  21.072  0.00  0.00    +0.000 HD
ENDBRANCH   4   8
BRANCH   1  11
ATOM     10  C   UNL     1       5.548   5.029  17.661  0.00  0.00    +0.000 C 
ATOM     11  C   UNL     1       4.976   4.138  18.491  0.00  0.00    +0.000 C 
BRANCH  10  12
ATOM     12  C   UNL     1       7.039   5.261  17.478  0.00  0.00    +0.000 C 
ATOM     13  C   UNL     1       7.421   6.583  18.153  0.00  0.00    +0.000 C 
BRANCH  12  14
ATOM     14  O   UNL     1       7.772   4.213  18.118  0.00  0.00    +0.000 OA
ATOM     15  H   UNL     1       8.049   4.547  18.986  0.00  0.00    +0.000 HD
ENDBRANCH  12  14
BRANCH  12  16
ATOM     16  C   UNL     1       7.402   5.241  15.972  0.00  0.00    +0.000 C 
BRANCH  16  17
ATOM     17  C   UNL     1       6.168   5.183  15.059  0.00  0.00    +0.000 C 
BRANCH  17  18
ATOM     18  C   UNL     1       5.917   3.799  14.459  0.00  0.00    +0.000 C 
BRANCH  18  20
ATOM     19  C   UNL     1       5.713   3.224  11.996  0.00  0.00    +0.000 C 
ATOM     20  C   UNL     1       6.633   3.691  13.108  0.00  0.00    +0.000 C 
ENDBRANCH  18  20
ENDBRANCH  17  18
ENDBRANCH  16  17
ENDBRANCH  12  16
ENDBRANCH  10  12
ENDBRANCH   1  11
BRANCH   5  21
ATOM     21  C   UNL     1       2.424   5.927  19.718  0.00  0.00    +0.000 C 
BRANCH  21  22
ATOM     22  C   UNL     1       2.306   6.374  18.257  0.00  0.00    +0.000 C 
BRANCH  22  23
ATOM     23  C   UNL     1       3.059   7.629  17.919  0.00  0.00    +0.000 C 
ATOM     24  C   UNL     1       2.516   8.858  17.884  0.00  0.00    +0.000 C 
BRANCH  24  25
ATOM     25  C   UNL     1       1.066   9.170  18.127  0.00  0.00    +0.000 C 
BRANCH  25  26
ATOM     26  C   UNL     1       0.808   9.666  19.547  0.00  0.00    +0.000 C 
BRANCH  26  27
ATOM     27  C   UNL     1       0.878  11.168  19.583  0.00  0.00    +0.000 C 
ATOM     28  O   UNL     1       0.491  11.918  18.695  0.00  0.00    +0.000 OA
BRANCH  27  29
ATOM     29  O   UNL     1       1.435  11.587  20.757  0.00  0.00    +0.000 OA
ATOM     30  C   UNL     1       2.115  12.837  20.646  0.00  0.00    +0.000 C 
ENDBRANCH  27  29
ENDBRANCH  26  27
ENDBRANCH  25  26
ENDBRANCH  24  25
ENDBRANCH  22  23
ENDBRANCH  21  22
ENDBRANCH   5  21
TORSDOF 16
ENDMDL
MODEL 9
REMARK VINA RESULT:      -6.9      3.444      8.350
REMARK  Name = 
REMARK  19 active torsions:
REMARK  status: ('A' for Active; 'I' for Inactive)
REMARK    1  A    between atoms: C_1  and  C_2
REMARK    2  A    between atoms: C_2  and  C_3
REMARK    3  A    between atoms: C_3  and  C_4
REMARK    4  A    between atoms: C_4  and  C_5
REMARK    5  A    between atoms: C_5  and  C_6
REMARK    6  A    between atoms: C_6  and  C_7
REMARK    7  A    between atoms: C_6  and  O_8
REMARK    8  A    between atoms: C_6  and  C_9
REMARK    9  A    between atoms: C_10  and  C_11
REMARK   10  A    between atoms: C_12  and  O_13
REMARK   11  A    between atoms: C_15  and  O_16
REMARK   12  A    between atoms: C_17  and  C_18
REMARK   13  A    between atoms: C_18  and  C_19
REMARK   14  A    between atoms: C_19  and  C_20
REMARK   15  A    between atoms: C_21  and  C_22
REMARK   16  A    between atoms: C_22  and  C_23
REMARK   17  A    between atoms: C_23  and  C_24
REMARK   18  A    between atoms: C_24  and  O_26
REMARK   19  A    between atoms: O_26  and  C_27
REMARK                            x       y       z     vdW  Elec       q    Type
REMARK                         _______ _______ _______ _____ _____    ______ ____
ROOT
ATOM      1  C   UNL     1       1.773   4.502  20.172  0.00  0.00    +0.000 C 
ATOM      2  C   UNL     1       1.471   3.399  21.199  0.00  0.00    +0.000 C 
ATOM      3  C   UNL     1       1.579   2.100  20.426  0.00  0.00    +0.000 C 
ATOM      4  C   UNL     1       1.135   2.423  19.008  0.00  0.00    +0.000 C 
ATOM      5  C   UNL     1       1.185   3.959  18.846  0.00  0.00    +0.000 C 
ENDROOT
BRANCH   2   6
ATOM      6  O   UNL     1       2.404   3.407  22.273  0.00  0.00    +0.000 OA
ATOM      7  H   UNL     1       3.202   3.886  21.987  0.00  0.00    +0.000 HD
ENDBRANCH   2   6
BRANCH   4   8
ATOM      8  O   UNL     1       1.953   1.696  18.104  0.00  0.00    +0.000 OA
ATOM      9  H   UNL     1       1.709   0.754  18.144  0.00  0.00    +0.000 HD
ENDBRANCH   4   8
BRANCH   1  11
ATOM     10  C   UNL     1       1.725   7.013  20.591  0.00  0.00    +0.000 C 
ATOM     11  C   UNL     1       1.127   5.808  20.589  0.00  0.00    +0.000 C 
BRANCH  10  12
ATOM     12  C   UNL     1       1.110   8.322  21.059  0.00  0.00    +0.000 C 
ATOM     13  C   UNL     1      -0.285   8.039  21.626  0.00  0.00    +0.000 C 
BRANCH  12  14
ATOM     14  O   UNL     1       1.906   8.881  22.107  0.00  0.00    +0.000 OA
ATOM     15  H   UNL     1       2.018   9.824  21.909  0.00  0.00    +0.000 HD
ENDBRANCH  12  14
BRANCH  12  16
ATOM     16  C   UNL     1       1.077   9.343  19.894  0.00  0.00    +0.000 C 
BRANCH  16  17
ATOM     17  C   UNL     1      -0.157  10.257  19.934  0.00  0.00    +0.000 C 
BRANCH  17  18
ATOM     18  C   UNL     1      -0.932  10.296  18.616  0.00  0.00    +0.000 C 
BRANCH  18  20
ATOM     19  C   UNL     1      -2.923  11.401  17.497  0.00  0.00    +0.000 C 
ATOM     20  C   UNL     1      -1.939  11.451  18.650  0.00  0.00    +0.000 C 
ENDBRANCH  18  20
ENDBRANCH  17  18
ENDBRANCH  16  17
ENDBRANCH  12  16
ENDBRANCH  10  12
ENDBRANCH   1  11
BRANCH   5  21
ATOM     21  C   UNL     1       1.950   4.489  17.622  0.00  0.00    +0.000 C 
BRANCH  21  22
ATOM     22  C   UNL     1       3.432   4.790  17.860  0.00  0.00    +0.000 C 
BRANCH  22  23
ATOM     23  C   UNL     1       4.372   4.150  16.877  0.00  0.00    +0.000 C 
ATOM     24  C   UNL     1       5.145   4.826  16.010  0.00  0.00    +0.000 C 
BRANCH  24  25
ATOM     25  C   UNL     1       5.161   6.321  15.850  0.00  0.00    +0.000 C 
BRANCH  25  26
ATOM     26  C   UNL     1       5.598   7.038  17.123  0.00  0.00    +0.000 C 
BRANCH  26  27
ATOM     27  C   UNL     1       7.072   6.842  17.340  0.00  0.00    +0.000 C 
ATOM     28  O   UNL     1       7.941   6.996  16.490  0.00  0.00    +0.000 OA
BRANCH  27  29
ATOM     29  O   UNL     1       7.315   6.468  18.630  0.00  0.00    +0.000 OA
ATOM     30  C   UNL     1       7.869   5.157  18.745  0.00  0.00    +0.000 C 
ENDBRANCH  27  29
ENDBRANCH  26  27
ENDBRANCH  25  26
ENDBRANCH  24  25
ENDBRANCH  22  23
ENDBRANCH  21  22
ENDBRANCH   5  21
TORSDOF 16
ENDMDL
