MODEL 1
REMARK VINA RESULT:      -8.3      0.000      0.000
REMARK  Name = 
REMARK  8 active torsions:
REMARK  status: ('A' for Active; 'I' for Inactive)
REMARK    1  A    between atoms: C_1  and  C_2
REMARK    2  A    between atoms: C_2  and  C_3
REMARK    3  A    between atoms: C_6  and  O_7
REMARK    4  A    between atoms: O_7  and  C_8
REMARK    5  A    between atoms: C_13  and  C_14
REMARK    6  A    between atoms: N_15  and  O_16
REMARK    7  A    between atoms: N_17  and  C_18
REMARK    8  A    between atoms: C_18  and  C_19
REMARK                            x       y       z     vdW  Elec       q    Type
REMARK                         _______ _______ _______ _____ _____    ______ ____
ROOT
ATOM      1  C   UNL     1       2.973   4.854  19.033  0.00  0.00    +0.000 A 
ATOM      2  N   UNL     1       1.722   4.363  19.264  0.00  0.00    +0.000 NA
ATOM      3  C   UNL     1       1.333   3.279  18.566  0.00  0.00    +0.000 A 
ATOM      4  C   UNL     1       2.141   2.631  17.655  0.00  0.00    +0.000 A 
ATOM      5  C   UNL     1       3.434   3.113  17.470  0.00  0.00    +0.000 A 
ATOM      6  C   UNL     1       3.887   4.240  18.176  0.00  0.00    +0.000 A 
ENDROOT
BRANCH   6   7
ATOM      7  C   UNL     1       5.315   4.688  17.946  0.00  0.00    +0.000 C 
ATOM      8  N   UNL     1       6.146   4.308  18.879  0.00  0.00    +0.000 NA
ATOM      9  N   UNL     1       5.589   5.492  16.850  0.00  0.00    +0.000 N 
ATOM     10  H   UNL     1       4.802   5.722  16.254  0.00  0.00    +0.000 HD
BRANCH   8  11
ATOM     11  O   UNL     1       7.423   4.854  18.757  0.00  0.00    +0.000 OA
ATOM     12  H   UNL     1       7.511   4.970  17.793  0.00  0.00    +0.000 HD
ENDBRANCH   8  11
BRANCH   9  13
ATOM     13  C   UNL     1       6.848   5.492  16.117  0.00  0.00    +0.000 C 
BRANCH  13  14
ATOM     14  C   UNL     1       6.745   4.853  14.753  0.00  0.00    +0.000 A 
ATOM     15  C   UNL     1       5.727   3.969  14.385  0.00  0.00    +0.000 A 
ATOM     16  C   UNL     1       5.660   3.486  13.078  0.00  0.00    +0.000 A 
ATOM     17  C   UNL     1       6.610   3.906  12.169  0.00  0.00    +0.000 A 
ATOM     18  N   UNL     1       7.608   4.765  12.475  0.00  0.00    +0.000 NA
ATOM     19  C   UNL     1       7.642   5.220  13.750  0.00  0.00    +0.000 A 
ENDBRANCH  13  14
ENDBRANCH   9  13
ENDBRANCH   6   7
BRANCH   1  20
ATOM     20  O   UNL     1       3.338   6.015  19.705  0.00  0.00    +0.000 OA
BRANCH  20  24
ATOM     21  C   UNL     1       1.011   9.390  18.801  0.00  0.00    +0.000 A 
ATOM     22  C   UNL     1       1.811   8.764  17.837  0.00  0.00    +0.000 A 
ATOM     23  C   UNL     1       2.597   7.655  18.173  0.00  0.00    +0.000 A 
ATOM     24  C   UNL     1       2.596   7.160  19.478  0.00  0.00    +0.000 A 
ATOM     25  C   UNL     1       1.791   7.776  20.442  0.00  0.00    +0.000 A 
ATOM     26  C   UNL     1       1.014   8.891  20.109  0.00  0.00    +0.000 A 
BRANCH  21  28
ATOM     27  C   UNL     1      -1.169  10.069  17.771  0.00  0.00    +0.000 C 
ATOM     28  C   UNL     1       0.119  10.548  18.428  0.00  0.00    +0.000 C 
ENDBRANCH  21  28
ENDBRANCH  20  24
ENDBRANCH   1  20
TORSDOF 7
ENDMDL
MODEL 2
REMARK VINA RESULT:      -8.2      0.609      1.359
REMARK  Name = 
REMARK  8 active torsions:
REMARK  status: ('A' for Active; 'I' for Inactive)
REMARK    1  A    between atoms: C_1  and  C_2
REMARK    2  A    between atoms: C_2  and  C_3
REMARK    3  A    between atoms: C_6  and  O_7
REMARK    4  A    between atoms: O_7  and  C_8
REMARK    5  A    between atoms: C_13  and  C_14
REMARK    6  A    between atoms: N_15  and  O_16
REMARK    7  A    between atoms: N_17  and  C_18
REMARK    8  A    between atoms: C_18  and  C_19
REMARK                            x       y       z     vdW  Elec       q    Type
REMARK                         _______ _______ _______ _____ _____    ______ ____
ROOT
ATOM      1  C   UNL     1       3.083   4.588  19.059  0.00  0.00    +0.000 A 
ATOM      2  N   UNL     1       1.869   4.016  19.302  0.00  0.00    +0.000 NA
ATOM      3  C   UNL     1       1.553   2.897  18.623  0.00  0.00    +0.000 A 
ATOM      4  C   UNL     1       2.401   2.291  17.719  0.00  0.00    +0.000 A 
ATOM      5  C   UNL     1       3.657   2.857  17.522  0.00  0.00    +0.000 A 
ATOM      6  C   UNL     1       4.035   4.024  18.209  0.00  0.00    +0.000 A 
ENDROOT
BRANCH   6   7
ATOM      7  C   UNL     1       5.429   4.564  17.967  0.00  0.00    +0.000 C 
ATOM      8  N   UNL     1       6.273   4.299  18.927  0.00  0.00    +0.000 NA
ATOM      9  N   UNL     1       5.656   5.326  16.830  0.00  0.00    +0.000 N 
ATOM     10  H   UNL     1       4.861   5.463  16.216  0.00  0.00    +0.000 HD
BRANCH   8  11
ATOM     11  O   UNL     1       7.507   4.932  18.786  0.00  0.00    +0.000 OA
ATOM     12  H   UNL     1       8.117   4.180  18.666  0.00  0.00    +0.000 HD
ENDBRANCH   8  11
BRANCH   9  13
ATOM     13  C   UNL     1       6.920   5.380  16.109  0.00  0.00    +0.000 C 
BRANCH  13  14
ATOM     14  C   UNL     1       6.815   4.902  14.681  0.00  0.00    +0.000 A 
ATOM     15  C   UNL     1       7.685   5.304  13.662  0.00  0.00    +0.000 A 
ATOM     16  C   UNL     1       7.568   4.751  12.387  0.00  0.00    +0.000 A 
ATOM     17  C   UNL     1       6.586   3.806  12.163  0.00  0.00    +0.000 A 
ATOM     18  N   UNL     1       5.728   3.381  13.118  0.00  0.00    +0.000 NA
ATOM     19  C   UNL     1       5.871   3.932  14.346  0.00  0.00    +0.000 A 
ENDBRANCH  13  14
ENDBRANCH   9  13
ENDBRANCH   6   7
BRANCH   1  20
ATOM     20  O   UNL     1       3.369   5.782  19.712  0.00  0.00    +0.000 OA
BRANCH  20  24
ATOM     21  C   UNL     1       1.208   9.286  18.896  0.00  0.00    +0.000 A 
ATOM     22  C   UNL     1       1.213   8.699  20.168  0.00  0.00    +0.000 A 
ATOM     23  C   UNL     1       1.922   7.516  20.405  0.00  0.00    +0.000 A 
ATOM     24  C   UNL     1       2.632   6.902  19.373  0.00  0.00    +0.000 A 
ATOM     25  C   UNL     1       2.639   7.489  18.104  0.00  0.00    +0.000 A 
ATOM     26  C   UNL     1       1.920   8.665  17.864  0.00  0.00    +0.000 A 
BRANCH  21  28
ATOM     27  C   UNL     1      -0.969  10.367  18.289  0.00  0.00    +0.000 C 
ATOM     28  C   UNL     1       0.493  10.592  18.653  0.00  0.00    +0.000 C 
ENDBRANCH  21  28
ENDBRANCH  20  24
ENDBRANCH   1  20
TORSDOF 7
ENDMDL
MODEL 3
REMARK VINA RESULT:      -8.0      0.904      1.351
REMARK  Name = 
REMARK  8 active torsions:
REMARK  status: ('A' for Active; 'I' for Inactive)
REMARK    1  A    between atoms: C_1  and  C_2
REMARK    2  A    between atoms: C_2  and  C_3
REMARK    3  A    between atoms: C_6  and  O_7
REMARK    4  A    between atoms: O_7  and  C_8
REMARK    5  A    between atoms: C_13  and  C_14
REMARK    6  A    between atoms: N_15  and  O_16
REMARK    7  A    between atoms: N_17  and  C_18
REMARK    8  A    between atoms: C_18  and  C_19
REMARK                            x       y       z     vdW  Elec       q    Type
REMARK                         _______ _______ _______ _____ _____    ______ ____
ROOT
ATOM      1  C   UNL     1       2.778   4.942  17.967  0.00  0.00    +0.000 A 
ATOM      2  N   UNL     1       1.511   4.500  18.213  0.00  0.00    +0.000 NA
ATOM      3  C   UNL     1       1.325   3.176  18.369  0.00  0.00    +0.000 A 
ATOM      4  C   UNL     1       2.350   2.253  18.318  0.00  0.00    +0.000 A 
ATOM      5  C   UNL     1       3.644   2.725  18.120  0.00  0.00    +0.000 A 
ATOM      6  C   UNL     1       3.889   4.099  17.954  0.00  0.00    +0.000 A 
ENDROOT
BRANCH   6   7
ATOM      7  C   UNL     1       5.327   4.541  17.774  0.00  0.00    +0.000 C 
ATOM      8  N   UNL     1       6.117   4.187  18.752  0.00  0.00    +0.000 NA
ATOM      9  N   UNL     1       5.648   5.317  16.670  0.00  0.00    +0.000 N 
ATOM     10  H   UNL     1       4.887   5.531  16.035  0.00  0.00    +0.000 HD
BRANCH   8  11
ATOM     11  O   UNL     1       7.398   4.730  18.671  0.00  0.00    +0.000 OA
ATOM     12  H   UNL     1       7.453   5.261  19.487  0.00  0.00    +0.000 HD
ENDBRANCH   8  11
BRANCH   9  13
ATOM     13  C   UNL     1       6.937   5.299  15.992  0.00  0.00    +0.000 C 
BRANCH  13  14
ATOM     14  C   UNL     1       6.863   4.764  14.582  0.00  0.00    +0.000 A 
ATOM     15  C   UNL     1       5.910   3.835  14.153  0.00  0.00    +0.000 A 
ATOM     16  C   UNL     1       5.861   3.454  12.812  0.00  0.00    +0.000 A 
ATOM     17  C   UNL     1       6.763   4.017  11.931  0.00  0.00    +0.000 A 
ATOM     18  N   UNL     1       7.696   4.925  12.297  0.00  0.00    +0.000 NA
ATOM     19  C   UNL     1       7.714   5.278  13.604  0.00  0.00    +0.000 A 
ENDBRANCH  13  14
ENDBRANCH   9  13
ENDBRANCH   6   7
BRANCH   1  20
ATOM     20  O   UNL     1       2.947   6.302  17.736  0.00  0.00    +0.000 OA
BRANCH  20  24
ATOM     21  C   UNL     1       1.106   9.049  20.322  0.00  0.00    +0.000 A 
ATOM     22  C   UNL     1       1.287   9.322  18.960  0.00  0.00    +0.000 A 
ATOM     23  C   UNL     1       1.928   8.398  18.126  0.00  0.00    +0.000 A 
ATOM     24  C   UNL     1       2.398   7.190  18.643  0.00  0.00    +0.000 A 
ATOM     25  C   UNL     1       2.210   6.908  20.000  0.00  0.00    +0.000 A 
ATOM     26  C   UNL     1       1.581   7.836  20.836  0.00  0.00    +0.000 A 
BRANCH  21  28
ATOM     27  C   UNL     1      -0.404   9.289  22.305  0.00  0.00    +0.000 C 
ATOM     28  C   UNL     1       0.364  10.017  21.210  0.00  0.00    +0.000 C 
ENDBRANCH  21  28
ENDBRANCH  20  24
ENDBRANCH   1  20
TORSDOF 7
ENDMDL
MODEL 4
REMARK VINA RESULT:      -8.0      0.472      1.124
REMARK  Name = 
REMARK  8 active torsions:
REMARK  status: ('A' for Active; 'I' for Inactive)
REMARK    1  A    between atoms: C_1  and  C_2
REMARK    2  A    between atoms: C_2  and  C_3
REMARK    3  A    between atoms: C_6  and  O_7
REMARK    4  A    between atoms: O_7  and  C_8
REMARK    5  A    between atoms: C_13  and  C_14
REMARK    6  A    between atoms: N_15  and  O_16
REMARK    7  A    between atoms: N_17  and  C_18
REMARK    8  A    between atoms: C_18  and  C_19
REMARK                            x       y       z     vdW  Elec       q    Type
REMARK                         _______ _______ _______ _____ _____    ______ ____
ROOT
ATOM      1  C   UNL     1       3.017   5.053  18.815  0.00  0.00    +0.000 A 
ATOM      2  N   UNL     1       1.747   4.618  19.057  0.00  0.00    +0.000 NA
ATOM      3  C   UNL     1       1.367   3.449  18.508  0.00  0.00    +0.000 A 
ATOM      4  C   UNL     1       2.201   2.662  17.741  0.00  0.00    +0.000 A 
ATOM      5  C   UNL     1       3.510   3.094  17.548  0.00  0.00    +0.000 A 
ATOM      6  C   UNL     1       3.955   4.307  18.102  0.00  0.00    +0.000 A 
ENDROOT
BRANCH   6   7
ATOM      7  C   UNL     1       5.401   4.696  17.876  0.00  0.00    +0.000 C 
ATOM      8  N   UNL     1       6.224   4.221  18.772  0.00  0.00    +0.000 NA
ATOM      9  N   UNL     1       5.701   5.550  16.825  0.00  0.00    +0.000 N 
ATOM     10  H   UNL     1       4.918   5.854  16.256  0.00  0.00    +0.000 HD
BRANCH   8  11
ATOM     11  O   UNL     1       7.525   4.709  18.662  0.00  0.00    +0.000 OA
ATOM     12  H   UNL     1       7.471   5.560  19.136  0.00  0.00    +0.000 HD
ENDBRANCH   8  11
BRANCH   9  13
ATOM     13  C   UNL     1       6.948   5.532  16.074  0.00  0.00    +0.000 C 
BRANCH  13  14
ATOM     14  C   UNL     1       6.821   4.876  14.720  0.00  0.00    +0.000 A 
ATOM     15  C   UNL     1       5.821   3.954  14.395  0.00  0.00    +0.000 A 
ATOM     16  C   UNL     1       5.726   3.456  13.095  0.00  0.00    +0.000 A 
ATOM     17  C   UNL     1       6.630   3.899  12.150  0.00  0.00    +0.000 A 
ATOM     18  N   UNL     1       7.607   4.795  12.414  0.00  0.00    +0.000 NA
ATOM     19  C   UNL     1       7.670   5.263  13.683  0.00  0.00    +0.000 A 
ENDBRANCH  13  14
ENDBRANCH   9  13
ENDBRANCH   6   7
BRANCH   1  20
ATOM     20  O   UNL     1       3.375   6.296  19.326  0.00  0.00    +0.000 OA
BRANCH  20  24
ATOM     21  C   UNL     1       0.840   9.616  18.917  0.00  0.00    +0.000 A 
ATOM     22  C   UNL     1       1.005   8.958  20.142  0.00  0.00    +0.000 A 
ATOM     23  C   UNL     1       1.837   7.837  20.244  0.00  0.00    +0.000 A 
ATOM     24  C   UNL     1       2.512   7.357  19.121  0.00  0.00    +0.000 A 
ATOM     25  C   UNL     1       2.359   8.016  17.897  0.00  0.00    +0.000 A 
ATOM     26  C   UNL     1       1.518   9.130  17.793  0.00  0.00    +0.000 A 
BRANCH  21  28
ATOM     27  C   UNL     1      -0.372  11.397  20.195  0.00  0.00    +0.000 C 
ATOM     28  C   UNL     1      -0.010  10.859  18.817  0.00  0.00    +0.000 C 
ENDBRANCH  21  28
ENDBRANCH  20  24
ENDBRANCH   1  20
TORSDOF 7
ENDMDL
MODEL 5
REMARK VINA RESULT:      -8.0      2.403      7.777
REMARK  Name = 
REMARK  8 active torsions:
REMARK  status: ('A' for Active; 'I' for Inactive)
REMARK    1  A    between atoms: C_1  and  C_2
REMARK    2  A    between atoms: C_2  and  C_3
REMARK    3  A    between atoms: C_6  and  O_7
REMARK    4  A    between atoms: O_7  and  C_8
REMARK    5  A    between atoms: C_13  and  C_14
REMARK    6  A    between atoms: N_15  and  O_16
REMARK    7  A    between atoms: N_17  and  C_18
REMARK    8  A    between atoms: C_18  and  C_19
REMARK                            x       y       z     vdW  Elec       q    Type
REMARK                         _______ _______ _______ _____ _____    ______ ____
ROOT
ATOM      1  C   UNL     1       3.488   4.467  19.916  0.00  0.00    +0.000 A 
ATOM      2  N   UNL     1       3.446   3.160  20.304  0.00  0.00    +0.000 NA
ATOM      3  C   UNL     1       2.253   2.648  20.662  0.00  0.00    +0.000 A 
ATOM      4  C   UNL     1       1.076   3.368  20.632  0.00  0.00    +0.000 A 
ATOM      5  C   UNL     1       1.128   4.684  20.184  0.00  0.00    +0.000 A 
ATOM      6  C   UNL     1       2.349   5.263  19.796  0.00  0.00    +0.000 A 
ENDROOT
BRANCH   6   7
ATOM      7  C   UNL     1       2.322   6.690  19.290  0.00  0.00    +0.000 C 
ATOM      8  N   UNL     1       2.630   6.809  18.026  0.00  0.00    +0.000 NA
ATOM      9  N   UNL     1       2.059   7.709  20.193  0.00  0.00    +0.000 N 
ATOM     10  H   UNL     1       1.885   7.426  21.151  0.00  0.00    +0.000 HD
BRANCH   8  11
ATOM     11  O   UNL     1       2.766   8.129  17.598  0.00  0.00    +0.000 OA
ATOM     12  H   UNL     1       1.968   8.553  17.965  0.00  0.00    +0.000 HD
ENDBRANCH   8  11
BRANCH   9  13
ATOM     13  C   UNL     1       1.385   8.957  19.860  0.00  0.00    +0.000 C 
BRANCH  13  14
ATOM     14  C   UNL     1       0.663   9.577  21.032  0.00  0.00    +0.000 A 
ATOM     15  C   UNL     1      -0.377  10.502  20.901  0.00  0.00    +0.000 A 
ATOM     16  C   UNL     1      -1.046  10.966  22.035  0.00  0.00    +0.000 A 
ATOM     17  C   UNL     1      -0.662  10.486  23.271  0.00  0.00    +0.000 A 
ATOM     18  N   UNL     1       0.331   9.585  23.447  0.00  0.00    +0.000 NA
ATOM     19  C   UNL     1       0.957   9.151  22.327  0.00  0.00    +0.000 A 
ENDBRANCH  13  14
ENDBRANCH   9  13
ENDBRANCH   6   7
BRANCH   1  20
ATOM     20  O   UNL     1       4.734   5.005  19.618  0.00  0.00    +0.000 OA
BRANCH  20  24
ATOM     21  C   UNL     1       6.306   4.844  15.729  0.00  0.00    +0.000 A 
ATOM     22  C   UNL     1       6.718   5.812  16.654  0.00  0.00    +0.000 A 
ATOM     23  C   UNL     1       6.158   5.858  17.936  0.00  0.00    +0.000 A 
ATOM     24  C   UNL     1       5.176   4.939  18.309  0.00  0.00    +0.000 A 
ATOM     25  C   UNL     1       4.769   3.964  17.393  0.00  0.00    +0.000 A 
ATOM     26  C   UNL     1       5.319   3.925  16.108  0.00  0.00    +0.000 A 
BRANCH  21  28
ATOM     27  C   UNL     1       6.168   3.834  13.442  0.00  0.00    +0.000 C 
ATOM     28  C   UNL     1       6.950   4.755  14.368  0.00  0.00    +0.000 C 
ENDBRANCH  21  28
ENDBRANCH  20  24
ENDBRANCH   1  20
TORSDOF 7
ENDMDL
MODEL 6
REMARK VINA RESULT:      -7.8      0.653      1.056
REMARK  Name = 
REMARK  8 active torsions:
REMARK  status: ('A' for Active; 'I' for Inactive)
REMARK    1  A    between atoms: C_1  and  C_2
REMARK    2  A    between atoms: C_2  and  C_3
REMARK    3  A    between atoms: C_6  and  O_7
REMARK    4  A    between atoms: O_7  and  C_8
REMARK    5  A    between atoms: C_13  and  C_14
REMARK    6  A    between atoms: N_15  and  O_16
REMARK    7  A    between atoms: N_17  and  C_18
REMARK    8  A    between atoms: C_18  and  C_19
REMARK                            x       y       z     vdW  Elec       q    Type
REMARK                         _______ _______ _______ _____ _____    ______ ____
ROOT
ATOM      1  C   UNL     1       3.063   4.826  19.046  0.00  0.00    +0.000 A 
ATOM      2  N   UNL     1       1.824   4.330  19.326  0.00  0.00    +0.000 NA
ATOM      3  C   UNL     1       1.425   3.225  18.668  0.00  0.00    +0.000 A 
ATOM      4  C   UNL     1       2.212   2.561  17.749  0.00  0.00    +0.000 A 
ATOM      5  C   UNL     1       3.494   3.049  17.514  0.00  0.00    +0.000 A 
ATOM      6  C   UNL     1       3.958   4.198  18.179  0.00  0.00    +0.000 A 
ENDROOT
BRANCH   6   7
ATOM      7  C   UNL     1       5.374   4.652  17.896  0.00  0.00    +0.000 C 
ATOM      8  N   UNL     1       6.234   4.314  18.819  0.00  0.00    +0.000 NA
ATOM      9  N   UNL     1       5.611   5.420  16.765  0.00  0.00    +0.000 N 
ATOM     10  H   UNL     1       4.805   5.621  16.182  0.00  0.00    +0.000 HD
BRANCH   8  11
ATOM     11  O   UNL     1       7.500   4.869  18.645  0.00  0.00    +0.000 OA
ATOM     12  H   UNL     1       7.307   5.679  18.138  0.00  0.00    +0.000 HD
ENDBRANCH   8  11
BRANCH   9  13
ATOM     13  C   UNL     1       6.849   5.408  16.000  0.00  0.00    +0.000 C 
BRANCH  13  14
ATOM     14  C   UNL     1       6.680   4.878  14.596  0.00  0.00    +0.000 A 
ATOM     15  C   UNL     1       7.622   5.059  13.579  0.00  0.00    +0.000 A 
ATOM     16  C   UNL     1       7.425   4.467  12.331  0.00  0.00    +0.000 A 
ATOM     17  C   UNL     1       6.292   3.703  12.134  0.00  0.00    +0.000 A 
ATOM     18  N   UNL     1       5.358   3.493  13.088  0.00  0.00    +0.000 NA
ATOM     19  C   UNL     1       5.581   4.076  14.290  0.00  0.00    +0.000 A 
ENDBRANCH  13  14
ENDBRANCH   9  13
ENDBRANCH   6   7
BRANCH   1  20
ATOM     20  O   UNL     1       3.436   6.007  19.678  0.00  0.00    +0.000 OA
BRANCH  20  24
ATOM     21  C   UNL     1       1.019   9.327  18.809  0.00  0.00    +0.000 A 
ATOM     22  C   UNL     1       1.837   8.733  17.839  0.00  0.00    +0.000 A 
ATOM     23  C   UNL     1       2.652   7.643  18.164  0.00  0.00    +0.000 A 
ATOM     24  C   UNL     1       2.663   7.133  19.462  0.00  0.00    +0.000 A 
ATOM     25  C   UNL     1       1.841   7.716  20.432  0.00  0.00    +0.000 A 
ATOM     26  C   UNL     1       1.034   8.813  20.111  0.00  0.00    +0.000 A 
BRANCH  21  28
ATOM     27  C   UNL     1      -0.353  11.230  19.685  0.00  0.00    +0.000 C 
ATOM     28  C   UNL     1       0.096  10.464  18.448  0.00  0.00    +0.000 C 
ENDBRANCH  21  28
ENDBRANCH  20  24
ENDBRANCH   1  20
TORSDOF 7
ENDMDL
MODEL 7
REMARK VINA RESULT:      -7.6      2.440      7.706
REMARK  Name = 
REMARK  8 active torsions:
REMARK  status: ('A' for Active; 'I' for Inactive)
REMARK    1  A    between atoms: C_1  and  C_2
REMARK    2  A    between atoms: C_2  and  C_3
REMARK    3  A    between atoms: C_6  and  O_7
REMARK    4  A    between atoms: O_7  and  C_8
REMARK    5  A    between atoms: C_13  and  C_14
REMARK    6  A    between atoms: N_15  and  O_16
REMARK    7  A    between atoms: N_17  and  C_18
REMARK    8  A    between atoms: C_18  and  C_19
REMARK                            x       y       z     vdW  Elec       q    Type
REMARK                         _______ _______ _______ _____ _____    ______ ____
ROOT
ATOM      1  C   UNL     1       3.619   4.299  19.699  0.00  0.00    +0.000 A 
ATOM      2  N   UNL     1       3.544   2.964  19.970  0.00  0.00    +0.000 NA
ATOM      3  C   UNL     1       2.326   2.438  20.205  0.00  0.00    +0.000 A 
ATOM      4  C   UNL     1       1.159   3.171  20.160  0.00  0.00    +0.000 A 
ATOM      5  C   UNL     1       1.248   4.520  19.829  0.00  0.00    +0.000 A 
ATOM      6  C   UNL     1       2.495   5.116  19.573  0.00  0.00    +0.000 A 
ENDROOT
BRANCH   6   7
ATOM      7  C   UNL     1       2.511   6.580  19.188  0.00  0.00    +0.000 C 
ATOM      8  N   UNL     1       3.033   6.815  18.014  0.00  0.00    +0.000 NA
ATOM      9  N   UNL     1       2.058   7.512  20.111  0.00  0.00    +0.000 N 
ATOM     10  H   UNL     1       1.727   7.144  20.996  0.00  0.00    +0.000 HD
BRANCH   8  11
ATOM     11  O   UNL     1       3.198   8.168  17.728  0.00  0.00    +0.000 OA
ATOM     12  H   UNL     1       3.845   8.449  18.402  0.00  0.00    +0.000 HD
ENDBRANCH   8  11
BRANCH   9  13
ATOM     13  C   UNL     1       1.412   8.771  19.767  0.00  0.00    +0.000 C 
BRANCH  13  14
ATOM     14  C   UNL     1       0.631   9.374  20.909  0.00  0.00    +0.000 A 
ATOM     15  C   UNL     1      -0.022   8.618  21.888  0.00  0.00    +0.000 A 
ATOM     16  C   UNL     1      -0.653   9.255  22.956  0.00  0.00    +0.000 A 
ATOM     17  C   UNL     1      -0.610  10.634  23.023  0.00  0.00    +0.000 A 
ATOM     18  N   UNL     1       0.015  11.406  22.106  0.00  0.00    +0.000 NA
ATOM     19  C   UNL     1       0.623  10.758  21.085  0.00  0.00    +0.000 A 
ENDBRANCH  13  14
ENDBRANCH   9  13
ENDBRANCH   6   7
BRANCH   1  20
ATOM     20  O   UNL     1       4.886   4.845  19.529  0.00  0.00    +0.000 OA
BRANCH  20  24
ATOM     21  C   UNL     1       6.435   4.624  15.634  0.00  0.00    +0.000 A 
ATOM     22  C   UNL     1       5.243   3.982  15.994  0.00  0.00    +0.000 A 
ATOM     23  C   UNL     1       4.763   4.052  17.307  0.00  0.00    +0.000 A 
ATOM     24  C   UNL     1       5.470   4.761  18.278  0.00  0.00    +0.000 A 
ATOM     25  C   UNL     1       6.656   5.411  17.922  0.00  0.00    +0.000 A 
ATOM     26  C   UNL     1       7.142   5.332  16.613  0.00  0.00    +0.000 A 
BRANCH  21  28
ATOM     27  C   UNL     1       6.014   3.756  13.323  0.00  0.00    +0.000 C 
ATOM     28  C   UNL     1       6.923   4.599  14.207  0.00  0.00    +0.000 C 
ENDBRANCH  21  28
ENDBRANCH  20  24
ENDBRANCH   1  20
TORSDOF 7
ENDMDL
MODEL 8
REMARK VINA RESULT:      -7.5      2.635      7.961
REMARK  Name = 
REMARK  8 active torsions:
REMARK  status: ('A' for Active; 'I' for Inactive)
REMARK    1  A    between atoms: C_1  and  C_2
REMARK    2  A    between atoms: C_2  and  C_3
REMARK    3  A    between atoms: C_6  and  O_7
REMARK    4  A    between atoms: O_7  and  C_8
REMARK    5  A    between atoms: C_13  and  C_14
REMARK    6  A    between atoms: N_15  and  O_16
REMARK    7  A    between atoms: N_17  and  C_18
REMARK    8  A    between atoms: C_18  and  C_19
REMARK                            x       y       z     vdW  Elec       q    Type
REMARK                         _______ _______ _______ _____ _____    ______ ____
ROOT
ATOM      1  C   UNL     1       3.647   4.763  19.775  0.00  0.00    +0.000 A 
ATOM      2  N   UNL     1       3.703   3.458  20.167  0.00  0.00    +0.000 NA
ATOM      3  C   UNL     1       2.610   2.928  20.749  0.00  0.00    +0.000 A 
ATOM      4  C   UNL     1       1.437   3.628  20.943  0.00  0.00    +0.000 A 
ATOM      5  C   UNL     1       1.379   4.943  20.489  0.00  0.00    +0.000 A 
ATOM      6  C   UNL     1       2.492   5.540  19.874  0.00  0.00    +0.000 A 
ENDROOT
BRANCH   6   7
ATOM      7  C   UNL     1       2.344   6.963  19.377  0.00  0.00    +0.000 C 
ATOM      8  N   UNL     1       2.715   7.133  18.137  0.00  0.00    +0.000 NA
ATOM      9  N   UNL     1       1.918   7.935  20.270  0.00  0.00    +0.000 N 
ATOM     10  H   UNL     1       1.715   7.621  21.213  0.00  0.00    +0.000 HD
BRANCH   8  11
ATOM     11  O   UNL     1       2.735   8.465  17.729  0.00  0.00    +0.000 OA
ATOM     12  H   UNL     1       3.500   8.489  17.125  0.00  0.00    +0.000 HD
ENDBRANCH   8  11
BRANCH   9  13
ATOM     13  C   UNL     1       1.135   9.108  19.906  0.00  0.00    +0.000 C 
BRANCH  13  14
ATOM     14  C   UNL     1       0.314   9.657  21.047  0.00  0.00    +0.000 A 
ATOM     15  C   UNL     1       0.204   9.034  22.294  0.00  0.00    +0.000 A 
ATOM     16  C   UNL     1      -0.510   9.651  23.322  0.00  0.00    +0.000 A 
ATOM     17  C   UNL     1      -1.091  10.880  23.079  0.00  0.00    +0.000 A 
ATOM     18  N   UNL     1      -1.005  11.524  21.893  0.00  0.00    +0.000 NA
ATOM     19  C   UNL     1      -0.301  10.902  20.918  0.00  0.00    +0.000 A 
ENDBRANCH  13  14
ENDBRANCH   9  13
ENDBRANCH   6   7
BRANCH   1  20
ATOM     20  O   UNL     1       4.804   5.320  19.242  0.00  0.00    +0.000 OA
BRANCH  20  24
ATOM     21  C   UNL     1       6.016   4.375  15.336  0.00  0.00    +0.000 A 
ATOM     22  C   UNL     1       6.790   5.186  16.175  0.00  0.00    +0.000 A 
ATOM     23  C   UNL     1       6.349   5.506  17.464  0.00  0.00    +0.000 A 
ATOM     24  C   UNL     1       5.126   5.022  17.931  0.00  0.00    +0.000 A 
ATOM     25  C   UNL     1       4.354   4.203  17.101  0.00  0.00    +0.000 A 
ATOM     26  C   UNL     1       4.789   3.893  15.809  0.00  0.00    +0.000 A 
BRANCH  21  28
ATOM     27  C   UNL     1       7.470   5.024  13.403  0.00  0.00    +0.000 C 
ATOM     28  C   UNL     1       6.516   3.980  13.969  0.00  0.00    +0.000 C 
ENDBRANCH  21  28
ENDBRANCH  20  24
ENDBRANCH   1  20
TORSDOF 7
ENDMDL
MODEL 9
REMARK VINA RESULT:      -7.4      1.164      1.796
REMARK  Name = 
REMARK  8 active torsions:
REMARK  status: ('A' for Active; 'I' for Inactive)
REMARK    1  A    between atoms: C_1  and  C_2
REMARK    2  A    between atoms: C_2  and  C_3
REMARK    3  A    between atoms: C_6  and  O_7
REMARK    4  A    between atoms: O_7  and  C_8
REMARK    5  A    between atoms: C_13  and  C_14
REMARK    6  A    between atoms: N_15  and  O_16
REMARK    7  A    between atoms: N_17  and  C_18
REMARK    8  A    between atoms: C_18  and  C_19
REMARK                            x       y       z     vdW  Elec       q    Type
REMARK                         _______ _______ _______ _____ _____    ______ ____
ROOT
ATOM      1  C   UNL     1       2.758   4.552  17.948  0.00  0.00    +0.000 A 
ATOM      2  N   UNL     1       1.529   4.010  18.185  0.00  0.00    +0.000 NA
ATOM      3  C   UNL     1       1.467   2.697  18.481  0.00  0.00    +0.000 A 
ATOM      4  C   UNL     1       2.580   1.887  18.581  0.00  0.00    +0.000 A 
ATOM      5  C   UNL     1       3.830   2.468  18.389  0.00  0.00    +0.000 A 
ATOM      6  C   UNL     1       3.947   3.835  18.081  0.00  0.00    +0.000 A 
ENDROOT
BRANCH   6   7
ATOM      7  C   UNL     1       5.341   4.403  17.917  0.00  0.00    +0.000 C 
ATOM      8  N   UNL     1       6.135   4.157  18.924  0.00  0.00    +0.000 NA
ATOM      9  N   UNL     1       5.617   5.168  16.793  0.00  0.00    +0.000 N 
ATOM     10  H   UNL     1       4.856   5.288  16.134  0.00  0.00    +0.000 HD
BRANCH   8  11
ATOM     11  O   UNL     1       7.362   4.815  18.852  0.00  0.00    +0.000 OA
ATOM     12  H   UNL     1       7.878   4.375  19.553  0.00  0.00    +0.000 HD
ENDBRANCH   8  11
BRANCH   9  13
ATOM     13  C   UNL     1       6.919   5.247  16.145  0.00  0.00    +0.000 C 
BRANCH  13  14
ATOM     14  C   UNL     1       6.883   4.869  14.684  0.00  0.00    +0.000 A 
ATOM     15  C   UNL     1       7.699   5.454  13.711  0.00  0.00    +0.000 A 
ATOM     16  C   UNL     1       7.661   4.989  12.396  0.00  0.00    +0.000 A 
ATOM     17  C   UNL     1       6.811   3.945  12.089  0.00  0.00    +0.000 A 
ATOM     18  N   UNL     1       6.011   3.342  12.996  0.00  0.00    +0.000 NA
ATOM     19  C   UNL     1       6.075   3.813  14.264  0.00  0.00    +0.000 A 
ENDBRANCH  13  14
ENDBRANCH   9  13
ENDBRANCH   6   7
BRANCH   1  20
ATOM     20  O   UNL     1       2.804   5.890  17.573  0.00  0.00    +0.000 OA
BRANCH  20  24
ATOM     21  C   UNL     1       1.385   8.662  20.388  0.00  0.00    +0.000 A 
ATOM     22  C   UNL     1       1.662   7.333  20.733  0.00  0.00    +0.000 A 
ATOM     23  C   UNL     1       2.109   6.424  19.767  0.00  0.00    +0.000 A 
ATOM     24  C   UNL     1       2.283   6.830  18.444  0.00  0.00    +0.000 A 
ATOM     25  C   UNL     1       2.018   8.158  18.096  0.00  0.00    +0.000 A 
ATOM     26  C   UNL     1       1.559   9.064  19.058  0.00  0.00    +0.000 A 
BRANCH  21  28
ATOM     27  C   UNL     1       0.482  10.960  20.807  0.00  0.00    +0.000 C 
ATOM     28  C   UNL     1       0.959   9.658  21.437  0.00  0.00    +0.000 C 
ENDBRANCH  21  28
ENDBRANCH  20  24
ENDBRANCH   1  20
TORSDOF 7
ENDMDL
