MODEL 1
REMARK VINA RESULT:      -8.0      0.000      0.000
REMARK  Name = 
REMARK  5 active torsions:
REMARK  status: ('A' for Active; 'I' for Inactive)
REMARK    1  A    between atoms: C_1  and  C_2
REMARK    2  A    between atoms: C_4  and  S_5
REMARK    3  A    between atoms: S_5  and  N_8
REMARK    4  A    between atoms: N_18  and  N_19
REMARK    5  A    between atoms: C_20  and  S_21
REMARK                            x       y       z     vdW  Elec       q    Type
REMARK                         _______ _______ _______ _____ _____    ______ ____
ROOT
ATOM      1  N   UNL     1       3.659   3.459  17.049  0.00  0.00    +0.000 N 
ATOM      2  C   UNL     1       4.919   4.002  17.328  0.00  0.00    +0.000 A 
ATOM      3  N   UNL     1       5.218   4.222  18.563  0.00  0.00    +0.000 NA
ATOM      4  C   UNL     1       6.440   4.834  18.753  0.00  0.00    +0.000 A 
ATOM      5  N   UNL     1       6.838   5.251  19.944  0.00  0.00    +0.000 NA
ATOM      6  N   UNL     1       8.032   5.818  19.678  0.00  0.00    +0.000 N 
ATOM      7  C   UNL     1       8.376   5.756  18.351  0.00  0.00    +0.000 A 
ATOM      8  C   UNL     1       7.326   5.124  17.725  0.00  0.00    +0.000 A 
ATOM      9  C   UNL     1       7.036   4.800  16.365  0.00  0.00    +0.000 A 
ATOM     10  O   UNL     1       7.820   4.962  15.433  0.00  0.00    +0.000 OA
ATOM     11  N   UNL     1       5.739   4.274  16.221  0.00  0.00    +0.000 N 
ATOM     12  H   UNL     1       3.303   3.494  16.098  0.00  0.00    +0.000 HD
ATOM     13  H   UNL     1       8.539   6.238  20.447  0.00  0.00    +0.000 HD
ENDROOT
BRANCH   1  14
ATOM     14  S   UNL     1       2.577   2.927  18.201  0.00  0.00    +0.000 S 
ATOM     15  O   UNL     1       3.234   1.918  18.998  0.00  0.00    +0.000 OA
ATOM     16  O   UNL     1       1.367   2.603  17.466  0.00  0.00    +0.000 OA
BRANCH  14  20
ATOM     17  C   UNL     1       2.214   8.111  18.332  0.00  0.00    +0.000 C 
ATOM     18  C   UNL     1       2.091   6.832  19.111  0.00  0.00    +0.000 A 
ATOM     19  C   UNL     1       2.365   5.609  18.484  0.00  0.00    +0.000 A 
ATOM     20  C   UNL     1       2.208   4.381  19.162  0.00  0.00    +0.000 A 
ATOM     21  C   UNL     1       1.774   4.364  20.496  0.00  0.00    +0.000 A 
ATOM     22  C   UNL     1       1.523   5.600  21.124  0.00  0.00    +0.000 A 
ATOM     23  C   UNL     1       1.668   6.812  20.442  0.00  0.00    +0.000 A 
ATOM     24 CL   UNL     1       1.282   8.269  21.288  0.00  0.00    +0.000 Cl
BRANCH  21  25
ATOM     25  S   UNL     1       1.469   2.942  21.535  0.00  0.00    +0.000 S 
ATOM     26  H   UNL     1       1.634   1.984  20.606  0.00  0.00    +0.000 HD
ENDBRANCH  21  25
ENDBRANCH  14  20
ENDBRANCH   1  14
BRANCH  11  27
ATOM     27  N   UNL     1       5.262   3.982  14.886  0.00  0.00    +0.000 N 
ATOM     28  H   UNL     1       5.908   3.270  14.511  0.00  0.00    +0.000 HD
ATOM     29  H   UNL     1       4.376   3.483  14.983  0.00  0.00    +0.000 HD
ENDBRANCH  11  27
TORSDOF 4
ENDMDL
MODEL 2
REMARK VINA RESULT:      -7.5      4.636      5.739
REMARK  Name = 
REMARK  5 active torsions:
REMARK  status: ('A' for Active; 'I' for Inactive)
REMARK    1  A    between atoms: C_1  and  C_2
REMARK    2  A    between atoms: C_4  and  S_5
REMARK    3  A    between atoms: S_5  and  N_8
REMARK    4  A    between atoms: N_18  and  N_19
REMARK    5  A    between atoms: C_20  and  S_21
REMARK                            x       y       z     vdW  Elec       q    Type
REMARK                         _______ _______ _______ _____ _____    ______ ____
ROOT
ATOM      1  N   UNL     1       1.833   8.059  19.037  0.00  0.00    +0.000 N 
ATOM      2  C   UNL     1       2.908   7.317  18.532  0.00  0.00    +0.000 A 
ATOM      3  N   UNL     1       3.420   7.689  17.408  0.00  0.00    +0.000 NA
ATOM      4  C   UNL     1       4.417   6.862  16.934  0.00  0.00    +0.000 A 
ATOM      5  N   UNL     1       4.952   7.025  15.735  0.00  0.00    +0.000 NA
ATOM      6  N   UNL     1       5.827   6.001  15.657  0.00  0.00    +0.000 N 
ATOM      7  C   UNL     1       5.841   5.216  16.782  0.00  0.00    +0.000 A 
ATOM      8  C   UNL     1       4.903   5.763  17.628  0.00  0.00    +0.000 A 
ATOM      9  C   UNL     1       4.399   5.399  18.913  0.00  0.00    +0.000 A 
ATOM     10  O   UNL     1       4.851   4.487  19.600  0.00  0.00    +0.000 OA
ATOM     11  N   UNL     1       3.319   6.214  19.298  0.00  0.00    +0.000 N 
ATOM     12  H   UNL     1       1.264   7.663  19.780  0.00  0.00    +0.000 HD
ATOM     13  H   UNL     1       6.359   5.897  14.803  0.00  0.00    +0.000 HD
ENDROOT
BRANCH   1  14
ATOM     14  S   UNL     1       1.267   9.482  18.377  0.00  0.00    +0.000 S 
ATOM     15  O   UNL     1       0.393   9.146  17.278  0.00  0.00    +0.000 OA
ATOM     16  O   UNL     1       2.449  10.292  18.149  0.00  0.00    +0.000 OA
BRANCH  14  20
ATOM     17  C   UNL     1      -0.009   9.415  23.416  0.00  0.00    +0.000 C 
ATOM     18  C   UNL     1      -0.177  10.112  22.096  0.00  0.00    +0.000 A 
ATOM     19  C   UNL     1       0.460   9.603  20.956  0.00  0.00    +0.000 A 
ATOM     20  C   UNL     1       0.373  10.258  19.709  0.00  0.00    +0.000 A 
ATOM     21  C   UNL     1      -0.366  11.443  19.586  0.00  0.00    +0.000 A 
ATOM     22  C   UNL     1      -1.021  11.935  20.732  0.00  0.00    +0.000 A 
ATOM     23  C   UNL     1      -0.921  11.288  21.968  0.00  0.00    +0.000 A 
ATOM     24 CL   UNL     1      -1.718  12.003  23.324  0.00  0.00    +0.000 Cl
BRANCH  21  25
ATOM     25  S   UNL     1      -0.583  12.458  18.130  0.00  0.00    +0.000 S 
ATOM     26  H   UNL     1      -0.790  11.474  17.237  0.00  0.00    +0.000 HD
ENDBRANCH  21  25
ENDBRANCH  14  20
ENDBRANCH   1  14
BRANCH  11  27
ATOM     27  N   UNL     1       2.639   5.910  20.539  0.00  0.00    +0.000 N 
ATOM     28  H   UNL     1       2.942   6.637  21.205  0.00  0.00    +0.000 HD
ATOM     29  H   UNL     1       1.646   6.105  20.397  0.00  0.00    +0.000 HD
ENDBRANCH  11  27
TORSDOF 4
ENDMDL
MODEL 3
REMARK VINA RESULT:      -7.1      1.899      3.398
REMARK  Name = 
REMARK  5 active torsions:
REMARK  status: ('A' for Active; 'I' for Inactive)
REMARK    1  A    between atoms: C_1  and  C_2
REMARK    2  A    between atoms: C_4  and  S_5
REMARK    3  A    between atoms: S_5  and  N_8
REMARK    4  A    between atoms: N_18  and  N_19
REMARK    5  A    between atoms: C_20  and  S_21
REMARK                            x       y       z     vdW  Elec       q    Type
REMARK                         _______ _______ _______ _____ _____    ______ ____
ROOT
ATOM      1  N   UNL     1       5.262   4.367  17.304  0.00  0.00    +0.000 N 
ATOM      2  C   UNL     1       5.691   4.369  15.971  0.00  0.00    +0.000 A 
ATOM      3  N   UNL     1       4.973   3.736  15.107  0.00  0.00    +0.000 NA
ATOM      4  C   UNL     1       5.503   3.712  13.833  0.00  0.00    +0.000 A 
ATOM      5  N   UNL     1       4.961   2.994  12.863  0.00  0.00    +0.000 NA
ATOM      6  N   UNL     1       5.799   3.213  11.828  0.00  0.00    +0.000 N 
ATOM      7  C   UNL     1       6.839   4.050  12.143  0.00  0.00    +0.000 A 
ATOM      8  C   UNL     1       6.666   4.374  13.469  0.00  0.00    +0.000 A 
ATOM      9  C   UNL     1       7.417   5.150  14.403  0.00  0.00    +0.000 A 
ATOM     10  O   UNL     1       8.405   5.819  14.111  0.00  0.00    +0.000 OA
ATOM     11  N   UNL     1       6.888   5.054  15.703  0.00  0.00    +0.000 N 
ATOM     12  H   UNL     1       5.911   4.644  18.034  0.00  0.00    +0.000 HD
ATOM     13  H   UNL     1       5.603   2.743  10.953  0.00  0.00    +0.000 HD
ENDROOT
BRANCH   1  14
ATOM     14  S   UNL     1       3.809   3.743  17.833  0.00  0.00    +0.000 S 
ATOM     15  O   UNL     1       4.093   2.620  18.694  0.00  0.00    +0.000 OA
ATOM     16  O   UNL     1       3.014   3.559  16.633  0.00  0.00    +0.000 OA
BRANCH  14  20
ATOM     17  C   UNL     1       2.439   8.758  17.885  0.00  0.00    +0.000 C 
ATOM     18  C   UNL     1       2.476   7.467  18.653  0.00  0.00    +0.000 A 
ATOM     19  C   UNL     1       3.051   6.329  18.071  0.00  0.00    +0.000 A 
ATOM     20  C   UNL     1       3.058   5.084  18.735  0.00  0.00    +0.000 A 
ATOM     21  C   UNL     1       2.485   4.963  20.010  0.00  0.00    +0.000 A 
ATOM     22  C   UNL     1       1.929   6.117  20.595  0.00  0.00    +0.000 A 
ATOM     23  C   UNL     1       1.914   7.346  19.927  0.00  0.00    +0.000 A 
ATOM     24 CL   UNL     1       1.160   8.688  20.711  0.00  0.00    +0.000 Cl
BRANCH  21  25
ATOM     25  S   UNL     1       2.343   3.493  21.016  0.00  0.00    +0.000 S 
ATOM     26  H   UNL     1       2.393   4.080  22.225  0.00  0.00    +0.000 HD
ENDBRANCH  21  25
ENDBRANCH  14  20
ENDBRANCH   1  14
BRANCH  11  27
ATOM     27  N   UNL     1       7.595   5.712  16.781  0.00  0.00    +0.000 N 
ATOM     28  H   UNL     1       8.425   5.128  16.964  0.00  0.00    +0.000 HD
ATOM     29  H   UNL     1       7.983   6.579  16.405  0.00  0.00    +0.000 HD
ENDBRANCH  11  27
TORSDOF 4
ENDMDL
MODEL 4
REMARK VINA RESULT:      -7.1      5.020      6.218
REMARK  Name = 
REMARK  5 active torsions:
REMARK  status: ('A' for Active; 'I' for Inactive)
REMARK    1  A    between atoms: C_1  and  C_2
REMARK    2  A    between atoms: C_4  and  S_5
REMARK    3  A    between atoms: S_5  and  N_8
REMARK    4  A    between atoms: N_18  and  N_19
REMARK    5  A    between atoms: C_20  and  S_21
REMARK                            x       y       z     vdW  Elec       q    Type
REMARK                         _______ _______ _______ _____ _____    ______ ____
ROOT
ATOM      1  N   UNL     1       1.703   8.527  20.094  0.00  0.00    +0.000 N 
ATOM      2  C   UNL     1       2.048   7.185  19.898  0.00  0.00    +0.000 A 
ATOM      3  N   UNL     1       1.748   6.345  20.830  0.00  0.00    +0.000 NA
ATOM      4  C   UNL     1       2.193   5.058  20.603  0.00  0.00    +0.000 A 
ATOM      5  N   UNL     1       2.086   4.109  21.518  0.00  0.00    +0.000 NA
ATOM      6  N   UNL     1       2.673   3.052  20.920  0.00  0.00    +0.000 N 
ATOM      7  C   UNL     1       3.135   3.332  19.658  0.00  0.00    +0.000 A 
ATOM      8  C   UNL     1       2.839   4.659  19.442  0.00  0.00    +0.000 A 
ATOM      9  C   UNL     1       3.095   5.567  18.370  0.00  0.00    +0.000 A 
ATOM     10  O   UNL     1       3.589   5.243  17.293  0.00  0.00    +0.000 OA
ATOM     11  N   UNL     1       2.713   6.880  18.698  0.00  0.00    +0.000 N 
ATOM     12  H   UNL     1       2.127   9.239  19.505  0.00  0.00    +0.000 HD
ATOM     13  H   UNL     1       2.734   2.186  21.441  0.00  0.00    +0.000 HD
ENDROOT
BRANCH   1  14
ATOM     14  S   UNL     1       0.792   9.098  21.368  0.00  0.00    +0.000 S 
ATOM     15  O   UNL     1       1.577   8.965  22.572  0.00  0.00    +0.000 OA
ATOM     16  O   UNL     1      -0.488   8.423  21.253  0.00  0.00    +0.000 OA
BRANCH  14  20
ATOM     17  C   UNL     1       1.804  13.083  18.186  0.00  0.00    +0.000 C 
ATOM     18  C   UNL     1       1.066  12.621  19.411  0.00  0.00    +0.000 A 
ATOM     19  C   UNL     1       1.214  11.299  19.853  0.00  0.00    +0.000 A 
ATOM     20  C   UNL     1       0.498  10.809  20.966  0.00  0.00    +0.000 A 
ATOM     21  C   UNL     1      -0.384  11.650  21.661  0.00  0.00    +0.000 A 
ATOM     22  C   UNL     1      -0.508  12.983  21.223  0.00  0.00    +0.000 A 
ATOM     23  C   UNL     1       0.195  13.459  20.111  0.00  0.00    +0.000 A 
ATOM     24 CL   UNL     1      -0.071  15.095  19.623  0.00  0.00    +0.000 Cl
BRANCH  21  25
ATOM     25  S   UNL     1      -1.416  11.242  23.062  0.00  0.00    +0.000 S 
ATOM     26  H   UNL     1      -1.214   9.913  23.072  0.00  0.00    +0.000 HD
ENDBRANCH  21  25
ENDBRANCH  14  20
ENDBRANCH   1  14
BRANCH  11  27
ATOM     27  N   UNL     1       2.994   7.934  17.747  0.00  0.00    +0.000 N 
ATOM     28  H   UNL     1       2.082   8.182  17.333  0.00  0.00    +0.000 HD
ATOM     29  H   UNL     1       3.254   8.764  18.283  0.00  0.00    +0.000 HD
ENDBRANCH  11  27
TORSDOF 4
ENDMDL
MODEL 5
REMARK VINA RESULT:      -7.0      9.546     11.691
REMARK  Name = 
REMARK  5 active torsions:
REMARK  status: ('A' for Active; 'I' for Inactive)
REMARK    1  A    between atoms: C_1  and  C_2
REMARK    2  A    between atoms: C_4  and  S_5
REMARK    3  A    between atoms: S_5  and  N_8
REMARK    4  A    between atoms: N_18  and  N_19
REMARK    5  A    between atoms: C_20  and  S_21
REMARK                            x       y       z     vdW  Elec       q    Type
REMARK                         _______ _______ _______ _____ _____    ______ ____
ROOT
ATOM      1  N   UNL     1      -2.774  12.655  19.089  0.00  0.00    +0.000 N 
ATOM      2  C   UNL     1      -4.007  12.572  19.747  0.00  0.00    +0.000 A 
ATOM      3  N   UNL     1      -4.015  12.712  21.029  0.00  0.00    +0.000 NA
ATOM      4  C   UNL     1      -5.251  12.535  21.615  0.00  0.00    +0.000 A 
ATOM      5  N   UNL     1      -5.407  12.511  22.929  0.00  0.00    +0.000 NA
ATOM      6  N   UNL     1      -6.728  12.272  23.067  0.00  0.00    +0.000 N 
ATOM      7  C   UNL     1      -7.384  12.152  21.868  0.00  0.00    +0.000 A 
ATOM      8  C   UNL     1      -6.418  12.306  20.900  0.00  0.00    +0.000 A 
ATOM      9  C   UNL     1      -6.428  12.239  19.474  0.00  0.00    +0.000 A 
ATOM     10  O   UNL     1      -7.444  12.120  18.794  0.00  0.00    +0.000 OA
ATOM     11  N   UNL     1      -5.129  12.324  18.940  0.00  0.00    +0.000 N 
ATOM     12  H   UNL     1      -2.699  12.320  18.133  0.00  0.00    +0.000 HD
ATOM     13  H   UNL     1      -7.098  12.189  24.006  0.00  0.00    +0.000 HD
ENDROOT
BRANCH   1  14
ATOM     14  S   UNL     1      -1.335  13.080  19.817  0.00  0.00    +0.000 S 
ATOM     15  O   UNL     1      -1.644  13.761  21.051  0.00  0.00    +0.000 OA
ATOM     16  O   UNL     1      -0.570  13.753  18.783  0.00  0.00    +0.000 OA
BRANCH  14  20
ATOM     17  C   UNL     1       1.633   9.258  17.915  0.00  0.00    +0.000 C 
ATOM     18  C   UNL     1       0.870   9.771  19.103  0.00  0.00    +0.000 A 
ATOM     19  C   UNL     1       0.166  10.980  19.007  0.00  0.00    +0.000 A 
ATOM     20  C   UNL     1      -0.518  11.524  20.115  0.00  0.00    +0.000 A 
ATOM     21  C   UNL     1      -0.509  10.854  21.347  0.00  0.00    +0.000 A 
ATOM     22  C   UNL     1       0.181   9.629  21.427  0.00  0.00    +0.000 A 
ATOM     23  C   UNL     1       0.868   9.101  20.329  0.00  0.00    +0.000 A 
ATOM     24 CL   UNL     1       1.729   7.618  20.548  0.00  0.00    +0.000 Cl
BRANCH  21  25
ATOM     25  S   UNL     1      -1.265  11.367  22.883  0.00  0.00    +0.000 S 
ATOM     26  H   UNL     1      -0.894  10.321  23.642  0.00  0.00    +0.000 HD
ENDBRANCH  21  25
ENDBRANCH  14  20
ENDBRANCH   1  14
BRANCH  11  27
ATOM     27  N   UNL     1      -4.965  12.178  17.509  0.00  0.00    +0.000 N 
ATOM     28  H   UNL     1      -5.862  12.477  17.096  0.00  0.00    +0.000 HD
ATOM     29  H   UNL     1      -4.303  12.894  17.205  0.00  0.00    +0.000 HD
ENDBRANCH  11  27
TORSDOF 4
ENDMDL
MODEL 6
REMARK VINA RESULT:      -6.9      5.473      6.633
REMARK  Name = 
REMARK  5 active torsions:
REMARK  status: ('A' for Active; 'I' for Inactive)
REMARK    1  A    between atoms: C_1  and  C_2
REMARK    2  A    between atoms: C_4  and  S_5
REMARK    3  A    between atoms: S_5  and  N_8
REMARK    4  A    between atoms: N_18  and  N_19
REMARK    5  A    between atoms: C_20  and  S_21
REMARK                            x       y       z     vdW  Elec       q    Type
REMARK                         _______ _______ _______ _____ _____    ______ ____
ROOT
ATOM      1  N   UNL     1       1.264   8.840  20.429  0.00  0.00    +0.000 N 
ATOM      2  C   UNL     1       1.760   7.577  20.085  0.00  0.00    +0.000 A 
ATOM      3  N   UNL     1       1.553   6.605  20.907  0.00  0.00    +0.000 NA
ATOM      4  C   UNL     1       2.142   5.412  20.541  0.00  0.00    +0.000 A 
ATOM      5  N   UNL     1       2.140   4.356  21.338  0.00  0.00    +0.000 NA
ATOM      6  N   UNL     1       2.845   3.449  20.632  0.00  0.00    +0.000 N 
ATOM      7  C   UNL     1       3.278   3.926  19.420  0.00  0.00    +0.000 A 
ATOM      8  C   UNL     1       2.835   5.227  19.354  0.00  0.00    +0.000 A 
ATOM      9  C   UNL     1       2.991   6.277  18.399  0.00  0.00    +0.000 A 
ATOM     10  O   UNL     1       3.524   6.140  17.301  0.00  0.00    +0.000 OA
ATOM     11  N   UNL     1       2.460   7.491  18.870  0.00  0.00    +0.000 N 
ATOM     12  H   UNL     1       1.606   9.659  19.934  0.00  0.00    +0.000 HD
ATOM     13  H   UNL     1       3.002   2.541  21.050  0.00  0.00    +0.000 HD
ENDROOT
BRANCH   1  14
ATOM     14  S   UNL     1       0.287   9.152  21.744  0.00  0.00    +0.000 S 
ATOM     15  O   UNL     1       1.130   9.248  22.912  0.00  0.00    +0.000 OA
ATOM     16  O   UNL     1      -0.764   8.152  21.683  0.00  0.00    +0.000 OA
BRANCH  14  20
ATOM     17  C   UNL     1      -1.295  13.792  23.475  0.00  0.00    +0.000 C 
ATOM     18  C   UNL     1      -1.204  12.865  22.296  0.00  0.00    +0.000 A 
ATOM     19  C   UNL     1      -0.635  11.594  22.454  0.00  0.00    +0.000 A 
ATOM     20  C   UNL     1      -0.480  10.714  21.361  0.00  0.00    +0.000 A 
ATOM     21  C   UNL     1      -0.903  11.100  20.081  0.00  0.00    +0.000 A 
ATOM     22  C   UNL     1      -1.494  12.370  19.936  0.00  0.00    +0.000 A 
ATOM     23  C   UNL     1      -1.633  13.243  21.021  0.00  0.00    +0.000 A 
ATOM     24 CL   UNL     1      -2.323  14.800  20.725  0.00  0.00    +0.000 Cl
BRANCH  21  25
ATOM     25  S   UNL     1      -0.774  10.177  18.556  0.00  0.00    +0.000 S 
ATOM     26  H   UNL     1       0.070  10.996  17.904  0.00  0.00    +0.000 HD
ENDBRANCH  21  25
ENDBRANCH  14  20
ENDBRANCH   1  14
BRANCH  11  27
ATOM     27  N   UNL     1       2.624   8.675  18.053  0.00  0.00    +0.000 N 
ATOM     28  H   UNL     1       3.332   9.249  18.537  0.00  0.00    +0.000 HD
ATOM     29  H   UNL     1       3.091   8.386  17.191  0.00  0.00    +0.000 HD
ENDBRANCH  11  27
TORSDOF 4
ENDMDL
MODEL 7
REMARK VINA RESULT:      -6.9      7.201      9.145
REMARK  Name = 
REMARK  5 active torsions:
REMARK  status: ('A' for Active; 'I' for Inactive)
REMARK    1  A    between atoms: C_1  and  C_2
REMARK    2  A    between atoms: C_4  and  S_5
REMARK    3  A    between atoms: S_5  and  N_8
REMARK    4  A    between atoms: N_18  and  N_19
REMARK    5  A    between atoms: C_20  and  S_21
REMARK                            x       y       z     vdW  Elec       q    Type
REMARK                         _______ _______ _______ _____ _____    ______ ____
ROOT
ATOM      1  N   UNL     1      -0.102  10.365  17.803  0.00  0.00    +0.000 N 
ATOM      2  C   UNL     1      -1.297  10.965  18.219  0.00  0.00    +0.000 A 
ATOM      3  N   UNL     1      -1.308  11.553  19.366  0.00  0.00    +0.000 NA
ATOM      4  C   UNL     1      -2.540  12.046  19.744  0.00  0.00    +0.000 A 
ATOM      5  N   UNL     1      -2.752  12.556  20.946  0.00  0.00    +0.000 NA
ATOM      6  N   UNL     1      -4.065  12.863  20.912  0.00  0.00    +0.000 N 
ATOM      7  C   UNL     1      -4.661  12.555  19.714  0.00  0.00    +0.000 A 
ATOM      8  C   UNL     1      -3.669  11.999  18.939  0.00  0.00    +0.000 A 
ATOM      9  C   UNL     1      -3.640  11.427  17.631  0.00  0.00    +0.000 A 
ATOM     10  O   UNL     1      -4.590  11.435  16.852  0.00  0.00    +0.000 OA
ATOM     11  N   UNL     1      -2.390  10.852  17.342  0.00  0.00    +0.000 N 
ATOM     12  H   UNL     1      -0.122   9.703  17.032  0.00  0.00    +0.000 HD
ATOM     13  H   UNL     1      -4.481  13.261  21.744  0.00  0.00    +0.000 HD
ENDROOT
BRANCH   1  14
ATOM     14  S   UNL     1       1.353  10.490  18.606  0.00  0.00    +0.000 S 
ATOM     15  O   UNL     1       1.180  11.416  19.700  0.00  0.00    +0.000 OA
ATOM     16  O   UNL     1       2.337  10.758  17.572  0.00  0.00    +0.000 OA
BRANCH  14  20
ATOM     17  C   UNL     1       3.600   5.888  17.711  0.00  0.00    +0.000 C 
ATOM     18  C   UNL     1       2.759   6.704  18.652  0.00  0.00    +0.000 A 
ATOM     19  C   UNL     1       2.416   8.020  18.313  0.00  0.00    +0.000 A 
ATOM     20  C   UNL     1       1.675   8.839  19.192  0.00  0.00    +0.000 A 
ATOM     21  C   UNL     1       1.259   8.340  20.436  0.00  0.00    +0.000 A 
ATOM     22  C   UNL     1       1.590   7.010  20.758  0.00  0.00    +0.000 A 
ATOM     23  C   UNL     1       2.335   6.208  19.888  0.00  0.00    +0.000 A 
ATOM     24 CL   UNL     1       2.734   4.606  20.401  0.00  0.00    +0.000 Cl
BRANCH  21  25
ATOM     25  S   UNL     1       0.354   9.198  21.716  0.00  0.00    +0.000 S 
ATOM     26  H   UNL     1       1.370   9.915  22.226  0.00  0.00    +0.000 HD
ENDBRANCH  21  25
ENDBRANCH  14  20
ENDBRANCH   1  14
BRANCH  11  27
ATOM     27  N   UNL     1      -2.232  10.150  16.086  0.00  0.00    +0.000 N 
ATOM     28  H   UNL     1      -3.144  10.225  15.611  0.00  0.00    +0.000 HD
ATOM     29  H   UNL     1      -1.605  10.707  15.504  0.00  0.00    +0.000 HD
ENDBRANCH  11  27
TORSDOF 4
ENDMDL
MODEL 8
REMARK VINA RESULT:      -6.9      5.007      6.799
REMARK  Name = 
REMARK  5 active torsions:
REMARK  status: ('A' for Active; 'I' for Inactive)
REMARK    1  A    between atoms: C_1  and  C_2
REMARK    2  A    between atoms: C_4  and  S_5
REMARK    3  A    between atoms: S_5  and  N_8
REMARK    4  A    between atoms: N_18  and  N_19
REMARK    5  A    between atoms: C_20  and  S_21
REMARK                            x       y       z     vdW  Elec       q    Type
REMARK                         _______ _______ _______ _____ _____    ______ ____
ROOT
ATOM      1  N   UNL     1       2.008   7.325  18.980  0.00  0.00    +0.000 N 
ATOM      2  C   UNL     1       1.460   8.358  19.751  0.00  0.00    +0.000 A 
ATOM      3  N   UNL     1       1.088   8.078  20.953  0.00  0.00    +0.000 NA
ATOM      4  C   UNL     1       0.482   9.123  21.621  0.00  0.00    +0.000 A 
ATOM      5  N   UNL     1      -0.077   8.965  22.809  0.00  0.00    +0.000 NA
ATOM      6  N   UNL     1      -0.579  10.190  23.068  0.00  0.00    +0.000 N 
ATOM      7  C   UNL     1      -0.338  11.095  22.064  0.00  0.00    +0.000 A 
ATOM      8  C   UNL     1       0.348  10.400  21.095  0.00  0.00    +0.000 A 
ATOM      9  C   UNL     1       0.838  10.737  19.797  0.00  0.00    +0.000 A 
ATOM     10  O   UNL     1       0.816  11.869  19.322  0.00  0.00    +0.000 OA
ATOM     11  N   UNL     1       1.352   9.612  19.127  0.00  0.00    +0.000 N 
ATOM     12  H   UNL     1       2.089   7.447  17.975  0.00  0.00    +0.000 HD
ATOM     13  H   UNL     1      -1.084  10.322  23.935  0.00  0.00    +0.000 HD
ENDROOT
BRANCH   1  14
ATOM     14  S   UNL     1       2.363   5.799  19.551  0.00  0.00    +0.000 S 
ATOM     15  O   UNL     1       1.123   5.070  19.674  0.00  0.00    +0.000 OA
ATOM     16  O   UNL     1       3.202   6.014  20.715  0.00  0.00    +0.000 OA
BRANCH  14  20
ATOM     17  C   UNL     1       5.377   6.624  15.395  0.00  0.00    +0.000 C 
ATOM     18  C   UNL     1       4.795   5.602  16.331  0.00  0.00    +0.000 A 
ATOM     19  C   UNL     1       3.938   6.014  17.361  0.00  0.00    +0.000 A 
ATOM     20  C   UNL     1       3.413   5.094  18.295  0.00  0.00    +0.000 A 
ATOM     21  C   UNL     1       3.741   3.734  18.204  0.00  0.00    +0.000 A 
ATOM     22  C   UNL     1       4.585   3.327  17.152  0.00  0.00    +0.000 A 
ATOM     23  C   UNL     1       5.112   4.245  16.238  0.00  0.00    +0.000 A 
ATOM     24 CL   UNL     1       6.180   3.650  15.017  0.00  0.00    +0.000 Cl
BRANCH  21  25
ATOM     25  S   UNL     1       3.232   2.406  19.287  0.00  0.00    +0.000 S 
ATOM     26  H   UNL     1       2.037   2.147  18.729  0.00  0.00    +0.000 HD
ENDBRANCH  21  25
ENDBRANCH  14  20
ENDBRANCH   1  14
BRANCH  11  27
ATOM     27  N   UNL     1       1.804   9.774  17.761  0.00  0.00    +0.000 N 
ATOM     28  H   UNL     1       2.488   9.019  17.605  0.00  0.00    +0.000 HD
ATOM     29  H   UNL     1       1.022   9.527  17.151  0.00  0.00    +0.000 HD
ENDBRANCH  11  27
TORSDOF 4
ENDMDL
MODEL 9
REMARK VINA RESULT:      -6.8      7.946     10.112
REMARK  Name = 
REMARK  5 active torsions:
REMARK  status: ('A' for Active; 'I' for Inactive)
REMARK    1  A    between atoms: C_1  and  C_2
REMARK    2  A    between atoms: C_4  and  S_5
REMARK    3  A    between atoms: S_5  and  N_8
REMARK    4  A    between atoms: N_18  and  N_19
REMARK    5  A    between atoms: C_20  and  S_21
REMARK                            x       y       z     vdW  Elec       q    Type
REMARK                         _______ _______ _______ _____ _____    ______ ____
ROOT
ATOM      1  N   UNL     1      -1.092  12.515  20.409  0.00  0.00    +0.000 N 
ATOM      2  C   UNL     1      -2.054  12.156  19.457  0.00  0.00    +0.000 A 
ATOM      3  N   UNL     1      -1.638  11.749  18.306  0.00  0.00    +0.000 NA
ATOM      4  C   UNL     1      -2.641  11.494  17.394  0.00  0.00    +0.000 A 
ATOM      5  N   UNL     1      -2.381  11.199  16.131  0.00  0.00    +0.000 NA
ATOM      6  N   UNL     1      -3.612  11.077  15.594  0.00  0.00    +0.000 N 
ATOM      7  C   UNL     1      -4.620  11.289  16.501  0.00  0.00    +0.000 A 
ATOM      8  C   UNL     1      -3.993  11.581  17.690  0.00  0.00    +0.000 A 
ATOM      9  C   UNL     1      -4.459  11.947  18.990  0.00  0.00    +0.000 A 
ATOM     10  O   UNL     1      -5.641  11.959  19.322  0.00  0.00    +0.000 OA
ATOM     11  N   UNL     1      -3.397  12.293  19.845  0.00  0.00    +0.000 N 
ATOM     12  H   UNL     1      -1.377  13.054  21.222  0.00  0.00    +0.000 HD
ATOM     13  H   UNL     1      -3.680  10.867  14.606  0.00  0.00    +0.000 HD
ENDROOT
BRANCH   1  14
ATOM     14  S   UNL     1       0.552  12.305  20.226  0.00  0.00    +0.000 S 
ATOM     15  O   UNL     1       1.214  13.026  21.287  0.00  0.00    +0.000 OA
ATOM     16  O   UNL     1       0.825  12.634  18.839  0.00  0.00    +0.000 OA
BRANCH  14  20
ATOM     17  C   UNL     1       2.553   7.959  18.192  0.00  0.00    +0.000 C 
ATOM     18  C   UNL     1       1.760   8.559  19.318  0.00  0.00    +0.000 A 
ATOM     19  C   UNL     1       1.484   9.933  19.318  0.00  0.00    +0.000 A 
ATOM     20  C   UNL     1       0.790  10.546  20.384  0.00  0.00    +0.000 A 
ATOM     21  C   UNL     1       0.355   9.778  21.474  0.00  0.00    +0.000 A 
ATOM     22  C   UNL     1       0.618   8.395  21.454  0.00  0.00    +0.000 A 
ATOM     23  C   UNL     1       1.316   7.796  20.402  0.00  0.00    +0.000 A 
ATOM     24 CL   UNL     1       1.634   6.100  20.500  0.00  0.00    +0.000 Cl
BRANCH  21  25
ATOM     25  S   UNL     1      -0.499  10.338  22.941  0.00  0.00    +0.000 S 
ATOM     26  H   UNL     1      -0.722   9.139  23.506  0.00  0.00    +0.000 HD
ENDBRANCH  21  25
ENDBRANCH  14  20
ENDBRANCH   1  14
BRANCH  11  27
ATOM     27  N   UNL     1      -3.715  12.776  21.172  0.00  0.00    +0.000 N 
ATOM     28  H   UNL     1      -3.563  11.972  21.801  0.00  0.00    +0.000 HD
ATOM     29  H   UNL     1      -2.983  13.437  21.437  0.00  0.00    +0.000 HD
ENDBRANCH  11  27
TORSDOF 4
ENDMDL
