MODEL 1
REMARK VINA RESULT:      -6.8      0.000      0.000
REMARK  Name = 
REMARK  9 active torsions:
REMARK  status: ('A' for Active; 'I' for Inactive)
REMARK    1  A    between atoms: C_2  and  O_3
REMARK    2  A    between atoms: C_2  and  C_4
REMARK    3  A    between atoms: C_4  and  C_5
REMARK    4  A    between atoms: C_8  and  S_9
REMARK    5  A    between atoms: S_9  and  S_10
REMARK    6  A    between atoms: S_10  and  C_11
REMARK    7  A    between atoms: C_14  and  C_15
REMARK    8  A    between atoms: C_15  and  C_16
REMARK    9  A    between atoms: C_16  and  O_18
REMARK                            x       y       z     vdW  Elec       q    Type
REMARK                         _______ _______ _______ _____ _____    ______ ____
ROOT
ATOM      1  S   UNL     1       6.363   5.916  17.310  0.00  0.00    +0.000 S 
ENDROOT
BRANCH   1   5
ATOM      2  C   UNL     1       6.600   3.909  13.152  0.00  0.00    +0.000 A 
ATOM      3  C   UNL     1       5.699   3.453  14.123  0.00  0.00    +0.000 A 
ATOM      4  C   UNL     1       5.645   4.059  15.385  0.00  0.00    +0.000 A 
ATOM      5  C   UNL     1       6.488   5.128  15.703  0.00  0.00    +0.000 A 
ATOM      6  C   UNL     1       7.378   5.594  14.728  0.00  0.00    +0.000 A 
ATOM      7  C   UNL     1       7.436   4.991  13.464  0.00  0.00    +0.000 A 
BRANCH   2   8
ATOM      8  C   UNL     1       6.651   3.263  11.782  0.00  0.00    +0.000 C 
BRANCH   8  10
ATOM      9  O   UNL     1       4.431   2.601  11.159  0.00  0.00    +0.000 OA
ATOM     10  C   UNL     1       5.569   2.255  11.452  0.00  0.00    +0.000 C 
BRANCH  10  11
ATOM     11  O   UNL     1       5.911   0.951  11.495  0.00  0.00    +0.000 OA
ATOM     12  H   UNL     1       5.326   0.351  10.993  0.00  0.00    +0.000 HD
ENDBRANCH  10  11
ENDBRANCH   8  10
ENDBRANCH   2   8
ENDBRANCH   1   5
BRANCH   1  13
ATOM     13  S   UNL     1       4.580   6.934  17.183  0.00  0.00    +0.000 S 
BRANCH  13  14
ATOM     14  C   UNL     1       3.426   5.948  18.130  0.00  0.00    +0.000 A 
ATOM     15  C   UNL     1       3.097   4.638  17.767  0.00  0.00    +0.000 A 
ATOM     16  C   UNL     1       2.302   3.843  18.606  0.00  0.00    +0.000 A 
ATOM     17  C   UNL     1       1.829   4.335  19.833  0.00  0.00    +0.000 A 
ATOM     18  C   UNL     1       2.119   5.663  20.170  0.00  0.00    +0.000 A 
ATOM     19  C   UNL     1       2.920   6.453  19.333  0.00  0.00    +0.000 A 
BRANCH  17  20
ATOM     20  C   UNL     1       0.966   3.449  20.711  0.00  0.00    +0.000 C 
BRANCH  20  21
ATOM     21  C   UNL     1       1.700   2.655  21.771  0.00  0.00    +0.000 C 
ATOM     22  O   UNL     1       2.913   2.524  21.809  0.00  0.00    +0.000 OA
BRANCH  21  23
ATOM     23  O   UNL     1       0.893   2.135  22.727  0.00  0.00    +0.000 OA
ATOM     24  H   UNL     1       0.103   1.683  22.368  0.00  0.00    +0.000 HD
ENDBRANCH  21  23
ENDBRANCH  20  21
ENDBRANCH  17  20
ENDBRANCH  13  14
ENDBRANCH   1  13
TORSDOF 9
ENDMDL
MODEL 2
REMARK VINA RESULT:      -6.7      4.062      7.337
REMARK  Name = 
REMARK  9 active torsions:
REMARK  status: ('A' for Active; 'I' for Inactive)
REMARK    1  A    between atoms: C_2  and  O_3
REMARK    2  A    between atoms: C_2  and  C_4
REMARK    3  A    between atoms: C_4  and  C_5
REMARK    4  A    between atoms: C_8  and  S_9
REMARK    5  A    between atoms: S_9  and  S_10
REMARK    6  A    between atoms: S_10  and  C_11
REMARK    7  A    between atoms: C_14  and  C_15
REMARK    8  A    between atoms: C_15  and  C_16
REMARK    9  A    between atoms: C_16  and  O_18
REMARK                            x       y       z     vdW  Elec       q    Type
REMARK                         _______ _______ _______ _____ _____    ______ ____
ROOT
ATOM      1  S   UNL     1       1.386   3.388  20.937  0.00  0.00    +0.000 S 
ENDROOT
BRANCH   1   5
ATOM      2  C   UNL     1       2.253   7.212  18.487  0.00  0.00    +0.000 A 
ATOM      3  C   UNL     1       2.335   7.217  19.886  0.00  0.00    +0.000 A 
ATOM      4  C   UNL     1       2.056   6.056  20.620  0.00  0.00    +0.000 A 
ATOM      5  C   UNL     1       1.689   4.871  19.974  0.00  0.00    +0.000 A 
ATOM      6  C   UNL     1       1.622   4.862  18.576  0.00  0.00    +0.000 A 
ATOM      7  C   UNL     1       1.900   6.020  17.838  0.00  0.00    +0.000 A 
BRANCH   2   8
ATOM      8  C   UNL     1       2.565   8.463  17.691  0.00  0.00    +0.000 C 
BRANCH   8  10
ATOM      9  O   UNL     1       0.411   9.487  17.948  0.00  0.00    +0.000 OA
ATOM     10  C   UNL     1       1.623   9.639  17.853  0.00  0.00    +0.000 C 
BRANCH  10  11
ATOM     11  O   UNL     1       2.176  10.868  17.888  0.00  0.00    +0.000 OA
ATOM     12  H   UNL     1       3.150  10.884  17.957  0.00  0.00    +0.000 HD
ENDBRANCH  10  11
ENDBRANCH   8  10
ENDBRANCH   2   8
ENDBRANCH   1   5
BRANCH   1  13
ATOM     13  S   UNL     1       3.237   2.492  20.993  0.00  0.00    +0.000 S 
BRANCH  13  14
ATOM     14  C   UNL     1       3.979   2.885  19.413  0.00  0.00    +0.000 A 
ATOM     15  C   UNL     1       3.589   2.249  18.231  0.00  0.00    +0.000 A 
ATOM     16  C   UNL     1       4.086   2.677  16.991  0.00  0.00    +0.000 A 
ATOM     17  C   UNL     1       4.974   3.762  16.904  0.00  0.00    +0.000 A 
ATOM     18  C   UNL     1       5.401   4.365  18.094  0.00  0.00    +0.000 A 
ATOM     19  C   UNL     1       4.898   3.938  19.331  0.00  0.00    +0.000 A 
BRANCH  17  20
ATOM     20  C   UNL     1       5.496   4.193  15.548  0.00  0.00    +0.000 C 
BRANCH  20  21
ATOM     21  C   UNL     1       6.207   5.530  15.509  0.00  0.00    +0.000 C 
ATOM     22  O   UNL     1       7.419   5.661  15.578  0.00  0.00    +0.000 OA
BRANCH  21  23
ATOM     23  O   UNL     1       5.380   6.588  15.331  0.00  0.00    +0.000 OA
ATOM     24  H   UNL     1       4.998   6.929  16.165  0.00  0.00    +0.000 HD
ENDBRANCH  21  23
ENDBRANCH  20  21
ENDBRANCH  17  20
ENDBRANCH  13  14
ENDBRANCH   1  13
TORSDOF 9
ENDMDL
MODEL 3
REMARK VINA RESULT:      -6.7      1.424      2.060
REMARK  Name = 
REMARK  9 active torsions:
REMARK  status: ('A' for Active; 'I' for Inactive)
REMARK    1  A    between atoms: C_2  and  O_3
REMARK    2  A    between atoms: C_2  and  C_4
REMARK    3  A    between atoms: C_4  and  C_5
REMARK    4  A    between atoms: C_8  and  S_9
REMARK    5  A    between atoms: S_9  and  S_10
REMARK    6  A    between atoms: S_10  and  C_11
REMARK    7  A    between atoms: C_14  and  C_15
REMARK    8  A    between atoms: C_15  and  C_16
REMARK    9  A    between atoms: C_16  and  O_18
REMARK                            x       y       z     vdW  Elec       q    Type
REMARK                         _______ _______ _______ _____ _____    ______ ____
ROOT
ATOM      1  S   UNL     1       6.986   6.144  16.403  0.00  0.00    +0.000 S 
ENDROOT
BRANCH   1   5
ATOM      2  C   UNL     1       5.887   3.522  12.757  0.00  0.00    +0.000 A 
ATOM      3  C   UNL     1       7.062   4.285  12.769  0.00  0.00    +0.000 A 
ATOM      4  C   UNL     1       7.379   5.088  13.874  0.00  0.00    +0.000 A 
ATOM      5  C   UNL     1       6.530   5.146  14.984  0.00  0.00    +0.000 A 
ATOM      6  C   UNL     1       5.364   4.373  14.978  0.00  0.00    +0.000 A 
ATOM      7  C   UNL     1       5.043   3.568  13.876  0.00  0.00    +0.000 A 
BRANCH   2   8
ATOM      8  C   UNL     1       5.549   2.645  11.569  0.00  0.00    +0.000 C 
BRANCH   8  10
ATOM      9  O   UNL     1       7.668   1.713  10.940  0.00  0.00    +0.000 OA
ATOM     10  C   UNL     1       6.502   1.509  11.255  0.00  0.00    +0.000 C 
BRANCH  10  11
ATOM     11  O   UNL     1       6.012   0.256  11.337  0.00  0.00    +0.000 OA
ATOM     12  H   UNL     1       5.127   0.182  11.744  0.00  0.00    +0.000 HD
ENDBRANCH  10  11
ENDBRANCH   8  10
ENDBRANCH   2   8
ENDBRANCH   1   5
BRANCH   1  13
ATOM     13  S   UNL     1       7.154   4.751  17.908  0.00  0.00    +0.000 S 
BRANCH  13  14
ATOM     14  C   UNL     1       5.516   4.659  18.625  0.00  0.00    +0.000 A 
ATOM     15  C   UNL     1       5.032   3.490  19.219  0.00  0.00    +0.000 A 
ATOM     16  C   UNL     1       3.803   3.491  19.897  0.00  0.00    +0.000 A 
ATOM     17  C   UNL     1       3.039   4.663  20.008  0.00  0.00    +0.000 A 
ATOM     18  C   UNL     1       3.504   5.819  19.369  0.00  0.00    +0.000 A 
ATOM     19  C   UNL     1       4.735   5.818  18.698  0.00  0.00    +0.000 A 
BRANCH  17  20
ATOM     20  C   UNL     1       1.713   4.625  20.742  0.00  0.00    +0.000 C 
BRANCH  20  21
ATOM     21  C   UNL     1       1.140   3.246  20.997  0.00  0.00    +0.000 C 
ATOM     22  O   UNL     1       1.333   2.605  22.018  0.00  0.00    +0.000 OA
BRANCH  21  23
ATOM     23  O   UNL     1       0.332   2.793  20.008  0.00  0.00    +0.000 OA
ATOM     24  H   UNL     1      -0.603   3.062  20.113  0.00  0.00    +0.000 HD
ENDBRANCH  21  23
ENDBRANCH  20  21
ENDBRANCH  17  20
ENDBRANCH  13  14
ENDBRANCH   1  13
TORSDOF 9
ENDMDL
MODEL 4
REMARK VINA RESULT:      -6.7      3.865      5.208
REMARK  Name = 
REMARK  9 active torsions:
REMARK  status: ('A' for Active; 'I' for Inactive)
REMARK    1  A    between atoms: C_2  and  O_3
REMARK    2  A    between atoms: C_2  and  C_4
REMARK    3  A    between atoms: C_4  and  C_5
REMARK    4  A    between atoms: C_8  and  S_9
REMARK    5  A    between atoms: S_9  and  S_10
REMARK    6  A    between atoms: S_10  and  C_11
REMARK    7  A    between atoms: C_14  and  C_15
REMARK    8  A    between atoms: C_15  and  C_16
REMARK    9  A    between atoms: C_16  and  O_18
REMARK                            x       y       z     vdW  Elec       q    Type
REMARK                         _______ _______ _______ _____ _____    ______ ____
ROOT
ATOM      1  S   UNL     1       3.656   2.377  20.666  0.00  0.00    +0.000 S 
ENDROOT
BRANCH   1   5
ATOM      2  C   UNL     1       5.166   4.596  16.902  0.00  0.00    +0.000 A 
ATOM      3  C   UNL     1       4.355   3.458  16.792  0.00  0.00    +0.000 A 
ATOM      4  C   UNL     1       3.915   2.784  17.939  0.00  0.00    +0.000 A 
ATOM      5  C   UNL     1       4.276   3.231  19.215  0.00  0.00    +0.000 A 
ATOM      6  C   UNL     1       5.073   4.376  19.325  0.00  0.00    +0.000 A 
ATOM      7  C   UNL     1       5.516   5.053  18.181  0.00  0.00    +0.000 A 
BRANCH   2   8
ATOM      8  C   UNL     1       5.633   5.332  15.663  0.00  0.00    +0.000 C 
BRANCH   8  10
ATOM      9  O   UNL     1       7.882   4.521  15.863  0.00  0.00    +0.000 OA
ATOM     10  C   UNL     1       7.016   4.999  15.140  0.00  0.00    +0.000 C 
BRANCH  10  11
ATOM     11  O   UNL     1       7.256   5.249  13.837  0.00  0.00    +0.000 OA
ATOM     12  H   UNL     1       8.125   4.947  13.509  0.00  0.00    +0.000 HD
ENDBRANCH  10  11
ENDBRANCH   8  10
ENDBRANCH   2   8
ENDBRANCH   1   5
BRANCH   1  13
ATOM     13  S   UNL     1       1.806   3.232  20.946  0.00  0.00    +0.000 S 
BRANCH  13  14
ATOM     14  C   UNL     1       1.867   4.759  20.015  0.00  0.00    +0.000 A 
ATOM     15  C   UNL     1       2.307   5.958  20.583  0.00  0.00    +0.000 A 
ATOM     16  C   UNL     1       2.478   7.103  19.791  0.00  0.00    +0.000 A 
ATOM     17  C   UNL     1       2.225   7.072  18.410  0.00  0.00    +0.000 A 
ATOM     18  C   UNL     1       1.737   5.883  17.854  0.00  0.00    +0.000 A 
ATOM     19  C   UNL     1       1.573   4.738  18.646  0.00  0.00    +0.000 A 
BRANCH  17  20
ATOM     20  C   UNL     1       2.414   8.331  17.587  0.00  0.00    +0.000 C 
BRANCH  20  21
ATOM     21  C   UNL     1       1.613   9.536  18.031  0.00  0.00    +0.000 C 
ATOM     22  O   UNL     1       0.725   9.495  18.868  0.00  0.00    +0.000 OA
BRANCH  21  23
ATOM     23  O   UNL     1       2.004  10.699  17.458  0.00  0.00    +0.000 OA
ATOM     24  H   UNL     1       2.660  11.195  17.987  0.00  0.00    +0.000 HD
ENDBRANCH  21  23
ENDBRANCH  20  21
ENDBRANCH  17  20
ENDBRANCH  13  14
ENDBRANCH   1  13
TORSDOF 9
ENDMDL
MODEL 5
REMARK VINA RESULT:      -6.6      3.438      4.332
REMARK  Name = 
REMARK  9 active torsions:
REMARK  status: ('A' for Active; 'I' for Inactive)
REMARK    1  A    between atoms: C_2  and  O_3
REMARK    2  A    between atoms: C_2  and  C_4
REMARK    3  A    between atoms: C_4  and  C_5
REMARK    4  A    between atoms: C_8  and  S_9
REMARK    5  A    between atoms: S_9  and  S_10
REMARK    6  A    between atoms: S_10  and  C_11
REMARK    7  A    between atoms: C_14  and  C_15
REMARK    8  A    between atoms: C_15  and  C_16
REMARK    9  A    between atoms: C_16  and  O_18
REMARK                            x       y       z     vdW  Elec       q    Type
REMARK                         _______ _______ _______ _____ _____    ______ ____
ROOT
ATOM      1  S   UNL     1       5.487   5.017  18.981  0.00  0.00    +0.000 S 
ENDROOT
BRANCH   1   5
ATOM      2  C   UNL     1       6.316   4.386  14.477  0.00  0.00    +0.000 A 
ATOM      3  C   UNL     1       7.316   4.863  15.335  0.00  0.00    +0.000 A 
ATOM      4  C   UNL     1       7.050   5.065  16.696  0.00  0.00    +0.000 A 
ATOM      5  C   UNL     1       5.784   4.797  17.226  0.00  0.00    +0.000 A 
ATOM      6  C   UNL     1       4.789   4.305  16.372  0.00  0.00    +0.000 A 
ATOM      7  C   UNL     1       5.051   4.102  15.010  0.00  0.00    +0.000 A 
BRANCH   2   8
ATOM      8  C   UNL     1       6.606   4.156  13.008  0.00  0.00    +0.000 C 
BRANCH   8  10
ATOM      9  O   UNL     1       4.568   3.519  11.915  0.00  0.00    +0.000 OA
ATOM     10  C   UNL     1       5.696   3.198  12.265  0.00  0.00    +0.000 C 
BRANCH  10  11
ATOM     11  O   UNL     1       6.184   1.968  12.003  0.00  0.00    +0.000 OA
ATOM     12  H   UNL     1       7.131   1.844  12.208  0.00  0.00    +0.000 HD
ENDBRANCH  10  11
ENDBRANCH   8  10
ENDBRANCH   2   8
ENDBRANCH   1   5
BRANCH   1  13
ATOM     13  S   UNL     1       3.481   4.596  19.163  0.00  0.00    +0.000 S 
BRANCH  13  14
ATOM     14  C   UNL     1       2.677   6.195  19.123  0.00  0.00    +0.000 A 
ATOM     15  C   UNL     1       2.083   6.754  20.258  0.00  0.00    +0.000 A 
ATOM     16  C   UNL     1       1.588   8.067  20.231  0.00  0.00    +0.000 A 
ATOM     17  C   UNL     1       1.688   8.854  19.072  0.00  0.00    +0.000 A 
ATOM     18  C   UNL     1       2.238   8.272  17.923  0.00  0.00    +0.000 A 
ATOM     19  C   UNL     1       2.739   6.963  17.955  0.00  0.00    +0.000 A 
BRANCH  17  20
ATOM     20  C   UNL     1       1.135  10.265  19.077  0.00  0.00    +0.000 C 
BRANCH  20  21
ATOM     21  C   UNL     1      -0.346  10.393  19.363  0.00  0.00    +0.000 C 
ATOM     22  O   UNL     1      -1.223  10.088  18.571  0.00  0.00    +0.000 OA
BRANCH  21  23
ATOM     23  O   UNL     1      -0.630  10.829  20.614  0.00  0.00    +0.000 OA
ATOM     24  H   UNL     1      -1.382  11.455  20.648  0.00  0.00    +0.000 HD
ENDBRANCH  21  23
ENDBRANCH  20  21
ENDBRANCH  17  20
ENDBRANCH  13  14
ENDBRANCH   1  13
TORSDOF 9
ENDMDL
MODEL 6
REMARK VINA RESULT:      -6.6      1.309      8.033
REMARK  Name = 
REMARK  9 active torsions:
REMARK  status: ('A' for Active; 'I' for Inactive)
REMARK    1  A    between atoms: C_2  and  O_3
REMARK    2  A    between atoms: C_2  and  C_4
REMARK    3  A    between atoms: C_4  and  C_5
REMARK    4  A    between atoms: C_8  and  S_9
REMARK    5  A    between atoms: S_9  and  S_10
REMARK    6  A    between atoms: S_10  and  C_11
REMARK    7  A    between atoms: C_14  and  C_15
REMARK    8  A    between atoms: C_15  and  C_16
REMARK    9  A    between atoms: C_16  and  O_18
REMARK                            x       y       z     vdW  Elec       q    Type
REMARK                         _______ _______ _______ _____ _____    ______ ____
ROOT
ATOM      1  S   UNL     1       5.585   6.830  17.206  0.00  0.00    +0.000 S 
ENDROOT
BRANCH   1   5
ATOM      2  C   UNL     1       3.217   3.360  19.135  0.00  0.00    +0.000 A 
ATOM      3  C   UNL     1       4.552   3.605  19.485  0.00  0.00    +0.000 A 
ATOM      4  C   UNL     1       5.265   4.651  18.884  0.00  0.00    +0.000 A 
ATOM      5  C   UNL     1       4.663   5.469  17.922  0.00  0.00    +0.000 A 
ATOM      6  C   UNL     1       3.325   5.234  17.584  0.00  0.00    +0.000 A 
ATOM      7  C   UNL     1       2.608   4.189  18.182  0.00  0.00    +0.000 A 
BRANCH   2   8
ATOM      8  C   UNL     1       2.441   2.237  19.793  0.00  0.00    +0.000 C 
BRANCH   8  10
ATOM      9  O   UNL     1       1.785   2.403  22.094  0.00  0.00    +0.000 OA
ATOM     10  C   UNL     1       1.502   2.614  20.921  0.00  0.00    +0.000 C 
BRANCH  10  11
ATOM     11  O   UNL     1       0.335   3.196  20.579  0.00  0.00    +0.000 OA
ATOM     12  H   UNL     1       0.417   4.062  20.135  0.00  0.00    +0.000 HD
ENDBRANCH  10  11
ENDBRANCH   8  10
ENDBRANCH   2   8
ENDBRANCH   1   5
BRANCH   1  13
ATOM     13  S   UNL     1       7.349   5.939  16.635  0.00  0.00    +0.000 S 
BRANCH  13  14
ATOM     14  C   UNL     1       6.914   4.941  15.216  0.00  0.00    +0.000 A 
ATOM     15  C   UNL     1       5.945   3.936  15.285  0.00  0.00    +0.000 A 
ATOM     16  C   UNL     1       5.525   3.268  14.125  0.00  0.00    +0.000 A 
ATOM     17  C   UNL     1       6.054   3.600  12.867  0.00  0.00    +0.000 A 
ATOM     18  C   UNL     1       7.061   4.572  12.809  0.00  0.00    +0.000 A 
ATOM     19  C   UNL     1       7.474   5.243  13.969  0.00  0.00    +0.000 A 
BRANCH  17  20
ATOM     20  C   UNL     1       5.582   2.852  11.636  0.00  0.00    +0.000 C 
BRANCH  20  21
ATOM     21  C   UNL     1       6.310   1.561  11.328  0.00  0.00    +0.000 C 
ATOM     22  O   UNL     1       5.759   0.480  11.200  0.00  0.00    +0.000 OA
BRANCH  21  23
ATOM     23  O   UNL     1       7.645   1.711  11.147  0.00  0.00    +0.000 OA
ATOM     24  H   UNL     1       8.137   1.865  11.978  0.00  0.00    +0.000 HD
ENDBRANCH  21  23
ENDBRANCH  20  21
ENDBRANCH  17  20
ENDBRANCH  13  14
ENDBRANCH   1  13
TORSDOF 9
ENDMDL
MODEL 7
REMARK VINA RESULT:      -6.5      6.380      9.404
REMARK  Name = 
REMARK  9 active torsions:
REMARK  status: ('A' for Active; 'I' for Inactive)
REMARK    1  A    between atoms: C_2  and  O_3
REMARK    2  A    between atoms: C_2  and  C_4
REMARK    3  A    between atoms: C_4  and  C_5
REMARK    4  A    between atoms: C_8  and  S_9
REMARK    5  A    between atoms: S_9  and  S_10
REMARK    6  A    between atoms: S_10  and  C_11
REMARK    7  A    between atoms: C_14  and  C_15
REMARK    8  A    between atoms: C_15  and  C_16
REMARK    9  A    between atoms: C_16  and  O_18
REMARK                            x       y       z     vdW  Elec       q    Type
REMARK                         _______ _______ _______ _____ _____    ______ ____
ROOT
ATOM      1  S   UNL     1       0.759  10.098  19.558  0.00  0.00    +0.000 S 
ENDROOT
BRANCH   1   5
ATOM      2  C   UNL     1      -3.199  10.998  17.345  0.00  0.00    +0.000 A 
ATOM      3  C   UNL     1      -2.873  11.657  18.538  0.00  0.00    +0.000 A 
ATOM      4  C   UNL     1      -1.678  11.366  19.209  0.00  0.00    +0.000 A 
ATOM      5  C   UNL     1      -0.786  10.414  18.704  0.00  0.00    +0.000 A 
ATOM      6  C   UNL     1      -1.104   9.767  17.504  0.00  0.00    +0.000 A 
ATOM      7  C   UNL     1      -2.298  10.054  16.830  0.00  0.00    +0.000 A 
BRANCH   2   8
ATOM      8  C   UNL     1      -4.485  11.320  16.612  0.00  0.00    +0.000 C 
BRANCH   8  10
ATOM      9  O   UNL     1      -6.383  11.084  18.060  0.00  0.00    +0.000 OA
ATOM     10  C   UNL     1      -5.642  11.839  17.442  0.00  0.00    +0.000 C 
BRANCH  10  11
ATOM     11  O   UNL     1      -5.825  13.175  17.473  0.00  0.00    +0.000 OA
ATOM     12  H   UNL     1      -5.963  13.555  18.362  0.00  0.00    +0.000 HD
ENDBRANCH  10  11
ENDBRANCH   8  10
ENDBRANCH   2   8
ENDBRANCH   1   5
BRANCH   1  13
ATOM     13  S   UNL     1       1.918   9.223  18.100  0.00  0.00    +0.000 S 
BRANCH  13  14
ATOM     14  C   UNL     1       2.310   7.601  18.747  0.00  0.00    +0.000 A 
ATOM     15  C   UNL     1       1.895   7.188  20.016  0.00  0.00    +0.000 A 
ATOM     16  C   UNL     1       2.094   5.865  20.437  0.00  0.00    +0.000 A 
ATOM     17  C   UNL     1       2.701   4.921  19.593  0.00  0.00    +0.000 A 
ATOM     18  C   UNL     1       3.161   5.351  18.342  0.00  0.00    +0.000 A 
ATOM     19  C   UNL     1       2.954   6.672  17.921  0.00  0.00    +0.000 A 
BRANCH  17  20
ATOM     20  C   UNL     1       2.907   3.501  20.084  0.00  0.00    +0.000 C 
BRANCH  20  21
ATOM     21  C   UNL     1       3.845   2.647  19.258  0.00  0.00    +0.000 C 
ATOM     22  O   UNL     1       3.483   1.929  18.339  0.00  0.00    +0.000 OA
BRANCH  21  23
ATOM     23  O   UNL     1       5.152   2.786  19.588  0.00  0.00    +0.000 OA
ATOM     24  H   UNL     1       5.330   2.658  20.542  0.00  0.00    +0.000 HD
ENDBRANCH  21  23
ENDBRANCH  20  21
ENDBRANCH  17  20
ENDBRANCH  13  14
ENDBRANCH   1  13
TORSDOF 9
ENDMDL
MODEL 8
REMARK VINA RESULT:      -6.5      4.219      7.894
REMARK  Name = 
REMARK  9 active torsions:
REMARK  status: ('A' for Active; 'I' for Inactive)
REMARK    1  A    between atoms: C_2  and  O_3
REMARK    2  A    between atoms: C_2  and  C_4
REMARK    3  A    between atoms: C_4  and  C_5
REMARK    4  A    between atoms: C_8  and  S_9
REMARK    5  A    between atoms: S_9  and  S_10
REMARK    6  A    between atoms: S_10  and  C_11
REMARK    7  A    between atoms: C_14  and  C_15
REMARK    8  A    between atoms: C_15  and  C_16
REMARK    9  A    between atoms: C_16  and  O_18
REMARK                            x       y       z     vdW  Elec       q    Type
REMARK                         _______ _______ _______ _____ _____    ______ ____
ROOT
ATOM      1  S   UNL     1       1.564   2.080  18.827  0.00  0.00    +0.000 S 
ENDROOT
BRANCH   1   5
ATOM      2  C   UNL     1       1.852   6.628  19.604  0.00  0.00    +0.000 A 
ATOM      3  C   UNL     1       1.909   5.710  20.662  0.00  0.00    +0.000 A 
ATOM      4  C   UNL     1       1.806   4.334  20.417  0.00  0.00    +0.000 A 
ATOM      5  C   UNL     1       1.644   3.848  19.115  0.00  0.00    +0.000 A 
ATOM      6  C   UNL     1       1.603   4.764  18.057  0.00  0.00    +0.000 A 
ATOM      7  C   UNL     1       1.705   6.141  18.297  0.00  0.00    +0.000 A 
BRANCH   2   8
ATOM      8  C   UNL     1       1.976   8.115  19.866  0.00  0.00    +0.000 C 
BRANCH   8  10
ATOM      9  O   UNL     1      -0.013   9.007  20.868  0.00  0.00    +0.000 OA
ATOM     10  C   UNL     1       1.160   8.686  21.009  0.00  0.00    +0.000 C 
BRANCH  10  11
ATOM     11  O   UNL     1       1.783   8.826  22.197  0.00  0.00    +0.000 OA
ATOM     12  H   UNL     1       2.661   9.252  22.158  0.00  0.00    +0.000 HD
ENDBRANCH  10  11
ENDBRANCH   8  10
ENDBRANCH   2   8
ENDBRANCH   1   5
BRANCH   1  13
ATOM     13  S   UNL     1       3.529   1.585  18.471  0.00  0.00    +0.000 S 
BRANCH  13  14
ATOM     14  C   UNL     1       4.334   3.145  18.124  0.00  0.00    +0.000 A 
ATOM     15  C   UNL     1       4.321   3.719  16.849  0.00  0.00    +0.000 A 
ATOM     16  C   UNL     1       4.836   5.007  16.641  0.00  0.00    +0.000 A 
ATOM     17  C   UNL     1       5.363   5.756  17.706  0.00  0.00    +0.000 A 
ATOM     18  C   UNL     1       5.420   5.158  18.971  0.00  0.00    +0.000 A 
ATOM     19  C   UNL     1       4.898   3.873  19.178  0.00  0.00    +0.000 A 
BRANCH  17  20
ATOM     20  C   UNL     1       5.918   7.142  17.442  0.00  0.00    +0.000 C 
BRANCH  20  21
ATOM     21  C   UNL     1       7.386   7.207  17.079  0.00  0.00    +0.000 C 
ATOM     22  O   UNL     1       7.922   6.471  16.265  0.00  0.00    +0.000 OA
BRANCH  21  23
ATOM     23  O   UNL     1       8.063   8.204  17.698  0.00  0.00    +0.000 OA
ATOM     24  H   UNL     1       7.728   9.098  17.481  0.00  0.00    +0.000 HD
ENDBRANCH  21  23
ENDBRANCH  20  21
ENDBRANCH  17  20
ENDBRANCH  13  14
ENDBRANCH   1  13
TORSDOF 9
ENDMDL
MODEL 9
REMARK VINA RESULT:      -6.5      1.154      1.448
REMARK  Name = 
REMARK  9 active torsions:
REMARK  status: ('A' for Active; 'I' for Inactive)
REMARK    1  A    between atoms: C_2  and  O_3
REMARK    2  A    between atoms: C_2  and  C_4
REMARK    3  A    between atoms: C_4  and  C_5
REMARK    4  A    between atoms: C_8  and  S_9
REMARK    5  A    between atoms: S_9  and  S_10
REMARK    6  A    between atoms: S_10  and  C_11
REMARK    7  A    between atoms: C_14  and  C_15
REMARK    8  A    between atoms: C_15  and  C_16
REMARK    9  A    between atoms: C_16  and  O_18
REMARK                            x       y       z     vdW  Elec       q    Type
REMARK                         _______ _______ _______ _____ _____    ______ ____
ROOT
ATOM      1  S   UNL     1       7.220   5.570  17.248  0.00  0.00    +0.000 S 
ENDROOT
BRANCH   1   5
ATOM      2  C   UNL     1       6.096   3.663  13.190  0.00  0.00    +0.000 A 
ATOM      3  C   UNL     1       5.418   3.312  14.364  0.00  0.00    +0.000 A 
ATOM      4  C   UNL     1       5.776   3.885  15.592  0.00  0.00    +0.000 A 
ATOM      5  C   UNL     1       6.817   4.816  15.672  0.00  0.00    +0.000 A 
ATOM      6  C   UNL     1       7.485   5.178  14.496  0.00  0.00    +0.000 A 
ATOM      7  C   UNL     1       7.130   4.608  13.266  0.00  0.00    +0.000 A 
BRANCH   2   8
ATOM      8  C   UNL     1       5.702   3.053  11.860  0.00  0.00    +0.000 C 
BRANCH   8  10
ATOM      9  O   UNL     1       7.652   1.954  10.997  0.00  0.00    +0.000 OA
ATOM     10  C   UNL     1       6.496   1.851  11.388  0.00  0.00    +0.000 C 
BRANCH  10  11
ATOM     11  O   UNL     1       5.873   0.656  11.417  0.00  0.00    +0.000 OA
ATOM     12  H   UNL     1       5.879   0.163  10.573  0.00  0.00    +0.000 HD
ENDBRANCH  10  11
ENDBRANCH   8  10
ENDBRANCH   2   8
ENDBRANCH   1   5
BRANCH   1  13
ATOM     13  S   UNL     1       5.839   7.087  17.398  0.00  0.00    +0.000 S 
BRANCH  13  14
ATOM     14  C   UNL     1       4.471   6.367  18.300  0.00  0.00    +0.000 A 
ATOM     15  C   UNL     1       3.146   6.745  18.063  0.00  0.00    +0.000 A 
ATOM     16  C   UNL     1       2.088   6.063  18.683  0.00  0.00    +0.000 A 
ATOM     17  C   UNL     1       2.331   4.979  19.542  0.00  0.00    +0.000 A 
ATOM     18  C   UNL     1       3.661   4.636  19.815  0.00  0.00    +0.000 A 
ATOM     19  C   UNL     1       4.716   5.315  19.190  0.00  0.00    +0.000 A 
BRANCH  17  20
ATOM     20  C   UNL     1       1.163   4.270  20.199  0.00  0.00    +0.000 C 
BRANCH  20  21
ATOM     21  C   UNL     1       1.424   2.849  20.652  0.00  0.00    +0.000 C 
ATOM     22  O   UNL     1       1.506   1.895  19.895  0.00  0.00    +0.000 OA
BRANCH  21  23
ATOM     23  O   UNL     1       1.620   2.724  21.987  0.00  0.00    +0.000 OA
ATOM     24  H   UNL     1       0.796   2.556  22.489  0.00  0.00    +0.000 HD
ENDBRANCH  21  23
ENDBRANCH  20  21
ENDBRANCH  17  20
ENDBRANCH  13  14
ENDBRANCH   1  13
TORSDOF 9
ENDMDL
