MODEL 1
REMARK VINA RESULT:      -8.1      0.000      0.000
REMARK  Name = 
REMARK  4 active torsions:
REMARK  status: ('A' for Active; 'I' for Inactive)
REMARK    1  A    between atoms: C_2  and  C_3
REMARK    2  A    between atoms: C_3  and  N_4
REMARK    3  A    between atoms: N_7  and  C_8
REMARK    4  A    between atoms: N_16  and  C_17
REMARK                            x       y       z     vdW  Elec       q    Type
REMARK                         _______ _______ _______ _____ _____    ______ ____
ROOT
ATOM      1  C   UNL     1       4.550   3.975  17.087  0.00  0.00    +0.000 A 
ATOM      2  C   UNL     1       4.212   2.641  17.326  0.00  0.00    +0.000 A 
ATOM      3  C   UNL     1       3.299   2.326  18.339  0.00  0.00    +0.000 A 
ATOM      4  C   UNL     1       2.652   3.304  19.080  0.00  0.00    +0.000 A 
ATOM      5  N   UNL     1       1.758   2.917  19.985  0.00  0.00    +0.000 NA
ATOM      6  C   UNL     1       1.113   3.884  20.642  0.00  0.00    +0.000 A 
ATOM      7  N   UNL     1       1.277   5.196  20.448  0.00  0.00    +0.000 NA
ATOM      8  C   UNL     1       2.183   5.585  19.538  0.00  0.00    +0.000 A 
ATOM      9  N   UNL     1       2.337   6.972  19.243  0.00  0.00    +0.000 N 
ATOM     10  C   UNL     1       2.951   4.648  18.822  0.00  0.00    +0.000 A 
ATOM     11  C   UNL     1       3.953   4.971  17.868  0.00  0.00    +0.000 A 
ATOM     12  H   UNL     1       2.239   7.105  18.241  0.00  0.00    +0.000 HD
ENDROOT
BRANCH   9  13
ATOM     13  C   UNL     1       1.722   8.063  19.912  0.00  0.00    +0.000 A 
ATOM     14  C   UNL     1       1.590   8.125  21.305  0.00  0.00    +0.000 A 
ATOM     15  C   UNL     1       0.983   9.219  21.928  0.00  0.00    +0.000 A 
ATOM     16  C   UNL     1       0.545  10.299  21.167  0.00  0.00    +0.000 A 
ATOM     17  C   UNL     1       0.734  10.285  19.789  0.00  0.00    +0.000 A 
ATOM     18 CL   UNL     1       0.228  11.626  18.843  0.00  0.00    +0.000 Cl
ATOM     19  C   UNL     1       1.329   9.184  19.165  0.00  0.00    +0.000 A 
ENDBRANCH   9  13
BRANCH   1  23
ATOM     20  N   UNL     1       6.389   4.273  14.124  0.00  0.00    +0.000 N 
ATOM     21  C   UNL     1       7.393   4.929  14.940  0.00  0.00    +0.000 C 
ATOM     22  C   UNL     1       6.768   4.947  16.328  0.00  0.00    +0.000 C 
ATOM     23  N   UNL     1       5.459   4.321  16.065  0.00  0.00    +0.000 N 
ATOM     24  N   UNL     1       5.304   3.849  14.820  0.00  0.00    +0.000 NA
BRANCH  20  25
ATOM     25  C   UNL     1       6.488   4.089  12.682  0.00  0.00    +0.000 C 
BRANCH  25  27
ATOM     26 CL   UNL     1       4.207   3.322  11.387  0.00  0.00    +0.000 Cl
ATOM     27  C   UNL     1       5.754   2.864  12.142  0.00  0.00    +0.000 C 
ENDBRANCH  25  27
ENDBRANCH  20  25
ENDBRANCH   1  23
TORSDOF 4
ENDMDL
MODEL 2
REMARK VINA RESULT:      -8.0      1.049      1.410
REMARK  Name = 
REMARK  4 active torsions:
REMARK  status: ('A' for Active; 'I' for Inactive)
REMARK    1  A    between atoms: C_2  and  C_3
REMARK    2  A    between atoms: C_3  and  N_4
REMARK    3  A    between atoms: N_7  and  C_8
REMARK    4  A    between atoms: N_16  and  C_17
REMARK                            x       y       z     vdW  Elec       q    Type
REMARK                         _______ _______ _______ _____ _____    ______ ____
ROOT
ATOM      1  C   UNL     1       4.655   4.153  16.891  0.00  0.00    +0.000 A 
ATOM      2  C   UNL     1       4.427   2.838  17.301  0.00  0.00    +0.000 A 
ATOM      3  C   UNL     1       3.607   2.586  18.407  0.00  0.00    +0.000 A 
ATOM      4  C   UNL     1       2.944   3.602  19.081  0.00  0.00    +0.000 A 
ATOM      5  N   UNL     1       2.142   3.268  20.087  0.00  0.00    +0.000 NA
ATOM      6  C   UNL     1       1.476   4.264  20.678  0.00  0.00    +0.000 A 
ATOM      7  N   UNL     1       1.536   5.552  20.328  0.00  0.00    +0.000 NA
ATOM      8  C   UNL     1       2.350   5.888  19.316  0.00  0.00    +0.000 A 
ATOM      9  N   UNL     1       2.389   7.238  18.858  0.00  0.00    +0.000 N 
ATOM     10  C   UNL     1       3.132   4.923  18.654  0.00  0.00    +0.000 A 
ATOM     11  C   UNL     1       4.044   5.194  17.599  0.00  0.00    +0.000 A 
ATOM     12  H   UNL     1       2.215   7.249  17.858  0.00  0.00    +0.000 HD
ENDROOT
BRANCH   9  13
ATOM     13  C   UNL     1       1.746   8.359  19.446  0.00  0.00    +0.000 A 
ATOM     14  C   UNL     1       1.288   9.452  18.699  0.00  0.00    +0.000 A 
ATOM     15  C   UNL     1       0.654  10.536  19.313  0.00  0.00    +0.000 A 
ATOM     16  C   UNL     1       0.419  10.520  20.685  0.00  0.00    +0.000 A 
ATOM     17  C   UNL     1       0.802   9.409  21.431  0.00  0.00    +0.000 A 
ATOM     18 CL   UNL     1       0.487   9.362  23.117  0.00  0.00    +0.000 Cl
ATOM     19  C   UNL     1       1.448   8.332  20.817  0.00  0.00    +0.000 A 
ENDBRANCH   9  13
BRANCH   1  23
ATOM     20  N   UNL     1       6.358   4.148  13.833  0.00  0.00    +0.000 N 
ATOM     21  C   UNL     1       7.240   5.124  14.445  0.00  0.00    +0.000 C 
ATOM     22  C   UNL     1       6.646   5.318  15.834  0.00  0.00    +0.000 C 
ATOM     23  N   UNL     1       5.468   4.434  15.772  0.00  0.00    +0.000 N 
ATOM     24  N   UNL     1       5.381   3.695  14.657  0.00  0.00    +0.000 NA
BRANCH  20  25
ATOM     25  C   UNL     1       6.463   3.690  12.454  0.00  0.00    +0.000 C 
BRANCH  25  27
ATOM     26 CL   UNL     1       4.068   3.401  11.172  0.00  0.00    +0.000 Cl
ATOM     27  C   UNL     1       5.426   2.648  12.045  0.00  0.00    +0.000 C 
ENDBRANCH  25  27
ENDBRANCH  20  25
ENDBRANCH   1  23
TORSDOF 4
ENDMDL
MODEL 3
REMARK VINA RESULT:      -7.9      1.877      8.306
REMARK  Name = 
REMARK  4 active torsions:
REMARK  status: ('A' for Active; 'I' for Inactive)
REMARK    1  A    between atoms: C_2  and  C_3
REMARK    2  A    between atoms: C_3  and  N_4
REMARK    3  A    between atoms: N_7  and  C_8
REMARK    4  A    between atoms: N_16  and  C_17
REMARK                            x       y       z     vdW  Elec       q    Type
REMARK                         _______ _______ _______ _____ _____    ______ ____
ROOT
ATOM      1  C   UNL     1       1.955   7.291  19.642  0.00  0.00    +0.000 A 
ATOM      2  C   UNL     1       1.638   6.483  20.736  0.00  0.00    +0.000 A 
ATOM      3  C   UNL     1       2.063   5.149  20.762  0.00  0.00    +0.000 A 
ATOM      4  C   UNL     1       2.860   4.609  19.763  0.00  0.00    +0.000 A 
ATOM      5  N   UNL     1       3.263   3.349  19.895  0.00  0.00    +0.000 NA
ATOM      6  C   UNL     1       4.074   2.877  18.945  0.00  0.00    +0.000 A 
ATOM      7  N   UNL     1       4.524   3.569  17.895  0.00  0.00    +0.000 NA
ATOM      8  C   UNL     1       4.112   4.840  17.760  0.00  0.00    +0.000 A 
ATOM      9  N   UNL     1       4.626   5.640  16.698  0.00  0.00    +0.000 N 
ATOM     10  C   UNL     1       3.220   5.421  18.680  0.00  0.00    +0.000 A 
ATOM     11  C   UNL     1       2.706   6.743  18.596  0.00  0.00    +0.000 A 
ATOM     12  H   UNL     1       5.009   6.495  17.090  0.00  0.00    +0.000 HD
ENDROOT
BRANCH   9  13
ATOM     13  C   UNL     1       5.459   5.213  15.630  0.00  0.00    +0.000 A 
ATOM     14  C   UNL     1       6.854   5.337  15.656  0.00  0.00    +0.000 A 
ATOM     15  C   UNL     1       7.641   4.900  14.587  0.00  0.00    +0.000 A 
ATOM     16  C   UNL     1       7.047   4.280  13.492  0.00  0.00    +0.000 A 
ATOM     17  C   UNL     1       5.669   4.084  13.483  0.00  0.00    +0.000 A 
ATOM     18 CL   UNL     1       4.928   3.290  12.153  0.00  0.00    +0.000 Cl
ATOM     19  C   UNL     1       4.881   4.534  14.547  0.00  0.00    +0.000 A 
ENDBRANCH   9  13
BRANCH   1  23
ATOM     20  N   UNL     1       0.513  10.433  20.187  0.00  0.00    +0.000 N 
ATOM     21  C   UNL     1       0.903  10.730  18.822  0.00  0.00    +0.000 C 
ATOM     22  C   UNL     1       1.613   9.461  18.371  0.00  0.00    +0.000 C 
ATOM     23  N   UNL     1       1.549   8.642  19.596  0.00  0.00    +0.000 N 
ATOM     24  N   UNL     1       0.824   9.175  20.589  0.00  0.00    +0.000 NA
BRANCH  20  25
ATOM     25  C   UNL     1      -0.135  11.380  21.086  0.00  0.00    +0.000 C 
BRANCH  25  27
ATOM     26 CL   UNL     1      -1.916  11.631  23.143  0.00  0.00    +0.000 Cl
ATOM     27  C   UNL     1      -0.483  10.820  22.463  0.00  0.00    +0.000 C 
ENDBRANCH  25  27
ENDBRANCH  20  25
ENDBRANCH   1  23
TORSDOF 4
ENDMDL
MODEL 4
REMARK VINA RESULT:      -7.6      1.586      7.722
REMARK  Name = 
REMARK  4 active torsions:
REMARK  status: ('A' for Active; 'I' for Inactive)
REMARK    1  A    between atoms: C_2  and  C_3
REMARK    2  A    between atoms: C_3  and  N_4
REMARK    3  A    between atoms: N_7  and  C_8
REMARK    4  A    between atoms: N_16  and  C_17
REMARK                            x       y       z     vdW  Elec       q    Type
REMARK                         _______ _______ _______ _____ _____    ______ ____
ROOT
ATOM      1  C   UNL     1       1.868   6.732  20.048  0.00  0.00    +0.000 A 
ATOM      2  C   UNL     1       1.540   5.802  21.037  0.00  0.00    +0.000 A 
ATOM      3  C   UNL     1       1.964   4.473  20.910  0.00  0.00    +0.000 A 
ATOM      4  C   UNL     1       2.769   4.053  19.861  0.00  0.00    +0.000 A 
ATOM      5  N   UNL     1       3.171   2.786  19.847  0.00  0.00    +0.000 NA
ATOM      6  C   UNL     1       3.989   2.428  18.855  0.00  0.00    +0.000 A 
ATOM      7  N   UNL     1       4.449   3.238  17.898  0.00  0.00    +0.000 NA
ATOM      8  C   UNL     1       4.039   4.516  17.910  0.00  0.00    +0.000 A 
ATOM      9  N   UNL     1       4.563   5.435  16.954  0.00  0.00    +0.000 N 
ATOM     10  C   UNL     1       3.139   4.986  18.884  0.00  0.00    +0.000 A 
ATOM     11  C   UNL     1       2.627   6.310  18.951  0.00  0.00    +0.000 A 
ATOM     12  H   UNL     1       4.943   6.238  17.446  0.00  0.00    +0.000 HD
ENDROOT
BRANCH   9  13
ATOM     13  C   UNL     1       5.404   5.135  15.850  0.00  0.00    +0.000 A 
ATOM     14  C   UNL     1       6.789   5.346  15.869  0.00  0.00    +0.000 A 
ATOM     15  C   UNL     1       7.586   5.033  14.764  0.00  0.00    +0.000 A 
ATOM     16  C   UNL     1       7.015   4.451  13.636  0.00  0.00    +0.000 A 
ATOM     17  C   UNL     1       5.653   4.169  13.629  0.00  0.00    +0.000 A 
ATOM     18 CL   UNL     1       4.943   3.420  12.256  0.00  0.00    +0.000 Cl
ATOM     19  C   UNL     1       4.854   4.495  14.729  0.00  0.00    +0.000 A 
ENDBRANCH   9  13
BRANCH   1  23
ATOM     20  N   UNL     1       1.206  10.137  19.580  0.00  0.00    +0.000 N 
ATOM     21  C   UNL     1       0.988  10.182  21.014  0.00  0.00    +0.000 C 
ATOM     22  C   UNL     1       1.196   8.738  21.450  0.00  0.00    +0.000 C 
ATOM     23  N   UNL     1       1.463   8.080  20.158  0.00  0.00    +0.000 N 
ATOM     24  N   UNL     1       1.568   8.915  19.115  0.00  0.00    +0.000 NA
BRANCH  20  25
ATOM     25  C   UNL     1       1.039  11.274  18.684  0.00  0.00    +0.000 C 
BRANCH  25  27
ATOM     26 CL   UNL     1      -1.583  10.729  18.144  0.00  0.00    +0.000 Cl
ATOM     27  C   UNL     1      -0.355  11.896  18.694  0.00  0.00    +0.000 C 
ENDBRANCH  25  27
ENDBRANCH  20  25
ENDBRANCH   1  23
TORSDOF 4
ENDMDL
MODEL 5
REMARK VINA RESULT:      -7.6      1.730      8.186
REMARK  Name = 
REMARK  4 active torsions:
REMARK  status: ('A' for Active; 'I' for Inactive)
REMARK    1  A    between atoms: C_2  and  C_3
REMARK    2  A    between atoms: C_3  and  N_4
REMARK    3  A    between atoms: N_7  and  C_8
REMARK    4  A    between atoms: N_16  and  C_17
REMARK                            x       y       z     vdW  Elec       q    Type
REMARK                         _______ _______ _______ _____ _____    ______ ____
ROOT
ATOM      1  C   UNL     1       2.007   7.170  19.671  0.00  0.00    +0.000 A 
ATOM      2  C   UNL     1       1.682   6.338  20.745  0.00  0.00    +0.000 A 
ATOM      3  C   UNL     1       2.087   4.997  20.733  0.00  0.00    +0.000 A 
ATOM      4  C   UNL     1       2.870   4.472  19.715  0.00  0.00    +0.000 A 
ATOM      5  N   UNL     1       3.255   3.204  19.811  0.00  0.00    +0.000 NA
ATOM      6  C   UNL     1       4.053   2.745  18.843  0.00  0.00    +0.000 A 
ATOM      7  N   UNL     1       4.508   3.458  17.810  0.00  0.00    +0.000 NA
ATOM      8  C   UNL     1       4.115   4.738  17.711  0.00  0.00    +0.000 A 
ATOM      9  N   UNL     1       4.635   5.559  16.668  0.00  0.00    +0.000 N 
ATOM     10  C   UNL     1       3.237   5.308  18.652  0.00  0.00    +0.000 A 
ATOM     11  C   UNL     1       2.743   6.639  18.606  0.00  0.00    +0.000 A 
ATOM     12  H   UNL     1       5.034   6.397  17.081  0.00  0.00    +0.000 HD
ENDROOT
BRANCH   9  13
ATOM     13  C   UNL     1       5.456   5.148  15.585  0.00  0.00    +0.000 A 
ATOM     14  C   UNL     1       6.849   5.284  15.590  0.00  0.00    +0.000 A 
ATOM     15  C   UNL     1       7.624   4.863  14.506  0.00  0.00    +0.000 A 
ATOM     16  C   UNL     1       7.019   4.246  13.415  0.00  0.00    +0.000 A 
ATOM     17  C   UNL     1       5.643   4.039  13.425  0.00  0.00    +0.000 A 
ATOM     18 CL   UNL     1       4.888   3.250  12.100  0.00  0.00    +0.000 Cl
ATOM     19  C   UNL     1       4.867   4.473  14.504  0.00  0.00    +0.000 A 
ENDBRANCH   9  13
BRANCH   1  23
ATOM     20  N   UNL     1       0.731  10.351  20.382  0.00  0.00    +0.000 N 
ATOM     21  C   UNL     1       0.888  10.613  18.964  0.00  0.00    +0.000 C 
ATOM     22  C   UNL     1       1.489   9.321  18.428  0.00  0.00    +0.000 C 
ATOM     23  N   UNL     1       1.621   8.528  19.664  0.00  0.00    +0.000 N 
ATOM     24  N   UNL     1       1.085   9.095  20.753  0.00  0.00    +0.000 NA
BRANCH  20  25
ATOM     25  C   UNL     1       0.262  11.328  21.356  0.00  0.00    +0.000 C 
BRANCH  25  27
ATOM     26 CL   UNL     1       1.961  13.416  20.890  0.00  0.00    +0.000 Cl
ATOM     27  C   UNL     1       0.299  12.777  20.876  0.00  0.00    +0.000 C 
ENDBRANCH  25  27
ENDBRANCH  20  25
ENDBRANCH   1  23
TORSDOF 4
ENDMDL
MODEL 6
REMARK VINA RESULT:      -7.6      3.033      4.978
REMARK  Name = 
REMARK  4 active torsions:
REMARK  status: ('A' for Active; 'I' for Inactive)
REMARK    1  A    between atoms: C_2  and  C_3
REMARK    2  A    between atoms: C_3  and  N_4
REMARK    3  A    between atoms: N_7  and  C_8
REMARK    4  A    between atoms: N_16  and  C_17
REMARK                            x       y       z     vdW  Elec       q    Type
REMARK                         _______ _______ _______ _____ _____    ______ ____
ROOT
ATOM      1  C   UNL     1       6.034   4.110  13.847  0.00  0.00    +0.000 A 
ATOM      2  C   UNL     1       7.319   4.651  13.922  0.00  0.00    +0.000 A 
ATOM      3  C   UNL     1       7.761   5.230  15.118  0.00  0.00    +0.000 A 
ATOM      4  C   UNL     1       6.988   5.223  16.271  0.00  0.00    +0.000 A 
ATOM      5  N   UNL     1       7.508   5.746  17.377  0.00  0.00    +0.000 NA
ATOM      6  C   UNL     1       6.760   5.674  18.481  0.00  0.00    +0.000 A 
ATOM      7  N   UNL     1       5.555   5.106  18.567  0.00  0.00    +0.000 NA
ATOM      8  C   UNL     1       5.029   4.583  17.447  0.00  0.00    +0.000 A 
ATOM      9  N   UNL     1       3.780   3.899  17.507  0.00  0.00    +0.000 N 
ATOM     10  C   UNL     1       5.713   4.646  16.219  0.00  0.00    +0.000 A 
ATOM     11  C   UNL     1       5.218   4.151  14.982  0.00  0.00    +0.000 A 
ATOM     12  H   UNL     1       3.894   2.974  17.103  0.00  0.00    +0.000 HD
ENDROOT
BRANCH   9  13
ATOM     13  C   UNL     1       2.907   3.805  18.623  0.00  0.00    +0.000 A 
ATOM     14  C   UNL     1       2.510   2.583  19.179  0.00  0.00    +0.000 A 
ATOM     15  C   UNL     1       1.653   2.531  20.282  0.00  0.00    +0.000 A 
ATOM     16  C   UNL     1       1.220   3.709  20.883  0.00  0.00    +0.000 A 
ATOM     17  C   UNL     1       1.664   4.932  20.388  0.00  0.00    +0.000 A 
ATOM     18 CL   UNL     1       1.164   6.391  21.142  0.00  0.00    +0.000 Cl
ATOM     19  C   UNL     1       2.510   4.982  19.276  0.00  0.00    +0.000 A 
ENDBRANCH   9  13
BRANCH   1  23
ATOM     20  N   UNL     1       4.188   3.021  11.079  0.00  0.00    +0.000 N 
ATOM     21  C   UNL     1       5.199   1.989  10.947  0.00  0.00    +0.000 C 
ATOM     22  C   UNL     1       6.172   2.297  12.076  0.00  0.00    +0.000 C 
ATOM     23  N   UNL     1       5.568   3.510  12.657  0.00  0.00    +0.000 N 
ATOM     24  N   UNL     1       4.379   3.847  12.138  0.00  0.00    +0.000 NA
BRANCH  20  25
ATOM     25  C   UNL     1       3.070   3.204  10.164  0.00  0.00    +0.000 C 
BRANCH  25  27
ATOM     26 CL   UNL     1       1.732   5.191   8.849  0.00  0.00    +0.000 Cl
ATOM     27  C   UNL     1       3.258   4.318   9.137  0.00  0.00    +0.000 C 
ENDBRANCH  25  27
ENDBRANCH  20  25
ENDBRANCH   1  23
TORSDOF 4
ENDMDL
MODEL 7
REMARK VINA RESULT:      -7.5      1.877      8.049
REMARK  Name = 
REMARK  4 active torsions:
REMARK  status: ('A' for Active; 'I' for Inactive)
REMARK    1  A    between atoms: C_2  and  C_3
REMARK    2  A    between atoms: C_3  and  N_4
REMARK    3  A    between atoms: N_7  and  C_8
REMARK    4  A    between atoms: N_16  and  C_17
REMARK                            x       y       z     vdW  Elec       q    Type
REMARK                         _______ _______ _______ _____ _____    ______ ____
ROOT
ATOM      1  C   UNL     1       1.926   7.537  19.540  0.00  0.00    +0.000 A 
ATOM      2  C   UNL     1       1.608   6.781  20.670  0.00  0.00    +0.000 A 
ATOM      3  C   UNL     1       2.036   5.451  20.760  0.00  0.00    +0.000 A 
ATOM      4  C   UNL     1       2.837   4.866  19.790  0.00  0.00    +0.000 A 
ATOM      5  N   UNL     1       3.243   3.615  19.983  0.00  0.00    +0.000 NA
ATOM      6  C   UNL     1       4.057   3.101  19.057  0.00  0.00    +0.000 A 
ATOM      7  N   UNL     1       4.509   3.744  17.977  0.00  0.00    +0.000 NA
ATOM      8  C   UNL     1       4.094   5.005  17.781  0.00  0.00    +0.000 A 
ATOM      9  N   UNL     1       4.608   5.756  16.684  0.00  0.00    +0.000 N 
ATOM     10  C   UNL     1       3.198   5.627  18.671  0.00  0.00    +0.000 A 
ATOM     11  C   UNL     1       2.681   6.942  18.523  0.00  0.00    +0.000 A 
ATOM     12  H   UNL     1       4.988   6.630  17.036  0.00  0.00    +0.000 HD
ENDROOT
BRANCH   9  13
ATOM     13  C   UNL     1       5.445   5.281  15.640  0.00  0.00    +0.000 A 
ATOM     14  C   UNL     1       6.842   5.362  15.687  0.00  0.00    +0.000 A 
ATOM     15  C   UNL     1       7.633   4.879  14.641  0.00  0.00    +0.000 A 
ATOM     16  C   UNL     1       7.038   4.254  13.549  0.00  0.00    +0.000 A 
ATOM     17  C   UNL     1       5.655   4.100  13.520  0.00  0.00    +0.000 A 
ATOM     18 CL   UNL     1       4.911   3.301  12.195  0.00  0.00    +0.000 Cl
ATOM     19  C   UNL     1       4.864   4.597  14.561  0.00  0.00    +0.000 A 
ENDBRANCH   9  13
BRANCH   1  23
ATOM     20  N   UNL     1       0.282  10.622  19.721  0.00  0.00    +0.000 N 
ATOM     21  C   UNL     1       1.110  11.007  18.593  0.00  0.00    +0.000 C 
ATOM     22  C   UNL     1       1.973   9.777  18.349  0.00  0.00    +0.000 C 
ATOM     23  N   UNL     1       1.517   8.883  19.429  0.00  0.00    +0.000 N 
ATOM     24  N   UNL     1       0.477   9.345  20.136  0.00  0.00    +0.000 NA
BRANCH  20  25
ATOM     25  C   UNL     1      -0.666  11.503  20.389  0.00  0.00    +0.000 C 
BRANCH  25  27
ATOM     26 CL   UNL     1      -2.498  10.906  18.451  0.00  0.00    +0.000 Cl
ATOM     27  C   UNL     1      -1.709  12.135  19.470  0.00  0.00    +0.000 C 
ENDBRANCH  25  27
ENDBRANCH  20  25
ENDBRANCH   1  23
TORSDOF 4
ENDMDL
MODEL 8
REMARK VINA RESULT:      -7.5      1.597      7.768
REMARK  Name = 
REMARK  4 active torsions:
REMARK  status: ('A' for Active; 'I' for Inactive)
REMARK    1  A    between atoms: C_2  and  C_3
REMARK    2  A    between atoms: C_3  and  N_4
REMARK    3  A    between atoms: N_7  and  C_8
REMARK    4  A    between atoms: N_16  and  C_17
REMARK                            x       y       z     vdW  Elec       q    Type
REMARK                         _______ _______ _______ _____ _____    ______ ____
ROOT
ATOM      1  C   UNL     1       1.878   6.640  20.013  0.00  0.00    +0.000 A 
ATOM      2  C   UNL     1       1.533   5.694  20.981  0.00  0.00    +0.000 A 
ATOM      3  C   UNL     1       1.938   4.362  20.827  0.00  0.00    +0.000 A 
ATOM      4  C   UNL     1       2.742   3.952  19.773  0.00  0.00    +0.000 A 
ATOM      5  N   UNL     1       3.126   2.680  19.734  0.00  0.00    +0.000 NA
ATOM      6  C   UNL     1       3.944   2.331  18.738  0.00  0.00    +0.000 A 
ATOM      7  N   UNL     1       4.419   3.155  17.800  0.00  0.00    +0.000 NA
ATOM      8  C   UNL     1       4.027   4.438  17.837  0.00  0.00    +0.000 A 
ATOM      9  N   UNL     1       4.567   5.369  16.903  0.00  0.00    +0.000 N 
ATOM     10  C   UNL     1       3.130   4.901  18.817  0.00  0.00    +0.000 A 
ATOM     11  C   UNL     1       2.636   6.230  18.911  0.00  0.00    +0.000 A 
ATOM     12  H   UNL     1       4.957   6.156  17.414  0.00  0.00    +0.000 HD
ENDROOT
BRANCH   9  13
ATOM     13  C   UNL     1       5.410   5.081  15.797  0.00  0.00    +0.000 A 
ATOM     14  C   UNL     1       6.794   5.295  15.817  0.00  0.00    +0.000 A 
ATOM     15  C   UNL     1       7.591   4.993  14.710  0.00  0.00    +0.000 A 
ATOM     16  C   UNL     1       7.022   4.420  13.577  0.00  0.00    +0.000 A 
ATOM     17  C   UNL     1       5.660   4.134  13.567  0.00  0.00    +0.000 A 
ATOM     18 CL   UNL     1       4.951   3.396  12.188  0.00  0.00    +0.000 Cl
ATOM     19  C   UNL     1       4.861   4.449  14.670  0.00  0.00    +0.000 A 
ENDBRANCH   9  13
BRANCH   1  23
ATOM     20  N   UNL     1       1.252  10.059  19.607  0.00  0.00    +0.000 N 
ATOM     21  C   UNL     1       1.056  10.084  21.045  0.00  0.00    +0.000 C 
ATOM     22  C   UNL     1       1.253   8.632  21.456  0.00  0.00    +0.000 C 
ATOM     23  N   UNL     1       1.492   7.990  20.150  0.00  0.00    +0.000 N 
ATOM     24  N   UNL     1       1.591   8.840  19.118  0.00  0.00    +0.000 NA
BRANCH  20  25
ATOM     25  C   UNL     1       1.085  11.211  18.731  0.00  0.00    +0.000 C 
BRANCH  25  27
ATOM     26 CL   UNL     1       2.312  13.549  18.028  0.00  0.00    +0.000 Cl
ATOM     27  C   UNL     1       1.598  12.530  19.303  0.00  0.00    +0.000 C 
ENDBRANCH  25  27
ENDBRANCH  20  25
ENDBRANCH   1  23
TORSDOF 4
ENDMDL
MODEL 9
REMARK VINA RESULT:      -7.5      1.766      2.078
REMARK  Name = 
REMARK  4 active torsions:
REMARK  status: ('A' for Active; 'I' for Inactive)
REMARK    1  A    between atoms: C_2  and  C_3
REMARK    2  A    between atoms: C_3  and  N_4
REMARK    3  A    between atoms: N_7  and  C_8
REMARK    4  A    between atoms: N_16  and  C_17
REMARK                            x       y       z     vdW  Elec       q    Type
REMARK                         _______ _______ _______ _____ _____    ______ ____
ROOT
ATOM      1  C   UNL     1       4.830   4.849  16.844  0.00  0.00    +0.000 A 
ATOM      2  C   UNL     1       4.788   3.748  17.702  0.00  0.00    +0.000 A 
ATOM      3  C   UNL     1       4.094   3.836  18.914  0.00  0.00    +0.000 A 
ATOM      4  C   UNL     1       3.374   4.967  19.272  0.00  0.00    +0.000 A 
ATOM      5  N   UNL     1       2.698   4.945  20.416  0.00  0.00    +0.000 NA
ATOM      6  C   UNL     1       1.971   6.028  20.704  0.00  0.00    +0.000 A 
ATOM      7  N   UNL     1       1.853   7.111  19.931  0.00  0.00    +0.000 NA
ATOM      8  C   UNL     1       2.540   7.134  18.778  0.00  0.00    +0.000 A 
ATOM      9  N   UNL     1       2.385   8.235  17.886  0.00  0.00    +0.000 N 
ATOM     10  C   UNL     1       3.373   6.064  18.401  0.00  0.00    +0.000 A 
ATOM     11  C   UNL     1       4.161   6.020  17.219  0.00  0.00    +0.000 A 
ATOM     12  H   UNL     1       2.132   7.880  16.969  0.00  0.00    +0.000 HD
ENDROOT
BRANCH   9  13
ATOM     13  C   UNL     1       1.666   9.436  18.125  0.00  0.00    +0.000 A 
ATOM     14  C   UNL     1       2.293  10.669  18.344  0.00  0.00    +0.000 A 
ATOM     15  C   UNL     1       1.550  11.831  18.571  0.00  0.00    +0.000 A 
ATOM     16  C   UNL     1       0.159  11.788  18.527  0.00  0.00    +0.000 A 
ATOM     17  C   UNL     1      -0.478  10.585  18.239  0.00  0.00    +0.000 A 
ATOM     18 CL   UNL     1      -2.192  10.526  18.149  0.00  0.00    +0.000 Cl
ATOM     19  C   UNL     1       0.266   9.421  18.026  0.00  0.00    +0.000 A 
ENDBRANCH   9  13
BRANCH   1  23
ATOM     20  N   UNL     1       5.982   4.094  13.626  0.00  0.00    +0.000 N 
ATOM     21  C   UNL     1       7.190   4.799  14.010  0.00  0.00    +0.000 C 
ATOM     22  C   UNL     1       6.892   5.270  15.427  0.00  0.00    +0.000 C 
ATOM     23  N   UNL     1       5.513   4.783  15.611  0.00  0.00    +0.000 N 
ATOM     24  N   UNL     1       5.049   4.023  14.609  0.00  0.00    +0.000 NA
BRANCH  20  25
ATOM     25  C   UNL     1       5.743   3.521  12.308  0.00  0.00    +0.000 C 
BRANCH  25  27
ATOM     26 CL   UNL     1       6.496   1.224  11.035  0.00  0.00    +0.000 Cl
ATOM     27  C   UNL     1       6.948   2.819  11.688  0.00  0.00    +0.000 C 
ENDBRANCH  25  27
ENDBRANCH  20  25
ENDBRANCH   1  23
TORSDOF 4
ENDMDL
