MODEL 1
REMARK VINA RESULT:      -7.8      0.000      0.000
REMARK  Name = 
REMARK  11 active torsions:
REMARK  status: ('A' for Active; 'I' for Inactive)
REMARK    1  A    between atoms: C_1  and  C_2
REMARK    2  A    between atoms: C_2  and  C_3
REMARK    3  A    between atoms: C_3  and  C_4
REMARK    4  A    between atoms: C_3  and  C_5
REMARK    5  A    between atoms: C_3  and  C_6
REMARK    6  A    between atoms: C_9  and  C_10
REMARK    7  A    between atoms: C_12  and  C_13
REMARK    8  A    between atoms: C_16  and  C_17
REMARK    9  A    between atoms: C_17  and  N_18
REMARK   10  A    between atoms: C_20  and  C_21
REMARK   11  A    between atoms: C_21  and  O_23
REMARK                            x       y       z     vdW  Elec       q    Type
REMARK                         _______ _______ _______ _____ _____    ______ ____
ROOT
ATOM      1  C   UNL     1      -0.312  11.024  20.443  0.00  0.00    +0.000 A 
ATOM      2  N   UNL     1       0.080   9.772  20.389  0.00  0.00    +0.000 NA
ATOM      3  C   UNL     1       1.098   9.819  19.464  0.00  0.00    +0.000 A 
ATOM      4  N   UNL     1       1.318  11.042  18.952  0.00  0.00    +0.000 NA
ATOM      5  O   UNL     1       0.381  11.842  19.601  0.00  0.00    +0.000 OA
ENDROOT
BRANCH   1   9
ATOM      6  C   UNL     1      -3.489  12.767  22.742  0.00  0.00    +0.000 A 
ATOM      7  C   UNL     1      -2.462  12.034  23.363  0.00  0.00    +0.000 A 
ATOM      8  C   UNL     1      -1.418  11.472  22.625  0.00  0.00    +0.000 A 
ATOM      9  C   UNL     1      -1.360  11.634  21.240  0.00  0.00    +0.000 A 
ATOM     10  C   UNL     1      -2.353  12.392  20.612  0.00  0.00    +0.000 A 
ATOM     11  C   UNL     1      -3.393  12.961  21.353  0.00  0.00    +0.000 A 
BRANCH   6  12
ATOM     12  C   UNL     1      -4.644  13.378  23.564  0.00  0.00    +0.000 C 
ATOM     13  C   UNL     1      -4.225  14.731  24.190  0.00  0.00    +0.000 C 
ATOM     14  C   UNL     1      -5.044  12.465  24.747  0.00  0.00    +0.000 C 
BRANCH  12  16
ATOM     15  C   UNL     1      -7.092  12.756  22.914  0.00  0.00    +0.000 C 
ATOM     16  C   UNL     1      -5.843  13.569  22.592  0.00  0.00    +0.000 C 
ENDBRANCH  12  16
ENDBRANCH   6  12
ENDBRANCH   1   9
BRANCH   3  17
ATOM     17  C   UNL     1       1.819   8.626  19.047  0.00  0.00    +0.000 A 
ATOM     18  C   UNL     1       2.404   8.554  17.775  0.00  0.00    +0.000 A 
ATOM     19  C   UNL     1       3.176   7.448  17.408  0.00  0.00    +0.000 A 
ATOM     20  C   UNL     1       3.396   6.402  18.312  0.00  0.00    +0.000 A 
ATOM     21  C   UNL     1       2.750   6.446  19.557  0.00  0.00    +0.000 A 
ATOM     22  C   UNL     1       1.973   7.545  19.923  0.00  0.00    +0.000 A 
BRANCH  20  23
ATOM     23  C   UNL     1       4.269   5.206  17.983  0.00  0.00    +0.000 C 
BRANCH  23  24
ATOM     24  N   UNL     1       4.873   5.211  16.633  0.00  0.00    +0.000 NA
ATOM     25  C   UNL     1       6.220   5.836  16.654  0.00  0.00    +0.000 C 
ATOM     26  C   UNL     1       6.764   4.617  15.888  0.00  0.00    +0.000 C 
ATOM     27  C   UNL     1       5.501   3.889  16.382  0.00  0.00    +0.000 C 
BRANCH  26  28
ATOM     28  C   UNL     1       6.982   4.755  14.367  0.00  0.00    +0.000 C 
ATOM     29  O   UNL     1       6.251   4.276  13.502  0.00  0.00    +0.000 OA
BRANCH  28  30
ATOM     30  O   UNL     1       8.075   5.488  14.013  0.00  0.00    +0.000 OA
ATOM     31  H   UNL     1       8.299   5.371  13.067  0.00  0.00    +0.000 HD
ENDBRANCH  28  30
ENDBRANCH  26  28
ENDBRANCH  23  24
ENDBRANCH  20  23
ENDBRANCH   3  17
TORSDOF 8
ENDMDL
MODEL 2
REMARK VINA RESULT:      -7.8      1.518      2.063
REMARK  Name = 
REMARK  11 active torsions:
REMARK  status: ('A' for Active; 'I' for Inactive)
REMARK    1  A    between atoms: C_1  and  C_2
REMARK    2  A    between atoms: C_2  and  C_3
REMARK    3  A    between atoms: C_3  and  C_4
REMARK    4  A    between atoms: C_3  and  C_5
REMARK    5  A    between atoms: C_3  and  C_6
REMARK    6  A    between atoms: C_9  and  C_10
REMARK    7  A    between atoms: C_12  and  C_13
REMARK    8  A    between atoms: C_16  and  C_17
REMARK    9  A    between atoms: C_17  and  N_18
REMARK   10  A    between atoms: C_20  and  C_21
REMARK   11  A    between atoms: C_21  and  O_23
REMARK                            x       y       z     vdW  Elec       q    Type
REMARK                         _______ _______ _______ _____ _____    ______ ____
ROOT
ATOM      1  C   UNL     1      -0.417  10.577  21.910  0.00  0.00    +0.000 A 
ATOM      2  N   UNL     1      -0.179   9.811  20.870  0.00  0.00    +0.000 NA
ATOM      3  C   UNL     1       0.853   9.017  21.316  0.00  0.00    +0.000 A 
ATOM      4  N   UNL     1       1.251   9.288  22.571  0.00  0.00    +0.000 NA
ATOM      5  O   UNL     1       0.409  10.324  22.964  0.00  0.00    +0.000 OA
ENDROOT
BRANCH   1   9
ATOM      6  C   UNL     1      -3.381  13.652  22.327  0.00  0.00    +0.000 A 
ATOM      7  C   UNL     1      -3.051  12.811  23.405  0.00  0.00    +0.000 A 
ATOM      8  C   UNL     1      -2.080  11.815  23.283  0.00  0.00    +0.000 A 
ATOM      9  C   UNL     1      -1.397  11.633  22.079  0.00  0.00    +0.000 A 
ATOM     10  C   UNL     1      -1.687  12.485  21.009  0.00  0.00    +0.000 A 
ATOM     11  C   UNL     1      -2.653  13.487  21.135  0.00  0.00    +0.000 A 
BRANCH   6  12
ATOM     12  C   UNL     1      -4.462  14.746  22.468  0.00  0.00    +0.000 C 
ATOM     13  C   UNL     1      -3.818  16.137  22.686  0.00  0.00    +0.000 C 
ATOM     14  C   UNL     1      -5.367  14.495  23.697  0.00  0.00    +0.000 C 
BRANCH  12  16
ATOM     15  C   UNL     1      -6.139  13.475  20.928  0.00  0.00    +0.000 C 
ATOM     16  C   UNL     1      -5.301  14.728  21.159  0.00  0.00    +0.000 C 
ENDBRANCH  12  16
ENDBRANCH   6  12
ENDBRANCH   1   9
BRANCH   3  17
ATOM     17  C   UNL     1       1.482   8.018  20.465  0.00  0.00    +0.000 A 
ATOM     18  C   UNL     1       1.718   6.722  20.942  0.00  0.00    +0.000 A 
ATOM     19  C   UNL     1       2.235   5.735  20.098  0.00  0.00    +0.000 A 
ATOM     20  C   UNL     1       2.506   6.019  18.754  0.00  0.00    +0.000 A 
ATOM     21  C   UNL     1       2.335   7.336  18.300  0.00  0.00    +0.000 A 
ATOM     22  C   UNL     1       1.826   8.324  19.143  0.00  0.00    +0.000 A 
BRANCH  20  23
ATOM     23  C   UNL     1       3.017   4.972  17.783  0.00  0.00    +0.000 C 
BRANCH  23  24
ATOM     24  N   UNL     1       4.473   5.002  17.523  0.00  0.00    +0.000 NA
ATOM     25  C   UNL     1       4.906   3.794  16.776  0.00  0.00    +0.000 C 
ATOM     26  C   UNL     1       5.642   4.710  15.781  0.00  0.00    +0.000 C 
ATOM     27  C   UNL     1       4.730   5.829  16.316  0.00  0.00    +0.000 C 
BRANCH  26  28
ATOM     28  C   UNL     1       7.168   4.871  15.939  0.00  0.00    +0.000 C 
ATOM     29  O   UNL     1       7.815   4.534  16.928  0.00  0.00    +0.000 OA
BRANCH  28  30
ATOM     30  O   UNL     1       7.797   5.422  14.861  0.00  0.00    +0.000 OA
ATOM     31  H   UNL     1       7.215   5.445  14.075  0.00  0.00    +0.000 HD
ENDBRANCH  28  30
ENDBRANCH  26  28
ENDBRANCH  23  24
ENDBRANCH  20  23
ENDBRANCH   3  17
TORSDOF 8
ENDMDL
MODEL 3
REMARK VINA RESULT:      -7.7      1.295      1.988
REMARK  Name = 
REMARK  11 active torsions:
REMARK  status: ('A' for Active; 'I' for Inactive)
REMARK    1  A    between atoms: C_1  and  C_2
REMARK    2  A    between atoms: C_2  and  C_3
REMARK    3  A    between atoms: C_3  and  C_4
REMARK    4  A    between atoms: C_3  and  C_5
REMARK    5  A    between atoms: C_3  and  C_6
REMARK    6  A    between atoms: C_9  and  C_10
REMARK    7  A    between atoms: C_12  and  C_13
REMARK    8  A    between atoms: C_16  and  C_17
REMARK    9  A    between atoms: C_17  and  N_18
REMARK   10  A    between atoms: C_20  and  C_21
REMARK   11  A    between atoms: C_21  and  O_23
REMARK                            x       y       z     vdW  Elec       q    Type
REMARK                         _______ _______ _______ _____ _____    ______ ____
ROOT
ATOM      1  C   UNL     1      -0.673  11.137  21.403  0.00  0.00    +0.000 A 
ATOM      2  N   UNL     1      -0.540  10.050  20.678  0.00  0.00    +0.000 NA
ATOM      3  C   UNL     1       0.810   9.800  20.762  0.00  0.00    +0.000 A 
ATOM      4  N   UNL     1       1.491  10.700  21.492  0.00  0.00    +0.000 NA
ATOM      5  O   UNL     1       0.507  11.588  21.916  0.00  0.00    +0.000 OA
ENDROOT
BRANCH   1   9
ATOM      6  C   UNL     1      -4.253  13.351  22.236  0.00  0.00    +0.000 A 
ATOM      7  C   UNL     1      -3.569  12.666  23.257  0.00  0.00    +0.000 A 
ATOM      8  C   UNL     1      -2.397  11.952  22.998  0.00  0.00    +0.000 A 
ATOM      9  C   UNL     1      -1.863  11.908  21.710  0.00  0.00    +0.000 A 
ATOM     10  C   UNL     1      -2.510  12.615  20.692  0.00  0.00    +0.000 A 
ATOM     11  C   UNL     1      -3.678  13.336  20.954  0.00  0.00    +0.000 A 
BRANCH   6  12
ATOM     12  C   UNL     1      -5.552  14.132  22.529  0.00  0.00    +0.000 C 
ATOM     13  C   UNL     1      -6.613  13.878  21.430  0.00  0.00    +0.000 C 
ATOM     14  C   UNL     1      -5.306  15.660  22.541  0.00  0.00    +0.000 C 
BRANCH  12  16
ATOM     15  C   UNL     1      -7.530  13.216  23.961  0.00  0.00    +0.000 C 
ATOM     16  C   UNL     1      -6.069  13.652  23.915  0.00  0.00    +0.000 C 
ENDBRANCH  12  16
ENDBRANCH   6  12
ENDBRANCH   1   9
BRANCH   3  17
ATOM     17  C   UNL     1       1.434   8.685  20.064  0.00  0.00    +0.000 A 
ATOM     18  C   UNL     1       1.684   7.478  20.729  0.00  0.00    +0.000 A 
ATOM     19  C   UNL     1       2.197   6.376  20.038  0.00  0.00    +0.000 A 
ATOM     20  C   UNL     1       2.448   6.454  18.662  0.00  0.00    +0.000 A 
ATOM     21  C   UNL     1       2.263   7.686  18.017  0.00  0.00    +0.000 A 
ATOM     22  C   UNL     1       1.760   8.789  18.707  0.00  0.00    +0.000 A 
BRANCH  20  23
ATOM     23  C   UNL     1       2.952   5.274  17.854  0.00  0.00    +0.000 C 
BRANCH  23  24
ATOM     24  N   UNL     1       4.412   5.242  17.618  0.00  0.00    +0.000 NA
ATOM     25  C   UNL     1       4.829   3.941  17.035  0.00  0.00    +0.000 C 
ATOM     26  C   UNL     1       5.600   4.711  15.947  0.00  0.00    +0.000 C 
ATOM     27  C   UNL     1       4.704   5.906  16.322  0.00  0.00    +0.000 C 
BRANCH  26  28
ATOM     28  C   UNL     1       7.126   4.861  16.109  0.00  0.00    +0.000 C 
ATOM     29  O   UNL     1       7.767   4.523  17.102  0.00  0.00    +0.000 OA
BRANCH  28  30
ATOM     30  O   UNL     1       7.763   5.402  15.031  0.00  0.00    +0.000 OA
ATOM     31  H   UNL     1       7.160   5.502  14.267  0.00  0.00    +0.000 HD
ENDBRANCH  28  30
ENDBRANCH  26  28
ENDBRANCH  23  24
ENDBRANCH  20  23
ENDBRANCH   3  17
TORSDOF 8
ENDMDL
MODEL 4
REMARK VINA RESULT:      -7.7      2.047      2.806
REMARK  Name = 
REMARK  11 active torsions:
REMARK  status: ('A' for Active; 'I' for Inactive)
REMARK    1  A    between atoms: C_1  and  C_2
REMARK    2  A    between atoms: C_2  and  C_3
REMARK    3  A    between atoms: C_3  and  C_4
REMARK    4  A    between atoms: C_3  and  C_5
REMARK    5  A    between atoms: C_3  and  C_6
REMARK    6  A    between atoms: C_9  and  C_10
REMARK    7  A    between atoms: C_12  and  C_13
REMARK    8  A    between atoms: C_16  and  C_17
REMARK    9  A    between atoms: C_17  and  N_18
REMARK   10  A    between atoms: C_20  and  C_21
REMARK   11  A    between atoms: C_21  and  O_23
REMARK                            x       y       z     vdW  Elec       q    Type
REMARK                         _______ _______ _______ _____ _____    ______ ____
ROOT
ATOM      1  C   UNL     1      -0.736  11.202  22.178  0.00  0.00    +0.000 A 
ATOM      2  N   UNL     1      -0.443  10.644  21.026  0.00  0.00    +0.000 NA
ATOM      3  C   UNL     1       0.459   9.670  21.389  0.00  0.00    +0.000 A 
ATOM      4  N   UNL     1       0.729   9.634  22.705  0.00  0.00    +0.000 NA
ATOM      5  O   UNL     1      -0.064  10.652  23.229  0.00  0.00    +0.000 OA
ENDROOT
BRANCH   1   9
ATOM      6  C   UNL     1      -3.422  14.461  22.943  0.00  0.00    +0.000 A 
ATOM      7  C   UNL     1      -3.670  13.178  23.464  0.00  0.00    +0.000 A 
ATOM      8  C   UNL     1      -2.797  12.114  23.230  0.00  0.00    +0.000 A 
ATOM      9  C   UNL     1      -1.638  12.299  22.475  0.00  0.00    +0.000 A 
ATOM     10  C   UNL     1      -1.357  13.577  21.982  0.00  0.00    +0.000 A 
ATOM     11  C   UNL     1      -2.228  14.643  22.223  0.00  0.00    +0.000 A 
BRANCH   6  12
ATOM     12  C   UNL     1      -4.397  15.631  23.199  0.00  0.00    +0.000 C 
ATOM     13  C   UNL     1      -5.719  15.124  23.825  0.00  0.00    +0.000 C 
ATOM     14  C   UNL     1      -4.790  16.340  21.881  0.00  0.00    +0.000 C 
BRANCH  12  16
ATOM     15  C   UNL     1      -4.571  17.325  25.173  0.00  0.00    +0.000 C 
ATOM     16  C   UNL     1      -3.678  16.621  24.158  0.00  0.00    +0.000 C 
ENDBRANCH  12  16
ENDBRANCH   6  12
ENDBRANCH   1   9
BRANCH   3  17
ATOM     17  C   UNL     1       1.098   8.805  20.408  0.00  0.00    +0.000 A 
ATOM     18  C   UNL     1       1.302   9.248  19.094  0.00  0.00    +0.000 A 
ATOM     19  C   UNL     1       1.998   8.456  18.176  0.00  0.00    +0.000 A 
ATOM     20  C   UNL     1       2.523   7.216  18.560  0.00  0.00    +0.000 A 
ATOM     21  C   UNL     1       2.254   6.748  19.856  0.00  0.00    +0.000 A 
ATOM     22  C   UNL     1       1.553   7.532  20.771  0.00  0.00    +0.000 A 
BRANCH  20  23
ATOM     23  C   UNL     1       3.332   6.343  17.621  0.00  0.00    +0.000 C 
BRANCH  23  24
ATOM     24  N   UNL     1       4.712   6.044  18.060  0.00  0.00    +0.000 NA
ATOM     25  C   UNL     1       4.880   4.595  18.341  0.00  0.00    +0.000 C 
ATOM     26  C   UNL     1       6.145   4.603  17.463  0.00  0.00    +0.000 C 
ATOM     27  C   UNL     1       5.579   5.902  16.862  0.00  0.00    +0.000 C 
BRANCH  26  28
ATOM     28  C   UNL     1       7.516   4.659  18.168  0.00  0.00    +0.000 C 
ATOM     29  O   UNL     1       8.542   4.118  17.760  0.00  0.00    +0.000 OA
BRANCH  28  30
ATOM     30  O   UNL     1       7.535   5.389  19.320  0.00  0.00    +0.000 OA
ATOM     31  H   UNL     1       6.845   6.083  19.320  0.00  0.00    +0.000 HD
ENDBRANCH  28  30
ENDBRANCH  26  28
ENDBRANCH  23  24
ENDBRANCH  20  23
ENDBRANCH   3  17
TORSDOF 8
ENDMDL
MODEL 5
REMARK VINA RESULT:      -7.7      0.459      1.144
REMARK  Name = 
REMARK  11 active torsions:
REMARK  status: ('A' for Active; 'I' for Inactive)
REMARK    1  A    between atoms: C_1  and  C_2
REMARK    2  A    between atoms: C_2  and  C_3
REMARK    3  A    between atoms: C_3  and  C_4
REMARK    4  A    between atoms: C_3  and  C_5
REMARK    5  A    between atoms: C_3  and  C_6
REMARK    6  A    between atoms: C_9  and  C_10
REMARK    7  A    between atoms: C_12  and  C_13
REMARK    8  A    between atoms: C_16  and  C_17
REMARK    9  A    between atoms: C_17  and  N_18
REMARK   10  A    between atoms: C_20  and  C_21
REMARK   11  A    between atoms: C_21  and  O_23
REMARK                            x       y       z     vdW  Elec       q    Type
REMARK                         _______ _______ _______ _____ _____    ______ ____
ROOT
ATOM      1  C   UNL     1      -0.260  10.887  20.361  0.00  0.00    +0.000 A 
ATOM      2  N   UNL     1       0.253   9.679  20.385  0.00  0.00    +0.000 NA
ATOM      3  C   UNL     1       1.109   9.698  19.307  0.00  0.00    +0.000 A 
ATOM      4  N   UNL     1       1.117  10.861  18.634  0.00  0.00    +0.000 NA
ATOM      5  O   UNL     1       0.208  11.650  19.332  0.00  0.00    +0.000 OA
ENDROOT
BRANCH   1   9
ATOM      6  C   UNL     1      -3.059  12.745  23.031  0.00  0.00    +0.000 A 
ATOM      7  C   UNL     1      -3.096  13.001  21.648  0.00  0.00    +0.000 A 
ATOM      8  C   UNL     1      -2.196  12.393  20.770  0.00  0.00    +0.000 A 
ATOM      9  C   UNL     1      -1.235  11.499  21.244  0.00  0.00    +0.000 A 
ATOM     10  C   UNL     1      -1.211  11.204  22.610  0.00  0.00    +0.000 A 
ATOM     11  C   UNL     1      -2.117  11.807  23.487  0.00  0.00    +0.000 A 
BRANCH   6  12
ATOM     12  C   UNL     1      -4.052  13.427  23.997  0.00  0.00    +0.000 C 
ATOM     13  C   UNL     1      -3.327  14.441  24.914  0.00  0.00    +0.000 C 
ATOM     14  C   UNL     1      -4.723  12.400  24.940  0.00  0.00    +0.000 C 
BRANCH  12  16
ATOM     15  C   UNL     1      -6.554  13.653  23.295  0.00  0.00    +0.000 C 
ATOM     16  C   UNL     1      -5.120  14.142  23.122  0.00  0.00    +0.000 C 
ENDBRANCH  12  16
ENDBRANCH   6  12
ENDBRANCH   1   9
BRANCH   3  17
ATOM     17  C   UNL     1       1.884   8.530  18.915  0.00  0.00    +0.000 A 
ATOM     18  C   UNL     1       2.534   8.490  17.675  0.00  0.00    +0.000 A 
ATOM     19  C   UNL     1       3.354   7.410  17.335  0.00  0.00    +0.000 A 
ATOM     20  C   UNL     1       3.559   6.360  18.239  0.00  0.00    +0.000 A 
ATOM     21  C   UNL     1       2.850   6.372  19.450  0.00  0.00    +0.000 A 
ATOM     22  C   UNL     1       2.024   7.444  19.787  0.00  0.00    +0.000 A 
BRANCH  20  23
ATOM     23  C   UNL     1       4.480   5.193  17.943  0.00  0.00    +0.000 C 
BRANCH  23  24
ATOM     24  N   UNL     1       5.056   5.167  16.580  0.00  0.00    +0.000 NA
ATOM     25  C   UNL     1       6.304   5.969  16.513  0.00  0.00    +0.000 C 
ATOM     26  C   UNL     1       6.999   4.775  15.834  0.00  0.00    +0.000 C 
ATOM     27  C   UNL     1       5.857   3.926  16.420  0.00  0.00    +0.000 C 
BRANCH  26  28
ATOM     28  C   UNL     1       7.171   4.813  14.301  0.00  0.00    +0.000 C 
ATOM     29  O   UNL     1       8.068   5.406  13.706  0.00  0.00    +0.000 OA
BRANCH  28  30
ATOM     30  O   UNL     1       6.235   4.107  13.605  0.00  0.00    +0.000 OA
ATOM     31  H   UNL     1       5.374   4.090  14.070  0.00  0.00    +0.000 HD
ENDBRANCH  28  30
ENDBRANCH  26  28
ENDBRANCH  23  24
ENDBRANCH  20  23
ENDBRANCH   3  17
TORSDOF 8
ENDMDL
MODEL 6
REMARK VINA RESULT:      -7.6      1.942      2.896
REMARK  Name = 
REMARK  11 active torsions:
REMARK  status: ('A' for Active; 'I' for Inactive)
REMARK    1  A    between atoms: C_1  and  C_2
REMARK    2  A    between atoms: C_2  and  C_3
REMARK    3  A    between atoms: C_3  and  C_4
REMARK    4  A    between atoms: C_3  and  C_5
REMARK    5  A    between atoms: C_3  and  C_6
REMARK    6  A    between atoms: C_9  and  C_10
REMARK    7  A    between atoms: C_12  and  C_13
REMARK    8  A    between atoms: C_16  and  C_17
REMARK    9  A    between atoms: C_17  and  N_18
REMARK   10  A    between atoms: C_20  and  C_21
REMARK   11  A    between atoms: C_21  and  O_23
REMARK                            x       y       z     vdW  Elec       q    Type
REMARK                         _______ _______ _______ _____ _____    ______ ____
ROOT
ATOM      1  C   UNL     1      -1.165  11.482  22.155  0.00  0.00    +0.000 A 
ATOM      2  N   UNL     1      -0.760  10.885  21.058  0.00  0.00    +0.000 NA
ATOM      3  C   UNL     1       0.215  10.034  21.525  0.00  0.00    +0.000 A 
ATOM      4  N   UNL     1       0.420  10.110  22.851  0.00  0.00    +0.000 NA
ATOM      5  O   UNL     1      -0.495  11.072  23.269  0.00  0.00    +0.000 OA
ENDROOT
BRANCH   1   9
ATOM      6  C   UNL     1      -4.264  14.406  22.670  0.00  0.00    +0.000 A 
ATOM      7  C   UNL     1      -3.364  14.111  23.710  0.00  0.00    +0.000 A 
ATOM      8  C   UNL     1      -2.346  13.169  23.550  0.00  0.00    +0.000 A 
ATOM      9  C   UNL     1      -2.185  12.498  22.337  0.00  0.00    +0.000 A 
ATOM     10  C   UNL     1      -3.048  12.807  21.280  0.00  0.00    +0.000 A 
ATOM     11  C   UNL     1      -4.062  13.755  21.440  0.00  0.00    +0.000 A 
BRANCH   6  12
ATOM     12  C   UNL     1      -5.393  15.443  22.859  0.00  0.00    +0.000 C 
ATOM     13  C   UNL     1      -6.489  14.903  23.809  0.00  0.00    +0.000 C 
ATOM     14  C   UNL     1      -6.103  15.758  21.521  0.00  0.00    +0.000 C 
BRANCH  12  16
ATOM     15  C   UNL     1      -5.196  17.121  24.845  0.00  0.00    +0.000 C 
ATOM     16  C   UNL     1      -4.739  16.726  23.445  0.00  0.00    +0.000 C 
ENDBRANCH  12  16
ENDBRANCH   6  12
ENDBRANCH   1   9
BRANCH   3  17
ATOM     17  C   UNL     1       0.985   9.179  20.634  0.00  0.00    +0.000 A 
ATOM     18  C   UNL     1       1.453   7.933  21.071  0.00  0.00    +0.000 A 
ATOM     19  C   UNL     1       2.112   7.070  20.190  0.00  0.00    +0.000 A 
ATOM     20  C   UNL     1       2.296   7.428  18.849  0.00  0.00    +0.000 A 
ATOM     21  C   UNL     1       1.888   8.706  18.435  0.00  0.00    +0.000 A 
ATOM     22  C   UNL     1       1.238   9.571  19.314  0.00  0.00    +0.000 A 
BRANCH  20  23
ATOM     23  C   UNL     1       2.954   6.508  17.839  0.00  0.00    +0.000 C 
BRANCH  23  24
ATOM     24  N   UNL     1       4.296   6.010  18.213  0.00  0.00    +0.000 NA
ATOM     25  C   UNL     1       4.523   4.642  17.682  0.00  0.00    +0.000 C 
ATOM     26  C   UNL     1       5.872   5.120  17.112  0.00  0.00    +0.000 C 
ATOM     27  C   UNL     1       5.293   6.540  17.247  0.00  0.00    +0.000 C 
BRANCH  26  28
ATOM     28  C   UNL     1       7.153   4.774  17.898  0.00  0.00    +0.000 C 
ATOM     29  O   UNL     1       7.349   5.040  19.082  0.00  0.00    +0.000 OA
BRANCH  28  30
ATOM     30  O   UNL     1       8.101   4.110  17.177  0.00  0.00    +0.000 OA
ATOM     31  H   UNL     1       7.989   3.139  17.238  0.00  0.00    +0.000 HD
ENDBRANCH  28  30
ENDBRANCH  26  28
ENDBRANCH  23  24
ENDBRANCH  20  23
ENDBRANCH   3  17
TORSDOF 8
ENDMDL
MODEL 7
REMARK VINA RESULT:      -7.6      1.787      2.676
REMARK  Name = 
REMARK  11 active torsions:
REMARK  status: ('A' for Active; 'I' for Inactive)
REMARK    1  A    between atoms: C_1  and  C_2
REMARK    2  A    between atoms: C_2  and  C_3
REMARK    3  A    between atoms: C_3  and  C_4
REMARK    4  A    between atoms: C_3  and  C_5
REMARK    5  A    between atoms: C_3  and  C_6
REMARK    6  A    between atoms: C_9  and  C_10
REMARK    7  A    between atoms: C_12  and  C_13
REMARK    8  A    between atoms: C_16  and  C_17
REMARK    9  A    between atoms: C_17  and  N_18
REMARK   10  A    between atoms: C_20  and  C_21
REMARK   11  A    between atoms: C_21  and  O_23
REMARK                            x       y       z     vdW  Elec       q    Type
REMARK                         _______ _______ _______ _____ _____    ______ ____
ROOT
ATOM      1  C   UNL     1      -1.128  11.360  22.312  0.00  0.00    +0.000 A 
ATOM      2  N   UNL     1      -0.757  10.785  21.192  0.00  0.00    +0.000 NA
ATOM      3  C   UNL     1       0.209   9.901  21.618  0.00  0.00    +0.000 A 
ATOM      4  N   UNL     1       0.441   9.937  22.941  0.00  0.00    +0.000 NA
ATOM      5  O   UNL     1      -0.445  10.907  23.402  0.00  0.00    +0.000 OA
ENDROOT
BRANCH   1   9
ATOM      6  C   UNL     1      -4.030  14.423  23.094  0.00  0.00    +0.000 A 
ATOM      7  C   UNL     1      -3.096  14.557  22.050  0.00  0.00    +0.000 A 
ATOM      8  C   UNL     1      -2.155  13.562  21.781  0.00  0.00    +0.000 A 
ATOM      9  C   UNL     1      -2.123  12.391  22.540  0.00  0.00    +0.000 A 
ATOM     10  C   UNL     1      -3.069  12.226  23.556  0.00  0.00    +0.000 A 
ATOM     11  C   UNL     1      -4.015  13.220  23.820  0.00  0.00    +0.000 A 
BRANCH   6  12
ATOM     12  C   UNL     1      -5.063  15.533  23.390  0.00  0.00    +0.000 C 
ATOM     13  C   UNL     1      -5.193  16.505  22.192  0.00  0.00    +0.000 C 
ATOM     14  C   UNL     1      -4.634  16.398  24.599  0.00  0.00    +0.000 C 
BRANCH  12  16
ATOM     15  C   UNL     1      -7.330  14.632  22.471  0.00  0.00    +0.000 C 
ATOM     16  C   UNL     1      -6.418  14.828  23.677  0.00  0.00    +0.000 C 
ENDBRANCH  12  16
ENDBRANCH   6  12
ENDBRANCH   1   9
BRANCH   3  17
ATOM     17  C   UNL     1       0.944   9.055  20.690  0.00  0.00    +0.000 A 
ATOM     18  C   UNL     1       1.415   7.798  21.092  0.00  0.00    +0.000 A 
ATOM     19  C   UNL     1       2.038   6.944  20.177  0.00  0.00    +0.000 A 
ATOM     20  C   UNL     1       2.183   7.322  18.836  0.00  0.00    +0.000 A 
ATOM     21  C   UNL     1       1.774   8.609  18.456  0.00  0.00    +0.000 A 
ATOM     22  C   UNL     1       1.159   9.466  19.369  0.00  0.00    +0.000 A 
BRANCH  20  23
ATOM     23  C   UNL     1       2.802   6.413  17.792  0.00  0.00    +0.000 C 
BRANCH  23  24
ATOM     24  N   UNL     1       4.282   6.384  17.771  0.00  0.00    +0.000 NA
ATOM     25  C   UNL     1       4.784   4.997  17.600  0.00  0.00    +0.000 C 
ATOM     26  C   UNL     1       5.696   5.500  16.466  0.00  0.00    +0.000 C 
ATOM     27  C   UNL     1       4.750   6.713  16.400  0.00  0.00    +0.000 C 
BRANCH  26  28
ATOM     28  C   UNL     1       7.184   5.749  16.789  0.00  0.00    +0.000 C 
ATOM     29  O   UNL     1       7.757   6.832  16.685  0.00  0.00    +0.000 OA
BRANCH  28  30
ATOM     30  O   UNL     1       7.861   4.653  17.233  0.00  0.00    +0.000 OA
ATOM     31  H   UNL     1       8.433   4.865  17.998  0.00  0.00    +0.000 HD
ENDBRANCH  28  30
ENDBRANCH  26  28
ENDBRANCH  23  24
ENDBRANCH  20  23
ENDBRANCH   3  17
TORSDOF 8
ENDMDL
MODEL 8
REMARK VINA RESULT:      -7.6      2.154      2.844
REMARK  Name = 
REMARK  11 active torsions:
REMARK  status: ('A' for Active; 'I' for Inactive)
REMARK    1  A    between atoms: C_1  and  C_2
REMARK    2  A    between atoms: C_2  and  C_3
REMARK    3  A    between atoms: C_3  and  C_4
REMARK    4  A    between atoms: C_3  and  C_5
REMARK    5  A    between atoms: C_3  and  C_6
REMARK    6  A    between atoms: C_9  and  C_10
REMARK    7  A    between atoms: C_12  and  C_13
REMARK    8  A    between atoms: C_16  and  C_17
REMARK    9  A    between atoms: C_17  and  N_18
REMARK   10  A    between atoms: C_20  and  C_21
REMARK   11  A    between atoms: C_21  and  O_23
REMARK                            x       y       z     vdW  Elec       q    Type
REMARK                         _______ _______ _______ _____ _____    ______ ____
ROOT
ATOM      1  C   UNL     1      -0.635  11.238  22.329  0.00  0.00    +0.000 A 
ATOM      2  N   UNL     1      -0.227  10.775  21.170  0.00  0.00    +0.000 NA
ATOM      3  C   UNL     1       0.397   9.600  21.524  0.00  0.00    +0.000 A 
ATOM      4  N   UNL     1       0.392   9.352  22.844  0.00  0.00    +0.000 NA
ATOM      5  O   UNL     1      -0.292  10.440  23.379  0.00  0.00    +0.000 OA
ENDROOT
BRANCH   1   9
ATOM      6  C   UNL     1      -2.784  14.810  23.350  0.00  0.00    +0.000 A 
ATOM      7  C   UNL     1      -1.608  14.866  22.581  0.00  0.00    +0.000 A 
ATOM      8  C   UNL     1      -0.907  13.709  22.234  0.00  0.00    +0.000 A 
ATOM      9  C   UNL     1      -1.367  12.453  22.636  0.00  0.00    +0.000 A 
ATOM     10  C   UNL     1      -2.555  12.378  23.369  0.00  0.00    +0.000 A 
ATOM     11  C   UNL     1      -3.259  13.536  23.709  0.00  0.00    +0.000 A 
BRANCH   6  12
ATOM     12  C   UNL     1      -3.548  16.095  23.737  0.00  0.00    +0.000 C 
ATOM     13  C   UNL     1      -2.891  17.344  23.101  0.00  0.00    +0.000 C 
ATOM     14  C   UNL     1      -3.525  16.330  25.266  0.00  0.00    +0.000 C 
BRANCH  12  16
ATOM     15  C   UNL     1      -5.215  16.089  21.731  0.00  0.00    +0.000 C 
ATOM     16  C   UNL     1      -5.009  15.925  23.233  0.00  0.00    +0.000 C 
ENDBRANCH  12  16
ENDBRANCH   6  12
ENDBRANCH   1   9
BRANCH   3  17
ATOM     17  C   UNL     1       1.051   8.747  20.542  0.00  0.00    +0.000 A 
ATOM     18  C   UNL     1       1.286   9.210  19.240  0.00  0.00    +0.000 A 
ATOM     19  C   UNL     1       1.996   8.429  18.324  0.00  0.00    +0.000 A 
ATOM     20  C   UNL     1       2.505   7.179  18.698  0.00  0.00    +0.000 A 
ATOM     21  C   UNL     1       2.205   6.691  19.980  0.00  0.00    +0.000 A 
ATOM     22  C   UNL     1       1.490   7.465  20.893  0.00  0.00    +0.000 A 
BRANCH  20  23
ATOM     23  C   UNL     1       3.327   6.316  17.762  0.00  0.00    +0.000 C 
BRANCH  23  24
ATOM     24  N   UNL     1       4.665   5.931  18.262  0.00  0.00    +0.000 NA
ATOM     25  C   UNL     1       5.003   4.540  17.864  0.00  0.00    +0.000 C 
ATOM     26  C   UNL     1       6.359   5.051  17.344  0.00  0.00    +0.000 C 
ATOM     27  C   UNL     1       5.696   6.440  17.321  0.00  0.00    +0.000 C 
BRANCH  26  28
ATOM     28  C   UNL     1       7.601   4.847  18.237  0.00  0.00    +0.000 C 
ATOM     29  O   UNL     1       7.792   5.402  19.317  0.00  0.00    +0.000 OA
BRANCH  28  30
ATOM     30  O   UNL     1       8.515   3.962  17.748  0.00  0.00    +0.000 OA
ATOM     31  H   UNL     1       8.348   3.053  18.068  0.00  0.00    +0.000 HD
ENDBRANCH  28  30
ENDBRANCH  26  28
ENDBRANCH  23  24
ENDBRANCH  20  23
ENDBRANCH   3  17
TORSDOF 8
ENDMDL
MODEL 9
REMARK VINA RESULT:      -7.5      1.548      2.235
REMARK  Name = 
REMARK  11 active torsions:
REMARK  status: ('A' for Active; 'I' for Inactive)
REMARK    1  A    between atoms: C_1  and  C_2
REMARK    2  A    between atoms: C_2  and  C_3
REMARK    3  A    between atoms: C_3  and  C_4
REMARK    4  A    between atoms: C_3  and  C_5
REMARK    5  A    between atoms: C_3  and  C_6
REMARK    6  A    between atoms: C_9  and  C_10
REMARK    7  A    between atoms: C_12  and  C_13
REMARK    8  A    between atoms: C_16  and  C_17
REMARK    9  A    between atoms: C_17  and  N_18
REMARK   10  A    between atoms: C_20  and  C_21
REMARK   11  A    between atoms: C_21  and  O_23
REMARK                            x       y       z     vdW  Elec       q    Type
REMARK                         _______ _______ _______ _____ _____    ______ ____
ROOT
ATOM      1  C   UNL     1      -0.114  10.408  21.887  0.00  0.00    +0.000 A 
ATOM      2  N   UNL     1      -0.047   9.561  20.885  0.00  0.00    +0.000 NA
ATOM      3  C   UNL     1       1.034   8.781  21.228  0.00  0.00    +0.000 A 
ATOM      4  N   UNL     1       1.624   9.138  22.382  0.00  0.00    +0.000 NA
ATOM      5  O   UNL     1       0.863  10.218  22.818  0.00  0.00    +0.000 OA
ENDROOT
BRANCH   1   9
ATOM      6  C   UNL     1      -2.923  13.598  22.482  0.00  0.00    +0.000 A 
ATOM      7  C   UNL     1      -2.843  12.523  23.386  0.00  0.00    +0.000 A 
ATOM      8  C   UNL     1      -1.925  11.486  23.207  0.00  0.00    +0.000 A 
ATOM      9  C   UNL     1      -1.047  11.494  22.122  0.00  0.00    +0.000 A 
ATOM     10  C   UNL     1      -1.088  12.574  21.236  0.00  0.00    +0.000 A 
ATOM     11  C   UNL     1      -2.002  13.616  21.420  0.00  0.00    +0.000 A 
BRANCH   6  12
ATOM     12  C   UNL     1      -3.946  14.737  22.682  0.00  0.00    +0.000 C 
ATOM     13  C   UNL     1      -5.203  14.229  23.431  0.00  0.00    +0.000 C 
ATOM     14  C   UNL     1      -4.449  15.292  21.328  0.00  0.00    +0.000 C 
BRANCH  12  16
ATOM     15  C   UNL     1      -3.662  15.983  24.954  0.00  0.00    +0.000 C 
ATOM     16  C   UNL     1      -3.233  15.852  23.497  0.00  0.00    +0.000 C 
ENDBRANCH  12  16
ENDBRANCH   6  12
ENDBRANCH   1   9
BRANCH   3  17
ATOM     17  C   UNL     1       1.514   7.708  20.370  0.00  0.00    +0.000 A 
ATOM     18  C   UNL     1       2.058   7.992  19.111  0.00  0.00    +0.000 A 
ATOM     19  C   UNL     1       2.606   6.974  18.325  0.00  0.00    +0.000 A 
ATOM     20  C   UNL     1       2.640   5.654  18.793  0.00  0.00    +0.000 A 
ATOM     21  C   UNL     1       2.030   5.365  20.024  0.00  0.00    +0.000 A 
ATOM     22  C   UNL     1       1.476   6.378  20.805  0.00  0.00    +0.000 A 
BRANCH  20  23
ATOM     23  C   UNL     1       3.270   4.522  18.006  0.00  0.00    +0.000 C 
BRANCH  23  24
ATOM     24  N   UNL     1       4.680   4.730  17.610  0.00  0.00    +0.000 NA
ATOM     25  C   UNL     1       5.195   3.569  16.841  0.00  0.00    +0.000 C 
ATOM     26  C   UNL     1       5.713   4.546  15.771  0.00  0.00    +0.000 C 
ATOM     27  C   UNL     1       4.717   5.553  16.374  0.00  0.00    +0.000 C 
BRANCH  26  28
ATOM     28  C   UNL     1       7.214   4.904  15.782  0.00  0.00    +0.000 C 
ATOM     29  O   UNL     1       7.789   5.563  14.919  0.00  0.00    +0.000 OA
BRANCH  28  30
ATOM     30  O   UNL     1       7.901   4.440  16.864  0.00  0.00    +0.000 OA
ATOM     31  H   UNL     1       8.365   5.161  17.336  0.00  0.00    +0.000 HD
ENDBRANCH  28  30
ENDBRANCH  26  28
ENDBRANCH  23  24
ENDBRANCH  20  23
ENDBRANCH   3  17
TORSDOF 8
ENDMDL
