MODEL 1
REMARK VINA RESULT:      -8.0      0.000      0.000
REMARK  Name = 
REMARK  7 active torsions:
REMARK  status: ('A' for Active; 'I' for Inactive)
REMARK    1  A    between atoms: C_2  and  C_3
REMARK    2  A    between atoms: C_6  and  S_7
REMARK    3  A    between atoms: S_7  and  N_10
REMARK    4  A    between atoms: N_10  and  C_11
REMARK    5  A    between atoms: C_11  and  C_12
REMARK    6  A    between atoms: C_12  and  O_13
REMARK    7  A    between atoms: O_13  and  C_14
REMARK                            x       y       z     vdW  Elec       q    Type
REMARK                         _______ _______ _______ _____ _____    ______ ____
ROOT
ATOM      1  N   UNL     1       5.802   4.025  18.736  0.00  0.00    +0.000 NA
ATOM      2  H   UNL     1       6.215   3.217  19.201  0.00  0.00    +0.000 HD
ENDROOT
BRANCH   1   3
ATOM      3  S   UNL     1       6.980   4.893  17.877  0.00  0.00    +0.000 S 
ATOM      4  O   UNL     1       8.272   4.308  18.149  0.00  0.00    +0.000 OA
ATOM      5  O   UNL     1       6.703   6.291  18.108  0.00  0.00    +0.000 OA
BRANCH   3   9
ATOM      6  C   UNL     1       5.951   3.904  13.516  0.00  0.00    +0.000 A 
ATOM      7  C   UNL     1       7.099   4.646  13.834  0.00  0.00    +0.000 A 
ATOM      8  C   UNL     1       7.407   4.958  15.161  0.00  0.00    +0.000 A 
ATOM      9  C   UNL     1       6.551   4.540  16.183  0.00  0.00    +0.000 A 
ATOM     10  C   UNL     1       5.404   3.801  15.889  0.00  0.00    +0.000 A 
ATOM     11  C   UNL     1       5.100   3.502  14.557  0.00  0.00    +0.000 A 
BRANCH   6  13
ATOM     12  C   UNL     1       4.505   3.149  11.634  0.00  0.00    +0.000 C 
ATOM     13  C   UNL     1       5.668   3.612  12.103  0.00  0.00    +0.000 C 
ENDBRANCH   6  13
ENDBRANCH   3   9
ENDBRANCH   1   3
BRANCH   1  14
ATOM     14  C   UNL     1       4.852   4.819  19.536  0.00  0.00    +0.000 C 
BRANCH  14  15
ATOM     15  C   UNL     1       3.454   4.842  18.915  0.00  0.00    +0.000 C 
BRANCH  15  16
ATOM     16  O   UNL     1       3.390   6.038  18.138  0.00  0.00    +0.000 OA
BRANCH  16  17
ATOM     17  C   UNL     1       2.673   7.095  18.614  0.00  0.00    +0.000 A 
ATOM     18  C   UNL     1       2.548   8.146  17.705  0.00  0.00    +0.000 A 
ATOM     19  C   UNL     1       1.811   9.284  18.028  0.00  0.00    +0.000 A 
ATOM     20  C   UNL     1       1.189   9.393  19.276  0.00  0.00    +0.000 A 
ATOM     21  C   UNL     1       0.396  10.507  19.593  0.00  0.00    +0.000 A 
ATOM     22  C   UNL     1      -0.211  10.614  20.844  0.00  0.00    +0.000 A 
ATOM     23  C   UNL     1      -0.007   9.625  21.801  0.00  0.00    +0.000 A 
ATOM     24  C   UNL     1       0.772   8.505  21.496  0.00  0.00    +0.000 A 
ATOM     25  C   UNL     1       1.356   8.359  20.227  0.00  0.00    +0.000 A 
ATOM     26  C   UNL     1       2.093   7.207  19.877  0.00  0.00    +0.000 A 
ENDBRANCH  16  17
ENDBRANCH  15  16
ENDBRANCH  14  15
ENDBRANCH   1  14
TORSDOF 7
ENDMDL
MODEL 2
REMARK VINA RESULT:      -8.0      6.243      7.818
REMARK  Name = 
REMARK  7 active torsions:
REMARK  status: ('A' for Active; 'I' for Inactive)
REMARK    1  A    between atoms: C_2  and  C_3
REMARK    2  A    between atoms: C_6  and  S_7
REMARK    3  A    between atoms: S_7  and  N_10
REMARK    4  A    between atoms: N_10  and  C_11
REMARK    5  A    between atoms: C_11  and  C_12
REMARK    6  A    between atoms: C_12  and  O_13
REMARK    7  A    between atoms: O_13  and  C_14
REMARK                            x       y       z     vdW  Elec       q    Type
REMARK                         _______ _______ _______ _____ _____    ______ ____
ROOT
ATOM      1  N   UNL     1       6.623   6.945  17.422  0.00  0.00    +0.000 NA
ATOM      2  H   UNL     1       6.054   6.908  18.268  0.00  0.00    +0.000 HD
ENDROOT
BRANCH   1   3
ATOM      3  S   UNL     1       6.531   5.482  16.568  0.00  0.00    +0.000 S 
ATOM      4  O   UNL     1       7.754   4.744  16.787  0.00  0.00    +0.000 OA
ATOM      5  O   UNL     1       6.060   5.813  15.244  0.00  0.00    +0.000 OA
BRANCH   3   9
ATOM      6  C   UNL     1       3.162   3.205  18.692  0.00  0.00    +0.000 A 
ATOM      7  C   UNL     1       3.114   3.433  17.308  0.00  0.00    +0.000 A 
ATOM      8  C   UNL     1       4.134   4.137  16.662  0.00  0.00    +0.000 A 
ATOM      9  C   UNL     1       5.207   4.635  17.407  0.00  0.00    +0.000 A 
ATOM     10  C   UNL     1       5.273   4.419  18.784  0.00  0.00    +0.000 A 
ATOM     11  C   UNL     1       4.243   3.721  19.423  0.00  0.00    +0.000 A 
BRANCH   6  13
ATOM     12  C   UNL     1       0.937   3.023  19.798  0.00  0.00    +0.000 C 
ATOM     13  C   UNL     1       2.057   2.468  19.324  0.00  0.00    +0.000 C 
ENDBRANCH   6  13
ENDBRANCH   3   9
ENDBRANCH   1   3
BRANCH   1  14
ATOM     14  C   UNL     1       7.965   7.538  17.569  0.00  0.00    +0.000 C 
BRANCH  14  15
ATOM     15  C   UNL     1       7.901   9.040  17.859  0.00  0.00    +0.000 C 
BRANCH  15  16
ATOM     16  O   UNL     1       8.779   9.263  18.962  0.00  0.00    +0.000 OA
BRANCH  16  17
ATOM     17  C   UNL     1       9.453  10.445  19.040  0.00  0.00    +0.000 A 
ATOM     18  C   UNL     1       9.703  10.867  20.345  0.00  0.00    +0.000 A 
ATOM     19  C   UNL     1      10.417  12.039  20.592  0.00  0.00    +0.000 A 
ATOM     20  C   UNL     1      10.888  12.816  19.529  0.00  0.00    +0.000 A 
ATOM     21  C   UNL     1      11.658  13.967  19.762  0.00  0.00    +0.000 A 
ATOM     22  C   UNL     1      12.114  14.743  18.697  0.00  0.00    +0.000 A 
ATOM     23  C   UNL     1      11.781  14.396  17.391  0.00  0.00    +0.000 A 
ATOM     24  C   UNL     1      11.024  13.247  17.144  0.00  0.00    +0.000 A 
ATOM     25  C   UNL     1      10.591  12.428  18.201  0.00  0.00    +0.000 A 
ATOM     26  C   UNL     1       9.881  11.231  17.970  0.00  0.00    +0.000 A 
ENDBRANCH  16  17
ENDBRANCH  15  16
ENDBRANCH  14  15
ENDBRANCH   1  14
TORSDOF 7
ENDMDL
MODEL 3
REMARK VINA RESULT:      -7.9      6.385      7.732
REMARK  Name = 
REMARK  7 active torsions:
REMARK  status: ('A' for Active; 'I' for Inactive)
REMARK    1  A    between atoms: C_2  and  C_3
REMARK    2  A    between atoms: C_6  and  S_7
REMARK    3  A    between atoms: S_7  and  N_10
REMARK    4  A    between atoms: N_10  and  C_11
REMARK    5  A    between atoms: C_11  and  C_12
REMARK    6  A    between atoms: C_12  and  O_13
REMARK    7  A    between atoms: O_13  and  C_14
REMARK                            x       y       z     vdW  Elec       q    Type
REMARK                         _______ _______ _______ _____ _____    ______ ____
ROOT
ATOM      1  N   UNL     1       7.687   6.512  18.195  0.00  0.00    +0.000 NA
ATOM      2  H   UNL     1       8.517   6.268  18.736  0.00  0.00    +0.000 HD
ENDROOT
BRANCH   1   3
ATOM      3  S   UNL     1       7.280   5.265  17.119  0.00  0.00    +0.000 S 
ATOM      4  O   UNL     1       8.134   4.130  17.385  0.00  0.00    +0.000 OA
ATOM      5  O   UNL     1       7.191   5.870  15.811  0.00  0.00    +0.000 OA
BRANCH   3   9
ATOM      6  C   UNL     1       2.981   4.304  18.402  0.00  0.00    +0.000 A 
ATOM      7  C   UNL     1       3.849   4.998  19.258  0.00  0.00    +0.000 A 
ATOM      8  C   UNL     1       5.163   5.281  18.873  0.00  0.00    +0.000 A 
ATOM      9  C   UNL     1       5.623   4.851  17.626  0.00  0.00    +0.000 A 
ATOM     10  C   UNL     1       4.775   4.160  16.758  0.00  0.00    +0.000 A 
ATOM     11  C   UNL     1       3.465   3.875  17.157  0.00  0.00    +0.000 A 
BRANCH   6  13
ATOM     12  C   UNL     1       1.266   3.018  19.670  0.00  0.00    +0.000 C 
ATOM     13  C   UNL     1       1.612   4.024  18.860  0.00  0.00    +0.000 C 
ENDBRANCH   6  13
ENDBRANCH   3   9
ENDBRANCH   1   3
BRANCH   1  14
ATOM     14  C   UNL     1       7.642   7.885  17.660  0.00  0.00    +0.000 C 
BRANCH  14  15
ATOM     15  C   UNL     1       8.570   8.831  18.425  0.00  0.00    +0.000 C 
BRANCH  15  16
ATOM     16  O   UNL     1       8.373  10.122  17.850  0.00  0.00    +0.000 OA
BRANCH  16  17
ATOM     17  C   UNL     1       9.137  11.163  18.287  0.00  0.00    +0.000 A 
ATOM     18  C   UNL     1       9.932  10.853  19.390  0.00  0.00    +0.000 A 
ATOM     19  C   UNL     1      10.800  11.800  19.933  0.00  0.00    +0.000 A 
ATOM     20  C   UNL     1      10.880  13.083  19.381  0.00  0.00    +0.000 A 
ATOM     21  C   UNL     1      11.790  14.028  19.880  0.00  0.00    +0.000 A 
ATOM     22  C   UNL     1      11.856  15.309  19.332  0.00  0.00    +0.000 A 
ATOM     23  C   UNL     1      10.991  15.669  18.303  0.00  0.00    +0.000 A 
ATOM     24  C   UNL     1      10.087  14.735  17.789  0.00  0.00    +0.000 A 
ATOM     25  C   UNL     1      10.036  13.426  18.299  0.00  0.00    +0.000 A 
ATOM     26  C   UNL     1       9.175  12.450  17.753  0.00  0.00    +0.000 A 
ENDBRANCH  16  17
ENDBRANCH  15  16
ENDBRANCH  14  15
ENDBRANCH   1  14
TORSDOF 7
ENDMDL
MODEL 4
REMARK VINA RESULT:      -7.9      2.748      3.658
REMARK  Name = 
REMARK  7 active torsions:
REMARK  status: ('A' for Active; 'I' for Inactive)
REMARK    1  A    between atoms: C_2  and  C_3
REMARK    2  A    between atoms: C_6  and  S_7
REMARK    3  A    between atoms: S_7  and  N_10
REMARK    4  A    between atoms: N_10  and  C_11
REMARK    5  A    between atoms: C_11  and  C_12
REMARK    6  A    between atoms: C_12  and  O_13
REMARK    7  A    between atoms: O_13  and  C_14
REMARK                            x       y       z     vdW  Elec       q    Type
REMARK                         _______ _______ _______ _____ _____    ______ ____
ROOT
ATOM      1  N   UNL     1       2.517   3.055  19.607  0.00  0.00    +0.000 NA
ATOM      2  H   UNL     1       3.272   2.897  20.275  0.00  0.00    +0.000 HD
ENDROOT
BRANCH   1   3
ATOM      3  S   UNL     1       3.053   2.789  18.019  0.00  0.00    +0.000 S 
ATOM      4  O   UNL     1       2.013   3.204  17.107  0.00  0.00    +0.000 OA
ATOM      5  O   UNL     1       3.610   1.457  17.996  0.00  0.00    +0.000 OA
BRANCH   3   9
ATOM      6  C   UNL     1       6.480   5.821  17.690  0.00  0.00    +0.000 A 
ATOM      7  C   UNL     1       5.527   5.700  16.667  0.00  0.00    +0.000 A 
ATOM      8  C   UNL     1       4.489   4.768  16.761  0.00  0.00    +0.000 A 
ATOM      9  C   UNL     1       4.411   3.935  17.880  0.00  0.00    +0.000 A 
ATOM     10  C   UNL     1       5.349   4.040  18.908  0.00  0.00    +0.000 A 
ATOM     11  C   UNL     1       6.389   4.969  18.800  0.00  0.00    +0.000 A 
BRANCH   6  13
ATOM     12  C   UNL     1       7.390   8.137  17.565  0.00  0.00    +0.000 C 
ATOM     13  C   UNL     1       7.557   6.811  17.536  0.00  0.00    +0.000 C 
ENDBRANCH   6  13
ENDBRANCH   3   9
ENDBRANCH   1   3
BRANCH   1  14
ATOM     14  C   UNL     1       1.693   4.256  19.831  0.00  0.00    +0.000 C 
BRANCH  14  15
ATOM     15  C   UNL     1       2.421   5.303  20.678  0.00  0.00    +0.000 C 
BRANCH  15  16
ATOM     16  O   UNL     1       2.900   6.285  19.759  0.00  0.00    +0.000 OA
BRANCH  16  17
ATOM     17  C   UNL     1       2.204   7.448  19.615  0.00  0.00    +0.000 A 
ATOM     18  C   UNL     1       2.329   8.027  18.352  0.00  0.00    +0.000 A 
ATOM     19  C   UNL     1       1.647   9.200  18.034  0.00  0.00    +0.000 A 
ATOM     20  C   UNL     1       0.830   9.822  18.984  0.00  0.00    +0.000 A 
ATOM     21  C   UNL     1       0.091  10.971  18.660  0.00  0.00    +0.000 A 
ATOM     22  C   UNL     1      -0.712  11.592  19.616  0.00  0.00    +0.000 A 
ATOM     23  C   UNL     1      -0.761  11.090  20.913  0.00  0.00    +0.000 A 
ATOM     24  C   UNL     1      -0.040   9.940  21.247  0.00  0.00    +0.000 A 
ATOM     25  C   UNL     1       0.741   9.276  20.286  0.00  0.00    +0.000 A 
ATOM     26  C   UNL     1       1.426   8.079  20.585  0.00  0.00    +0.000 A 
ENDBRANCH  16  17
ENDBRANCH  15  16
ENDBRANCH  14  15
ENDBRANCH   1  14
TORSDOF 7
ENDMDL
MODEL 5
REMARK VINA RESULT:      -7.9      2.824      3.756
REMARK  Name = 
REMARK  7 active torsions:
REMARK  status: ('A' for Active; 'I' for Inactive)
REMARK    1  A    between atoms: C_2  and  C_3
REMARK    2  A    between atoms: C_6  and  S_7
REMARK    3  A    between atoms: S_7  and  N_10
REMARK    4  A    between atoms: N_10  and  C_11
REMARK    5  A    between atoms: C_11  and  C_12
REMARK    6  A    between atoms: C_12  and  O_13
REMARK    7  A    between atoms: O_13  and  C_14
REMARK                            x       y       z     vdW  Elec       q    Type
REMARK                         _______ _______ _______ _____ _____    ______ ____
ROOT
ATOM      1  N   UNL     1       3.152   2.926  20.842  0.00  0.00    +0.000 NA
ATOM      2  H   UNL     1       3.593   3.805  21.115  0.00  0.00    +0.000 HD
ENDROOT
BRANCH   1   3
ATOM      3  S   UNL     1       3.982   2.213  19.546  0.00  0.00    +0.000 S 
ATOM      4  O   UNL     1       3.013   1.703  18.603  0.00  0.00    +0.000 OA
ATOM      5  O   UNL     1       5.002   1.374  20.129  0.00  0.00    +0.000 OA
BRANCH   3   9
ATOM      6  C   UNL     1       5.999   5.864  17.635  0.00  0.00    +0.000 A 
ATOM      7  C   UNL     1       5.284   4.945  16.851  0.00  0.00    +0.000 A 
ATOM      8  C   UNL     1       4.679   3.826  17.431  0.00  0.00    +0.000 A 
ATOM      9  C   UNL     1       4.804   3.610  18.806  0.00  0.00    +0.000 A 
ATOM     10  C   UNL     1       5.510   4.512  19.603  0.00  0.00    +0.000 A 
ATOM     11  C   UNL     1       6.119   5.624  19.012  0.00  0.00    +0.000 A 
BRANCH   6  13
ATOM     12  C   UNL     1       7.588   7.778  17.507  0.00  0.00    +0.000 C 
ATOM     13  C   UNL     1       6.625   7.019  16.974  0.00  0.00    +0.000 C 
ENDBRANCH   6  13
ENDBRANCH   3   9
ENDBRANCH   1   3
BRANCH   1  14
ATOM     14  C   UNL     1       1.680   2.941  20.753  0.00  0.00    +0.000 C 
BRANCH  14  15
ATOM     15  C   UNL     1       1.132   4.350  20.517  0.00  0.00    +0.000 C 
BRANCH  15  16
ATOM     16  O   UNL     1       2.272   5.185  20.316  0.00  0.00    +0.000 OA
BRANCH  16  17
ATOM     17  C   UNL     1       2.084   6.471  19.906  0.00  0.00    +0.000 A 
ATOM     18  C   UNL     1       2.571   6.731  18.625  0.00  0.00    +0.000 A 
ATOM     19  C   UNL     1       2.420   7.990  18.047  0.00  0.00    +0.000 A 
ATOM     20  C   UNL     1       1.783   9.019  18.749  0.00  0.00    +0.000 A 
ATOM     21  C   UNL     1       1.572  10.274  18.157  0.00  0.00    +0.000 A 
ATOM     22  C   UNL     1       0.946  11.298  18.868  0.00  0.00    +0.000 A 
ATOM     23  C   UNL     1       0.553  11.088  20.186  0.00  0.00    +0.000 A 
ATOM     24  C   UNL     1       0.746   9.840  20.784  0.00  0.00    +0.000 A 
ATOM     25  C   UNL     1       1.336   8.783  20.070  0.00  0.00    +0.000 A 
ATOM     26  C   UNL     1       1.483   7.497  20.634  0.00  0.00    +0.000 A 
ENDBRANCH  16  17
ENDBRANCH  15  16
ENDBRANCH  14  15
ENDBRANCH   1  14
TORSDOF 7
ENDMDL
MODEL 6
REMARK VINA RESULT:      -7.8      2.275      3.718
REMARK  Name = 
REMARK  7 active torsions:
REMARK  status: ('A' for Active; 'I' for Inactive)
REMARK    1  A    between atoms: C_2  and  C_3
REMARK    2  A    between atoms: C_6  and  S_7
REMARK    3  A    between atoms: S_7  and  N_10
REMARK    4  A    between atoms: N_10  and  C_11
REMARK    5  A    between atoms: C_11  and  C_12
REMARK    6  A    between atoms: C_12  and  O_13
REMARK    7  A    between atoms: O_13  and  C_14
REMARK                            x       y       z     vdW  Elec       q    Type
REMARK                         _______ _______ _______ _____ _____    ______ ____
ROOT
ATOM      1  N   UNL     1       7.536   6.426  17.659  0.00  0.00    +0.000 NA
ATOM      2  H   UNL     1       8.099   6.672  16.845  0.00  0.00    +0.000 HD
ENDROOT
BRANCH   1   3
ATOM      3  S   UNL     1       7.268   4.752  17.723  0.00  0.00    +0.000 S 
ATOM      4  O   UNL     1       6.190   4.494  18.649  0.00  0.00    +0.000 OA
ATOM      5  O   UNL     1       8.567   4.139  17.866  0.00  0.00    +0.000 OA
BRANCH   3   9
ATOM      6  C   UNL     1       5.861   3.758  13.471  0.00  0.00    +0.000 A 
ATOM      7  C   UNL     1       6.997   4.554  13.685  0.00  0.00    +0.000 A 
ATOM      8  C   UNL     1       7.419   4.867  14.980  0.00  0.00    +0.000 A 
ATOM      9  C   UNL     1       6.691   4.396  16.075  0.00  0.00    +0.000 A 
ATOM     10  C   UNL     1       5.559   3.603  15.884  0.00  0.00    +0.000 A 
ATOM     11  C   UNL     1       5.139   3.302  14.584  0.00  0.00    +0.000 A 
BRANCH   6  13
ATOM     12  C   UNL     1       5.539   2.269  11.500  0.00  0.00    +0.000 C 
ATOM     13  C   UNL     1       5.454   3.467  12.088  0.00  0.00    +0.000 C 
ENDBRANCH   6  13
ENDBRANCH   3   9
ENDBRANCH   1   3
BRANCH   1  14
ATOM     14  C   UNL     1       6.371   7.290  17.925  0.00  0.00    +0.000 C 
BRANCH  14  15
ATOM     15  C   UNL     1       5.304   7.170  16.834  0.00  0.00    +0.000 C 
BRANCH  15  16
ATOM     16  O   UNL     1       4.067   7.512  17.457  0.00  0.00    +0.000 OA
BRANCH  16  17
ATOM     17  C   UNL     1       3.360   6.538  18.098  0.00  0.00    +0.000 A 
ATOM     18  C   UNL     1       2.884   6.920  19.352  0.00  0.00    +0.000 A 
ATOM     19  C   UNL     1       2.110   6.048  20.117  0.00  0.00    +0.000 A 
ATOM     20  C   UNL     1       1.806   4.769  19.640  0.00  0.00    +0.000 A 
ATOM     21  C   UNL     1       0.980   3.902  20.373  0.00  0.00    +0.000 A 
ATOM     22  C   UNL     1       0.691   2.624  19.895  0.00  0.00    +0.000 A 
ATOM     23  C   UNL     1       1.248   2.188  18.697  0.00  0.00    +0.000 A 
ATOM     24  C   UNL     1       2.063   3.044  17.951  0.00  0.00    +0.000 A 
ATOM     25  C   UNL     1       2.332   4.350  18.395  0.00  0.00    +0.000 A 
ATOM     26  C   UNL     1       3.100   5.252  17.627  0.00  0.00    +0.000 A 
ENDBRANCH  16  17
ENDBRANCH  15  16
ENDBRANCH  14  15
ENDBRANCH   1  14
TORSDOF 7
ENDMDL
MODEL 7
REMARK VINA RESULT:      -7.8      2.295      3.905
REMARK  Name = 
REMARK  7 active torsions:
REMARK  status: ('A' for Active; 'I' for Inactive)
REMARK    1  A    between atoms: C_2  and  C_3
REMARK    2  A    between atoms: C_6  and  S_7
REMARK    3  A    between atoms: S_7  and  N_10
REMARK    4  A    between atoms: N_10  and  C_11
REMARK    5  A    between atoms: C_11  and  C_12
REMARK    6  A    between atoms: C_12  and  O_13
REMARK    7  A    between atoms: O_13  and  C_14
REMARK                            x       y       z     vdW  Elec       q    Type
REMARK                         _______ _______ _______ _____ _____    ______ ____
ROOT
ATOM      1  N   UNL     1       6.370   6.243  16.277  0.00  0.00    +0.000 NA
ATOM      2  H   UNL     1       6.031   6.421  15.331  0.00  0.00    +0.000 HD
ENDROOT
BRANCH   1   3
ATOM      3  S   UNL     1       6.653   4.588  16.515  0.00  0.00    +0.000 S 
ATOM      4  O   UNL     1       7.803   4.437  17.377  0.00  0.00    +0.000 OA
ATOM      5  O   UNL     1       6.584   3.972  15.211  0.00  0.00    +0.000 OA
BRANCH   3   9
ATOM      6  C   UNL     1       2.942   3.176  18.814  0.00  0.00    +0.000 A 
ATOM      7  C   UNL     1       2.919   3.298  17.416  0.00  0.00    +0.000 A 
ATOM      8  C   UNL     1       4.045   3.740  16.716  0.00  0.00    +0.000 A 
ATOM      9  C   UNL     1       5.204   4.080  17.419  0.00  0.00    +0.000 A 
ATOM     10  C   UNL     1       5.248   3.964  18.809  0.00  0.00    +0.000 A 
ATOM     11  C   UNL     1       4.113   3.530  19.501  0.00  0.00    +0.000 A 
BRANCH   6  13
ATOM     12  C   UNL     1       1.133   3.354  20.517  0.00  0.00    +0.000 C 
ATOM     13  C   UNL     1       1.727   2.717  19.502  0.00  0.00    +0.000 C 
ENDBRANCH   6  13
ENDBRANCH   3   9
ENDBRANCH   1   3
BRANCH   1  14
ATOM     14  C   UNL     1       5.666   6.953  17.361  0.00  0.00    +0.000 C 
BRANCH  14  15
ATOM     15  C   UNL     1       4.344   7.560  16.887  0.00  0.00    +0.000 C 
BRANCH  15  16
ATOM     16  O   UNL     1       3.316   6.838  17.565  0.00  0.00    +0.000 OA
BRANCH  16  17
ATOM     17  C   UNL     1       2.546   7.490  18.482  0.00  0.00    +0.000 A 
ATOM     18  C   UNL     1       2.420   6.814  19.695  0.00  0.00    +0.000 A 
ATOM     19  C   UNL     1       1.696   7.369  20.749  0.00  0.00    +0.000 A 
ATOM     20  C   UNL     1       1.075   8.614  20.601  0.00  0.00    +0.000 A 
ATOM     21  C   UNL     1       0.392   9.212  21.672  0.00  0.00    +0.000 A 
ATOM     22  C   UNL     1      -0.234  10.448  21.514  0.00  0.00    +0.000 A 
ATOM     23  C   UNL     1      -0.210  11.085  20.277  0.00  0.00    +0.000 A 
ATOM     24  C   UNL     1       0.475  10.507  19.205  0.00  0.00    +0.000 A 
ATOM     25  C   UNL     1       1.148   9.283  19.356  0.00  0.00    +0.000 A 
ATOM     26  C   UNL     1       1.899   8.713  18.306  0.00  0.00    +0.000 A 
ENDBRANCH  16  17
ENDBRANCH  15  16
ENDBRANCH  14  15
ENDBRANCH   1  14
TORSDOF 7
ENDMDL
MODEL 8
REMARK VINA RESULT:      -7.8      2.966      3.709
REMARK  Name = 
REMARK  7 active torsions:
REMARK  status: ('A' for Active; 'I' for Inactive)
REMARK    1  A    between atoms: C_2  and  C_3
REMARK    2  A    between atoms: C_6  and  S_7
REMARK    3  A    between atoms: S_7  and  N_10
REMARK    4  A    between atoms: N_10  and  C_11
REMARK    5  A    between atoms: C_11  and  C_12
REMARK    6  A    between atoms: C_12  and  O_13
REMARK    7  A    between atoms: O_13  and  C_14
REMARK                            x       y       z     vdW  Elec       q    Type
REMARK                         _______ _______ _______ _____ _____    ______ ____
ROOT
ATOM      1  N   UNL     1       2.287   2.342  19.726  0.00  0.00    +0.000 NA
ATOM      2  H   UNL     1       1.686   1.520  19.655  0.00  0.00    +0.000 HD
ENDROOT
BRANCH   1   3
ATOM      3  S   UNL     1       3.889   1.953  19.326  0.00  0.00    +0.000 S 
ATOM      4  O   UNL     1       3.874   0.956  18.281  0.00  0.00    +0.000 OA
ATOM      5  O   UNL     1       4.581   1.747  20.576  0.00  0.00    +0.000 OA
BRANCH   3   9
ATOM      6  C   UNL     1       5.529   5.839  17.519  0.00  0.00    +0.000 A 
ATOM      7  C   UNL     1       5.906   5.430  18.808  0.00  0.00    +0.000 A 
ATOM      8  C   UNL     1       5.397   4.253  19.363  0.00  0.00    +0.000 A 
ATOM      9  C   UNL     1       4.489   3.482  18.633  0.00  0.00    +0.000 A 
ATOM     10  C   UNL     1       4.102   3.871  17.350  0.00  0.00    +0.000 A 
ATOM     11  C   UNL     1       4.609   5.055  16.806  0.00  0.00    +0.000 A 
BRANCH   6  13
ATOM     12  C   UNL     1       7.231   7.653  17.386  0.00  0.00    +0.000 C 
ATOM     13  C   UNL     1       6.085   7.091  16.986  0.00  0.00    +0.000 C 
ENDBRANCH   6  13
ENDBRANCH   3   9
ENDBRANCH   1   3
BRANCH   1  14
ATOM     14  C   UNL     1       2.092   3.186  20.918  0.00  0.00    +0.000 C 
BRANCH  14  15
ATOM     15  C   UNL     1       1.319   4.467  20.596  0.00  0.00    +0.000 C 
BRANCH  15  16
ATOM     16  O   UNL     1       2.217   5.544  20.864  0.00  0.00    +0.000 OA
BRANCH  16  17
ATOM     17  C   UNL     1       1.957   6.769  20.327  0.00  0.00    +0.000 A 
ATOM     18  C   UNL     1       2.481   6.947  19.046  0.00  0.00    +0.000 A 
ATOM     19  C   UNL     1       2.267   8.133  18.346  0.00  0.00    +0.000 A 
ATOM     20  C   UNL     1       1.527   9.171  18.923  0.00  0.00    +0.000 A 
ATOM     21  C   UNL     1       1.255  10.348  18.208  0.00  0.00    +0.000 A 
ATOM     22  C   UNL     1       0.526  11.382  18.794  0.00  0.00    +0.000 A 
ATOM     23  C   UNL     1       0.090  11.265  20.110  0.00  0.00    +0.000 A 
ATOM     24  C   UNL     1       0.344  10.095  20.831  0.00  0.00    +0.000 A 
ATOM     25  C   UNL     1       1.039   9.024  20.243  0.00  0.00    +0.000 A 
ATOM     26  C   UNL     1       1.252   7.810  20.931  0.00  0.00    +0.000 A 
ENDBRANCH  16  17
ENDBRANCH  15  16
ENDBRANCH  14  15
ENDBRANCH   1  14
TORSDOF 7
ENDMDL
MODEL 9
REMARK VINA RESULT:      -7.7      2.231      3.383
REMARK  Name = 
REMARK  7 active torsions:
REMARK  status: ('A' for Active; 'I' for Inactive)
REMARK    1  A    between atoms: C_2  and  C_3
REMARK    2  A    between atoms: C_6  and  S_7
REMARK    3  A    between atoms: S_7  and  N_10
REMARK    4  A    between atoms: N_10  and  C_11
REMARK    5  A    between atoms: C_11  and  C_12
REMARK    6  A    between atoms: C_12  and  O_13
REMARK    7  A    between atoms: O_13  and  C_14
REMARK                            x       y       z     vdW  Elec       q    Type
REMARK                         _______ _______ _______ _____ _____    ______ ____
ROOT
ATOM      1  N   UNL     1       6.683   6.382  16.681  0.00  0.00    +0.000 NA
ATOM      2  H   UNL     1       6.431   6.073  15.741  0.00  0.00    +0.000 HD
ENDROOT
BRANCH   1   3
ATOM      3  S   UNL     1       7.190   5.070  17.630  0.00  0.00    +0.000 S 
ATOM      4  O   UNL     1       7.725   5.580  18.871  0.00  0.00    +0.000 OA
ATOM      5  O   UNL     1       7.954   4.210  16.759  0.00  0.00    +0.000 OA
BRANCH   3   9
ATOM      6  C   UNL     1       3.283   2.835  18.517  0.00  0.00    +0.000 A 
ATOM      7  C   UNL     1       3.712   3.036  17.196  0.00  0.00    +0.000 A 
ATOM      8  C   UNL     1       4.896   3.728  16.925  0.00  0.00    +0.000 A 
ATOM      9  C   UNL     1       5.653   4.240  17.982  0.00  0.00    +0.000 A 
ATOM     10  C   UNL     1       5.244   4.050  19.303  0.00  0.00    +0.000 A 
ATOM     11  C   UNL     1       4.053   3.365  19.564  0.00  0.00    +0.000 A 
BRANCH   6  13
ATOM     12  C   UNL     1       0.822   2.681  18.874  0.00  0.00    +0.000 C 
ATOM     13  C   UNL     1       2.024   2.110  18.747  0.00  0.00    +0.000 C 
ENDBRANCH   6  13
ENDBRANCH   3   9
ENDBRANCH   1   3
BRANCH   1  14
ATOM     14  C   UNL     1       5.759   7.338  17.318  0.00  0.00    +0.000 C 
BRANCH  14  15
ATOM     15  C   UNL     1       4.373   7.318  16.669  0.00  0.00    +0.000 C 
BRANCH  15  16
ATOM     16  O   UNL     1       3.492   6.766  17.647  0.00  0.00    +0.000 OA
BRANCH  16  17
ATOM     17  C   UNL     1       2.686   7.604  18.358  0.00  0.00    +0.000 A 
ATOM     18  C   UNL     1       2.256   8.718  17.637  0.00  0.00    +0.000 A 
ATOM     19  C   UNL     1       1.394   9.651  18.212  0.00  0.00    +0.000 A 
ATOM     20  C   UNL     1       0.954   9.487  19.530  0.00  0.00    +0.000 A 
ATOM     21  C   UNL     1       0.041  10.387  20.103  0.00  0.00    +0.000 A 
ATOM     22  C   UNL     1      -0.385  10.223  21.421  0.00  0.00    +0.000 A 
ATOM     23  C   UNL     1       0.120   9.179  22.189  0.00  0.00    +0.000 A 
ATOM     24  C   UNL     1       1.021   8.269  21.628  0.00  0.00    +0.000 A 
ATOM     25  C   UNL     1       1.429   8.392  20.289  0.00  0.00    +0.000 A 
ATOM     26  C   UNL     1       2.288   7.449  19.685  0.00  0.00    +0.000 A 
ENDBRANCH  16  17
ENDBRANCH  15  16
ENDBRANCH  14  15
ENDBRANCH   1  14
TORSDOF 7
ENDMDL
