MODEL 1
REMARK VINA RESULT:      -6.7      0.000      0.000
REMARK  Name = 
REMARK  6 active torsions:
REMARK  status: ('A' for Active; 'I' for Inactive)
REMARK    1  A    between atoms: C_1  and  C_2
REMARK    2  A    between atoms: N_4  and  C_5
REMARK    3  A    between atoms: C_5  and  C_6
REMARK    4  A    between atoms: C_6  and  N_7
REMARK    5  A    between atoms: C_14  and  C_15
REMARK    6  A    between atoms: C_14  and  C_16
REMARK                            x       y       z     vdW  Elec       q    Type
REMARK                         _______ _______ _______ _____ _____    ______ ____
ROOT
ATOM      1  C   UNL     1       1.904   7.078  20.380  0.00  0.00    +0.000 C 
ATOM      2  C   UNL     1       2.054   5.659  19.843  0.00  0.00    +0.000 C 
ATOM      3  C   UNL     1       3.519   5.371  19.438  0.00  0.00    +0.000 C 
ATOM      4  N   UNL     1       3.721   3.957  19.040  0.00  0.00    +0.000 NA
ATOM      5  C   UNL     1       3.263   3.106  20.160  0.00  0.00    +0.000 C 
ATOM      6  C   UNL     1       1.780   3.374  20.525  0.00  0.00    +0.000 C 
ATOM      7  C   UNL     1       0.833   2.961  19.387  0.00  0.00    +0.000 C 
ATOM      8  C   UNL     1       1.422   2.564  21.778  0.00  0.00    +0.000 C 
ATOM      9  O   UNL     1       1.599   4.763  20.872  0.00  0.00    +0.000 OA
ENDROOT
BRANCH   4  10
ATOM     10  C   UNL     1       5.135   3.707  18.706  0.00  0.00    +0.000 C 
BRANCH  10  11
ATOM     11  C   UNL     1       5.921   4.911  18.134  0.00  0.00    +0.000 C 
BRANCH  11  12
ATOM     12  N   UNL     1       6.180   4.864  16.704  0.00  0.00    +0.000 N 
ATOM     13  C   UNL     1       5.765   3.790  15.859  0.00  0.00    +0.000 C 
ATOM     14  C   UNL     1       6.037   4.357  14.488  0.00  0.00    +0.000 C 
ATOM     15  O   UNL     1       7.038   5.360  14.696  0.00  0.00    +0.000 OA
ATOM     16  C   UNL     1       7.008   5.717  16.020  0.00  0.00    +0.000 C 
ATOM     17  O   UNL     1       7.631   6.659  16.478  0.00  0.00    +0.000 OA
ENDBRANCH  11  12
ENDBRANCH  10  11
ENDBRANCH   4  10
TORSDOF 3
ENDMDL
MODEL 2
REMARK VINA RESULT:      -6.6      1.747      6.474
REMARK  Name = 
REMARK  6 active torsions:
REMARK  status: ('A' for Active; 'I' for Inactive)
REMARK    1  A    between atoms: C_1  and  C_2
REMARK    2  A    between atoms: N_4  and  C_5
REMARK    3  A    between atoms: C_5  and  C_6
REMARK    4  A    between atoms: C_6  and  N_7
REMARK    5  A    between atoms: C_14  and  C_15
REMARK    6  A    between atoms: C_14  and  C_16
REMARK                            x       y       z     vdW  Elec       q    Type
REMARK                         _______ _______ _______ _____ _____    ______ ____
ROOT
ATOM      1  C   UNL     1       7.129   4.598  13.957  0.00  0.00    +0.000 C 
ATOM      2  C   UNL     1       6.364   5.136  15.162  0.00  0.00    +0.000 C 
ATOM      3  C   UNL     1       5.196   4.195  15.541  0.00  0.00    +0.000 C 
ATOM      4  N   UNL     1       4.518   4.622  16.789  0.00  0.00    +0.000 NA
ATOM      5  C   UNL     1       5.547   4.707  17.850  0.00  0.00    +0.000 C 
ATOM      6  C   UNL     1       6.688   5.687  17.475  0.00  0.00    +0.000 C 
ATOM      7  C   UNL     1       6.185   7.137  17.385  0.00  0.00    +0.000 C 
ATOM      8  C   UNL     1       7.780   5.613  18.551  0.00  0.00    +0.000 C 
ATOM      9  O   UNL     1       7.307   5.275  16.238  0.00  0.00    +0.000 OA
ENDROOT
BRANCH   4  10
ATOM     10  C   UNL     1       3.442   3.680  17.146  0.00  0.00    +0.000 C 
BRANCH  10  11
ATOM     11  C   UNL     1       2.211   4.292  17.855  0.00  0.00    +0.000 C 
BRANCH  11  12
ATOM     12  N   UNL     1       1.970   3.819  19.208  0.00  0.00    +0.000 N 
ATOM     13  C   UNL     1       2.803   4.150  20.321  0.00  0.00    +0.000 C 
ATOM     14  C   UNL     1       1.978   3.646  21.479  0.00  0.00    +0.000 C 
ATOM     15  O   UNL     1       1.125   2.643  20.915  0.00  0.00    +0.000 OA
ATOM     16  C   UNL     1       1.059   2.858  19.562  0.00  0.00    +0.000 C 
ATOM     17  O   UNL     1       0.290   2.269  18.823  0.00  0.00    +0.000 OA
ENDBRANCH  11  12
ENDBRANCH  10  11
ENDBRANCH   4  10
TORSDOF 3
ENDMDL
MODEL 3
REMARK VINA RESULT:      -6.6      1.926      5.877
REMARK  Name = 
REMARK  6 active torsions:
REMARK  status: ('A' for Active; 'I' for Inactive)
REMARK    1  A    between atoms: C_1  and  C_2
REMARK    2  A    between atoms: N_4  and  C_5
REMARK    3  A    between atoms: C_5  and  C_6
REMARK    4  A    between atoms: C_6  and  N_7
REMARK    5  A    between atoms: C_14  and  C_15
REMARK    6  A    between atoms: C_14  and  C_16
REMARK                            x       y       z     vdW  Elec       q    Type
REMARK                         _______ _______ _______ _____ _____    ______ ____
ROOT
ATOM      1  C   UNL     1       6.770   4.328  14.770  0.00  0.00    +0.000 C 
ATOM      2  C   UNL     1       6.506   5.407  15.816  0.00  0.00    +0.000 C 
ATOM      3  C   UNL     1       5.045   5.345  16.319  0.00  0.00    +0.000 C 
ATOM      4  N   UNL     1       4.797   6.293  17.432  0.00  0.00    +0.000 NA
ATOM      5  C   UNL     1       5.779   5.997  18.499  0.00  0.00    +0.000 C 
ATOM      6  C   UNL     1       7.240   6.107  17.991  0.00  0.00    +0.000 C 
ATOM      7  C   UNL     1       7.598   7.550  17.602  0.00  0.00    +0.000 C 
ATOM      8  C   UNL     1       8.189   5.650  19.106  0.00  0.00    +0.000 C 
ATOM      9  O   UNL     1       7.447   5.205  16.884  0.00  0.00    +0.000 OA
ENDROOT
BRANCH   4  10
ATOM     10  C   UNL     1       3.411   6.175  17.918  0.00  0.00    +0.000 C 
BRANCH  10  11
ATOM     11  C   UNL     1       3.224   5.442  19.268  0.00  0.00    +0.000 C 
BRANCH  11  12
ATOM     12  N   UNL     1       2.772   4.063  19.172  0.00  0.00    +0.000 N 
ATOM     13  C   UNL     1       1.399   3.687  19.066  0.00  0.00    +0.000 C 
ATOM     14  C   UNL     1       1.509   2.220  18.733  0.00  0.00    +0.000 C 
ATOM     15  O   UNL     1       2.794   1.825  19.229  0.00  0.00    +0.000 OA
ATOM     16  C   UNL     1       3.557   2.956  19.368  0.00  0.00    +0.000 C 
ATOM     17  O   UNL     1       4.750   2.938  19.619  0.00  0.00    +0.000 OA
ENDBRANCH  11  12
ENDBRANCH  10  11
ENDBRANCH   4  10
TORSDOF 3
ENDMDL
MODEL 4
REMARK VINA RESULT:      -6.6      1.857      6.113
REMARK  Name = 
REMARK  6 active torsions:
REMARK  status: ('A' for Active; 'I' for Inactive)
REMARK    1  A    between atoms: C_1  and  C_2
REMARK    2  A    between atoms: N_4  and  C_5
REMARK    3  A    between atoms: C_5  and  C_6
REMARK    4  A    between atoms: C_6  and  N_7
REMARK    5  A    between atoms: C_14  and  C_15
REMARK    6  A    between atoms: C_14  and  C_16
REMARK                            x       y       z     vdW  Elec       q    Type
REMARK                         _______ _______ _______ _____ _____    ______ ____
ROOT
ATOM      1  C   UNL     1       6.516   4.012  14.894  0.00  0.00    +0.000 C 
ATOM      2  C   UNL     1       6.294   5.130  15.907  0.00  0.00    +0.000 C 
ATOM      3  C   UNL     1       4.862   5.074  16.489  0.00  0.00    +0.000 C 
ATOM      4  N   UNL     1       4.661   6.064  17.574  0.00  0.00    +0.000 NA
ATOM      5  C   UNL     1       5.701   5.823  18.599  0.00  0.00    +0.000 C 
ATOM      6  C   UNL     1       7.131   5.926  18.011  0.00  0.00    +0.000 C 
ATOM      7  C   UNL     1       7.451   7.356  17.545  0.00  0.00    +0.000 C 
ATOM      8  C   UNL     1       8.143   5.525  19.092  0.00  0.00    +0.000 C 
ATOM      9  O   UNL     1       7.291   4.981  16.932  0.00  0.00    +0.000 OA
ENDROOT
BRANCH   4  10
ATOM     10  C   UNL     1       3.303   5.953  18.136  0.00  0.00    +0.000 C 
BRANCH  10  11
ATOM     11  C   UNL     1       2.702   4.527  18.182  0.00  0.00    +0.000 C 
BRANCH  11  12
ATOM     12  N   UNL     1       2.627   3.923  19.502  0.00  0.00    +0.000 N 
ATOM     13  C   UNL     1       1.939   4.515  20.605  0.00  0.00    +0.000 C 
ATOM     14  C   UNL     1       1.942   3.388  21.607  0.00  0.00    +0.000 C 
ATOM     15  O   UNL     1       3.048   2.561  21.228  0.00  0.00    +0.000 OA
ATOM     16  C   UNL     1       3.350   2.835  19.919  0.00  0.00    +0.000 C 
ATOM     17  O   UNL     1       4.141   2.184  19.258  0.00  0.00    +0.000 OA
ENDBRANCH  11  12
ENDBRANCH  10  11
ENDBRANCH   4  10
TORSDOF 3
ENDMDL
MODEL 5
REMARK VINA RESULT:      -6.5      1.619      6.179
REMARK  Name = 
REMARK  6 active torsions:
REMARK  status: ('A' for Active; 'I' for Inactive)
REMARK    1  A    between atoms: C_1  and  C_2
REMARK    2  A    between atoms: N_4  and  C_5
REMARK    3  A    between atoms: C_5  and  C_6
REMARK    4  A    between atoms: C_6  and  N_7
REMARK    5  A    between atoms: C_14  and  C_15
REMARK    6  A    between atoms: C_14  and  C_16
REMARK                            x       y       z     vdW  Elec       q    Type
REMARK                         _______ _______ _______ _____ _____    ______ ____
ROOT
ATOM      1  C   UNL     1       6.572   4.248  14.836  0.00  0.00    +0.000 C 
ATOM      2  C   UNL     1       6.357   5.358  15.860  0.00  0.00    +0.000 C 
ATOM      3  C   UNL     1       4.897   5.364  16.372  0.00  0.00    +0.000 C 
ATOM      4  N   UNL     1       4.693   6.344  17.466  0.00  0.00    +0.000 NA
ATOM      5  C   UNL     1       5.670   6.033  18.534  0.00  0.00    +0.000 C 
ATOM      6  C   UNL     1       7.130   6.074  18.017  0.00  0.00    +0.000 C 
ATOM      7  C   UNL     1       7.543   7.494  17.596  0.00  0.00    +0.000 C 
ATOM      8  C   UNL     1       8.068   5.603  19.136  0.00  0.00    +0.000 C 
ATOM      9  O   UNL     1       7.295   5.141  16.928  0.00  0.00    +0.000 OA
ENDROOT
BRANCH   4  10
ATOM     10  C   UNL     1       3.306   6.292  17.961  0.00  0.00    +0.000 C 
BRANCH  10  11
ATOM     11  C   UNL     1       3.104   5.632  19.346  0.00  0.00    +0.000 C 
BRANCH  11  12
ATOM     12  N   UNL     1       2.257   4.450  19.358  0.00  0.00    +0.000 N 
ATOM     13  C   UNL     1       1.539   3.981  18.216  0.00  0.00    +0.000 C 
ATOM     14  C   UNL     1       1.066   2.629  18.687  0.00  0.00    +0.000 C 
ATOM     15  O   UNL     1       1.057   2.720  20.117  0.00  0.00    +0.000 OA
ATOM     16  C   UNL     1       1.878   3.757  20.478  0.00  0.00    +0.000 C 
ATOM     17  O   UNL     1       2.205   3.989  21.629  0.00  0.00    +0.000 OA
ENDBRANCH  11  12
ENDBRANCH  10  11
ENDBRANCH   4  10
TORSDOF 3
ENDMDL
MODEL 6
REMARK VINA RESULT:      -6.4      2.085      5.711
REMARK  Name = 
REMARK  6 active torsions:
REMARK  status: ('A' for Active; 'I' for Inactive)
REMARK    1  A    between atoms: C_1  and  C_2
REMARK    2  A    between atoms: N_4  and  C_5
REMARK    3  A    between atoms: C_5  and  C_6
REMARK    4  A    between atoms: C_6  and  N_7
REMARK    5  A    between atoms: C_14  and  C_15
REMARK    6  A    between atoms: C_14  and  C_16
REMARK                            x       y       z     vdW  Elec       q    Type
REMARK                         _______ _______ _______ _____ _____    ______ ____
ROOT
ATOM      1  C   UNL     1       6.543   4.099  14.971  0.00  0.00    +0.000 C 
ATOM      2  C   UNL     1       6.348   5.231  15.974  0.00  0.00    +0.000 C 
ATOM      3  C   UNL     1       4.892   5.265  16.496  0.00  0.00    +0.000 C 
ATOM      4  N   UNL     1       4.707   6.268  17.572  0.00  0.00    +0.000 NA
ATOM      5  C   UNL     1       5.687   5.966  18.639  0.00  0.00    +0.000 C 
ATOM      6  C   UNL     1       7.144   5.980  18.111  0.00  0.00    +0.000 C 
ATOM      7  C   UNL     1       7.571   7.386  17.659  0.00  0.00    +0.000 C 
ATOM      8  C   UNL     1       8.084   5.520  19.233  0.00  0.00    +0.000 C 
ATOM      9  O   UNL     1       7.291   5.024  17.040  0.00  0.00    +0.000 OA
ENDROOT
BRANCH   4  10
ATOM     10  C   UNL     1       3.323   6.242  18.077  0.00  0.00    +0.000 C 
BRANCH  10  11
ATOM     11  C   UNL     1       3.031   5.222  19.204  0.00  0.00    +0.000 C 
BRANCH  11  12
ATOM     12  N   UNL     1       2.972   3.831  18.787  0.00  0.00    +0.000 N 
ATOM     13  C   UNL     1       3.990   2.873  19.081  0.00  0.00    +0.000 C 
ATOM     14  C   UNL     1       3.323   1.583  18.674  0.00  0.00    +0.000 C 
ATOM     15  O   UNL     1       2.321   1.970  17.726  0.00  0.00    +0.000 OA
ATOM     16  C   UNL     1       2.060   3.304  17.909  0.00  0.00    +0.000 C 
ATOM     17  O   UNL     1       1.144   3.892  17.363  0.00  0.00    +0.000 OA
ENDBRANCH  11  12
ENDBRANCH  10  11
ENDBRANCH   4  10
TORSDOF 3
ENDMDL
MODEL 7
REMARK VINA RESULT:      -6.4      1.496      6.141
REMARK  Name = 
REMARK  6 active torsions:
REMARK  status: ('A' for Active; 'I' for Inactive)
REMARK    1  A    between atoms: C_1  and  C_2
REMARK    2  A    between atoms: N_4  and  C_5
REMARK    3  A    between atoms: C_5  and  C_6
REMARK    4  A    between atoms: C_6  and  N_7
REMARK    5  A    between atoms: C_14  and  C_15
REMARK    6  A    between atoms: C_14  and  C_16
REMARK                            x       y       z     vdW  Elec       q    Type
REMARK                         _______ _______ _______ _____ _____    ______ ____
ROOT
ATOM      1  C   UNL     1       7.088   4.639  13.976  0.00  0.00    +0.000 C 
ATOM      2  C   UNL     1       6.289   5.110  15.186  0.00  0.00    +0.000 C 
ATOM      3  C   UNL     1       5.265   4.038  15.625  0.00  0.00    +0.000 C 
ATOM      4  N   UNL     1       4.568   4.411  16.880  0.00  0.00    +0.000 NA
ATOM      5  C   UNL     1       5.602   4.665  17.908  0.00  0.00    +0.000 C 
ATOM      6  C   UNL     1       6.595   5.773  17.473  0.00  0.00    +0.000 C 
ATOM      7  C   UNL     1       5.903   7.141  17.355  0.00  0.00    +0.000 C 
ATOM      8  C   UNL     1       7.713   5.878  18.518  0.00  0.00    +0.000 C 
ATOM      9  O   UNL     1       7.232   5.406  16.231  0.00  0.00    +0.000 OA
ENDROOT
BRANCH   4  10
ATOM     10  C   UNL     1       3.635   3.349  17.294  0.00  0.00    +0.000 C 
BRANCH  10  11
ATOM     11  C   UNL     1       2.283   3.823  17.880  0.00  0.00    +0.000 C 
BRANCH  11  12
ATOM     12  N   UNL     1       2.181   3.775  19.330  0.00  0.00    +0.000 N 
ATOM     13  C   UNL     1       1.534   2.720  20.042  0.00  0.00    +0.000 C 
ATOM     14  C   UNL     1       1.942   3.016  21.464  0.00  0.00    +0.000 C 
ATOM     15  O   UNL     1       2.251   4.415  21.474  0.00  0.00    +0.000 OA
ATOM     16  C   UNL     1       2.500   4.801  20.182  0.00  0.00    +0.000 C 
ATOM     17  O   UNL     1       2.944   5.894  19.878  0.00  0.00    +0.000 OA
ENDBRANCH  11  12
ENDBRANCH  10  11
ENDBRANCH   4  10
TORSDOF 3
ENDMDL
MODEL 8
REMARK VINA RESULT:      -6.4      1.935      6.162
REMARK  Name = 
REMARK  6 active torsions:
REMARK  status: ('A' for Active; 'I' for Inactive)
REMARK    1  A    between atoms: C_1  and  C_2
REMARK    2  A    between atoms: N_4  and  C_5
REMARK    3  A    between atoms: C_5  and  C_6
REMARK    4  A    between atoms: C_6  and  N_7
REMARK    5  A    between atoms: C_14  and  C_15
REMARK    6  A    between atoms: C_14  and  C_16
REMARK                            x       y       z     vdW  Elec       q    Type
REMARK                         _______ _______ _______ _____ _____    ______ ____
ROOT
ATOM      1  C   UNL     1       5.991   3.851  15.162  0.00  0.00    +0.000 C 
ATOM      2  C   UNL     1       5.936   5.047  16.106  0.00  0.00    +0.000 C 
ATOM      3  C   UNL     1       4.554   5.150  16.792  0.00  0.00    +0.000 C 
ATOM      4  N   UNL     1       4.516   6.222  17.815  0.00  0.00    +0.000 NA
ATOM      5  C   UNL     1       5.610   5.963  18.777  0.00  0.00    +0.000 C 
ATOM      6  C   UNL     1       6.994   5.907  18.081  0.00  0.00    +0.000 C 
ATOM      7  C   UNL     1       7.389   7.272  17.492  0.00  0.00    +0.000 C 
ATOM      8  C   UNL     1       8.053   5.495  19.112  0.00  0.00    +0.000 C 
ATOM      9  O   UNL     1       6.996   4.884  17.064  0.00  0.00    +0.000 OA
ENDROOT
BRANCH   4  10
ATOM     10  C   UNL     1       3.201   6.262  18.480  0.00  0.00    +0.000 C 
BRANCH  10  11
ATOM     11  C   UNL     1       2.211   5.137  18.095  0.00  0.00    +0.000 C 
BRANCH  11  12
ATOM     12  N   UNL     1       1.941   4.159  19.136  0.00  0.00    +0.000 N 
ATOM     13  C   UNL     1       2.080   4.431  20.531  0.00  0.00    +0.000 C 
ATOM     14  C   UNL     1       1.436   3.212  21.145  0.00  0.00    +0.000 C 
ATOM     15  O   UNL     1       1.530   2.199  20.137  0.00  0.00    +0.000 OA
ATOM     16  C   UNL     1       1.719   2.821  18.930  0.00  0.00    +0.000 C 
ATOM     17  O   UNL     1       1.680   2.242  17.859  0.00  0.00    +0.000 OA
ENDBRANCH  11  12
ENDBRANCH  10  11
ENDBRANCH   4  10
TORSDOF 3
ENDMDL
MODEL 9
REMARK VINA RESULT:      -6.3      1.964      5.950
REMARK  Name = 
REMARK  6 active torsions:
REMARK  status: ('A' for Active; 'I' for Inactive)
REMARK    1  A    between atoms: C_1  and  C_2
REMARK    2  A    between atoms: N_4  and  C_5
REMARK    3  A    between atoms: C_5  and  C_6
REMARK    4  A    between atoms: C_6  and  N_7
REMARK    5  A    between atoms: C_14  and  C_15
REMARK    6  A    between atoms: C_14  and  C_16
REMARK                            x       y       z     vdW  Elec       q    Type
REMARK                         _______ _______ _______ _____ _____    ______ ____
ROOT
ATOM      1  C   UNL     1       8.199   7.584  18.435  0.00  0.00    +0.000 C 
ATOM      2  C   UNL     1       7.577   6.275  17.959  0.00  0.00    +0.000 C 
ATOM      3  C   UNL     1       6.676   5.659  19.054  0.00  0.00    +0.000 C 
ATOM      4  N   UNL     1       5.953   4.458  18.571  0.00  0.00    +0.000 NA
ATOM      5  C   UNL     1       5.193   4.848  17.363  0.00  0.00    +0.000 C 
ATOM      6  C   UNL     1       6.115   5.423  16.257  0.00  0.00    +0.000 C 
ATOM      7  C   UNL     1       7.079   4.357  15.712  0.00  0.00    +0.000 C 
ATOM      8  C   UNL     1       5.246   5.934  15.101  0.00  0.00    +0.000 C 
ATOM      9  O   UNL     1       6.837   6.566  16.761  0.00  0.00    +0.000 OA
ENDROOT
BRANCH   4  10
ATOM     10  C   UNL     1       5.069   3.924  19.623  0.00  0.00    +0.000 C 
BRANCH  10  11
ATOM     11  C   UNL     1       4.275   2.647  19.259  0.00  0.00    +0.000 C 
BRANCH  11  12
ATOM     12  N   UNL     1       2.829   2.761  19.363  0.00  0.00    +0.000 N 
ATOM     13  C   UNL     1       2.114   2.661  20.596  0.00  0.00    +0.000 C 
ATOM     14  C   UNL     1       0.734   3.109  20.185  0.00  0.00    +0.000 C 
ATOM     15  O   UNL     1       0.671   2.864  18.775  0.00  0.00    +0.000 OA
ATOM     16  C   UNL     1       1.956   2.777  18.305  0.00  0.00    +0.000 C 
ATOM     17  O   UNL     1       2.239   2.730  17.121  0.00  0.00    +0.000 OA
ENDBRANCH  11  12
ENDBRANCH  10  11
ENDBRANCH   4  10
TORSDOF 3
ENDMDL
