MODEL 1
REMARK VINA RESULT:      -8.5      0.000      0.000
REMARK  Name = 
REMARK  5 active torsions:
REMARK  status: ('A' for Active; 'I' for Inactive)
REMARK    1  A    between atoms: C_1  and  O_2
REMARK    2  A    between atoms: O_2  and  C_3
REMARK    3  A    between atoms: C_7  and  C_8
REMARK    4  A    between atoms: C_11  and  C_13
REMARK    5  A    between atoms: C_13  and  O_14
REMARK                            x       y       z     vdW  Elec       q    Type
REMARK                         _______ _______ _______ _____ _____    ______ ____
ROOT
ATOM      1  C   UNL     1       2.713   6.165  18.387  0.00  0.00    +0.000 C 
ATOM      2  C   UNL     1       1.673   5.112  17.945  0.00  0.00    +0.000 C 
ATOM      3  N   UNL     1       1.827   3.835  18.677  0.00  0.00    +0.000 N 
ATOM      4  C   UNL     1       2.628   2.833  18.117  0.00  0.00    +0.000 C 
ATOM      5  O   UNL     1       3.215   2.996  17.044  0.00  0.00    +0.000 OA
ATOM      6  C   UNL     1       1.604   3.945  20.122  0.00  0.00    +0.000 C 
ATOM      7  C   UNL     1       2.454   5.066  20.747  0.00  0.00    +0.000 C 
ATOM      8  C   UNL     1       3.345   5.616  19.674  0.00  0.00    +0.000 C 
ATOM      9  N   UNL     1       4.646   5.514  19.673  0.00  0.00    +0.000 NA
ATOM     10  C   UNL     1       5.043   5.826  18.347  0.00  0.00    +0.000 A 
ATOM     11  C   UNL     1       3.954   6.205  17.541  0.00  0.00    +0.000 A 
ATOM     12  C   UNL     1       4.076   6.387  16.173  0.00  0.00    +0.000 A 
ATOM     13  C   UNL     1       5.317   6.138  15.593  0.00  0.00    +0.000 A 
ATOM     14  C   UNL     1       6.418   5.755  16.383  0.00  0.00    +0.000 A 
ATOM     15 CL   UNL     1       7.892   5.395  15.552  0.00  0.00    +0.000 Cl
ATOM     16  C   UNL     1       6.295   5.620  17.776  0.00  0.00    +0.000 A 
ATOM     17 CL   UNL     1       7.619   5.139  18.777  0.00  0.00    +0.000 Cl
ENDROOT
BRANCH   1  22
ATOM     18  C   UNL     1       0.592  10.026  21.622  0.00  0.00    +0.000 A 
ATOM     19  C   UNL     1       0.719   8.671  21.920  0.00  0.00    +0.000 A 
ATOM     20  C   UNL     1       1.243   7.768  20.980  0.00  0.00    +0.000 A 
ATOM     21  C   UNL     1       1.656   8.227  19.708  0.00  0.00    +0.000 A 
ATOM     22  C   UNL     1       2.263   7.605  18.560  0.00  0.00    +0.000 A 
ATOM     23  C   UNL     1       2.351   8.611  17.603  0.00  0.00    +0.000 A 
ATOM     24  N   UNL     1       1.879   9.781  18.131  0.00  0.00    +0.000 N 
ATOM     25  C   UNL     1       1.474   9.583  19.425  0.00  0.00    +0.000 A 
ATOM     26  C   UNL     1       0.958  10.500  20.359  0.00  0.00    +0.000 A 
ATOM     27  H   UNL     1       1.830  10.666  17.642  0.00  0.00    +0.000 HD
BRANCH  18  29
ATOM     28  C   UNL     1      -1.133  10.732  23.097  0.00  0.00    +0.000 C 
ATOM     29  O   UNL     1       0.121  10.989  22.476  0.00  0.00    +0.000 OA
ENDBRANCH  18  29
ENDBRANCH   1  22
BRANCH   4  30
ATOM     30  C   UNL     1       2.791   1.510  18.894  0.00  0.00    +0.000 C 
BRANCH  30  31
ATOM     31  O   UNL     1       3.912   0.724  18.523  0.00  0.00    +0.000 OA
ATOM     32  H   UNL     1       3.572  -0.026  18.004  0.00  0.00    +0.000 HD
ENDBRANCH  30  31
ENDBRANCH   4  30
TORSDOF 4
ENDMDL
MODEL 2
REMARK VINA RESULT:      -8.2      5.049      9.147
REMARK  Name = 
REMARK  5 active torsions:
REMARK  status: ('A' for Active; 'I' for Inactive)
REMARK    1  A    between atoms: C_1  and  O_2
REMARK    2  A    between atoms: O_2  and  C_3
REMARK    3  A    between atoms: C_7  and  C_8
REMARK    4  A    between atoms: C_11  and  C_13
REMARK    5  A    between atoms: C_13  and  O_14
REMARK                            x       y       z     vdW  Elec       q    Type
REMARK                         _______ _______ _______ _____ _____    ______ ____
ROOT
ATOM      1  C   UNL     1       0.079  11.402  19.777  0.00  0.00    +0.000 C 
ATOM      2  C   UNL     1       1.130  12.360  19.173  0.00  0.00    +0.000 C 
ATOM      3  N   UNL     1       0.950  13.751  19.643  0.00  0.00    +0.000 N 
ATOM      4  C   UNL     1       0.166  14.622  18.878  0.00  0.00    +0.000 C 
ATOM      5  O   UNL     1      -0.386  14.253  17.839  0.00  0.00    +0.000 OA
ATOM      6  C   UNL     1       1.128  13.921  21.089  0.00  0.00    +0.000 C 
ATOM      7  C   UNL     1       0.261  12.934  21.890  0.00  0.00    +0.000 C 
ATOM      8  C   UNL     1      -0.595  12.182  20.915  0.00  0.00    +0.000 C 
ATOM      9  N   UNL     1      -1.895  12.271  20.855  0.00  0.00    +0.000 NA
ATOM     10  C   UNL     1      -2.249  11.709  19.601  0.00  0.00    +0.000 A 
ATOM     11  C   UNL     1      -1.134  11.192  18.916  0.00  0.00    +0.000 A 
ATOM     12  C   UNL     1      -1.213  10.751  17.605  0.00  0.00    +0.000 A 
ATOM     13  C   UNL     1      -2.436  10.875  16.950  0.00  0.00    +0.000 A 
ATOM     14  C   UNL     1      -3.562  11.393  17.619  0.00  0.00    +0.000 A 
ATOM     15 CL   UNL     1      -5.010  11.576  16.689  0.00  0.00    +0.000 Cl
ATOM     16  C   UNL     1      -3.483  11.792  18.964  0.00  0.00    +0.000 A 
ATOM     17 CL   UNL     1      -4.839  12.445  19.813  0.00  0.00    +0.000 Cl
ENDROOT
BRANCH   1  22
ATOM     18  C   UNL     1       2.834   6.805  18.709  0.00  0.00    +0.000 A 
ATOM     19  C   UNL     1       2.592   7.853  17.823  0.00  0.00    +0.000 A 
ATOM     20  C   UNL     1       1.828   8.966  18.209  0.00  0.00    +0.000 A 
ATOM     21  C   UNL     1       1.290   9.040  19.514  0.00  0.00    +0.000 A 
ATOM     22  C   UNL     1       0.526  10.025  20.235  0.00  0.00    +0.000 A 
ATOM     23  C   UNL     1       0.259   9.447  21.472  0.00  0.00    +0.000 A 
ATOM     24  N   UNL     1       0.851   8.216  21.534  0.00  0.00    +0.000 N 
ATOM     25  C   UNL     1       1.512   7.953  20.363  0.00  0.00    +0.000 A 
ATOM     26  C   UNL     1       2.283   6.835  19.993  0.00  0.00    +0.000 A 
ATOM     27  H   UNL     1       0.809   7.586  22.324  0.00  0.00    +0.000 HD
BRANCH  18  29
ATOM     28  C   UNL     1       4.682   5.439  19.313  0.00  0.00    +0.000 C 
ATOM     29  O   UNL     1       3.587   5.692  18.441  0.00  0.00    +0.000 OA
ENDBRANCH  18  29
ENDBRANCH   1  22
BRANCH   4  30
ATOM     30  C   UNL     1      -0.025  16.068  19.383  0.00  0.00    +0.000 C 
BRANCH  30  31
ATOM     31  O   UNL     1      -1.218  16.706  18.956  0.00  0.00    +0.000 OA
ATOM     32  H   UNL     1      -1.914  16.453  19.587  0.00  0.00    +0.000 HD
ENDBRANCH  30  31
ENDBRANCH   4  30
TORSDOF 4
ENDMDL
MODEL 3
REMARK VINA RESULT:      -8.0      5.802      8.731
REMARK  Name = 
REMARK  5 active torsions:
REMARK  status: ('A' for Active; 'I' for Inactive)
REMARK    1  A    between atoms: C_1  and  O_2
REMARK    2  A    between atoms: O_2  and  C_3
REMARK    3  A    between atoms: C_7  and  C_8
REMARK    4  A    between atoms: C_11  and  C_13
REMARK    5  A    between atoms: C_13  and  O_14
REMARK                            x       y       z     vdW  Elec       q    Type
REMARK                         _______ _______ _______ _____ _____    ______ ____
ROOT
ATOM      1  C   UNL     1      -1.019  12.756  20.532  0.00  0.00    +0.000 C 
ATOM      2  C   UNL     1      -0.287  13.793  21.413  0.00  0.00    +0.000 C 
ATOM      3  N   UNL     1       0.810  14.467  20.684  0.00  0.00    +0.000 N 
ATOM      4  C   UNL     1       2.101  13.934  20.772  0.00  0.00    +0.000 C 
ATOM      5  O   UNL     1       2.339  12.916  21.426  0.00  0.00    +0.000 OA
ATOM      6  C   UNL     1       0.364  15.256  19.531  0.00  0.00    +0.000 C 
ATOM      7  C   UNL     1      -0.525  14.431  18.584  0.00  0.00    +0.000 C 
ATOM      8  C   UNL     1      -0.551  13.021  19.094  0.00  0.00    +0.000 C 
ATOM      9  N   UNL     1      -0.044  12.000  18.461  0.00  0.00    +0.000 NA
ATOM     10  C   UNL     1       0.043  10.967  19.431  0.00  0.00    +0.000 A 
ATOM     11  C   UNL     1      -0.502  11.352  20.669  0.00  0.00    +0.000 A 
ATOM     12  C   UNL     1      -0.374  10.571  21.807  0.00  0.00    +0.000 A 
ATOM     13  C   UNL     1       0.360   9.393  21.707  0.00  0.00    +0.000 A 
ATOM     14  C   UNL     1       0.917   8.993  20.476  0.00  0.00    +0.000 A 
ATOM     15 CL   UNL     1       1.876   7.553  20.481  0.00  0.00    +0.000 Cl
ATOM     16  C   UNL     1       0.740   9.768  19.318  0.00  0.00    +0.000 A 
ATOM     17 CL   UNL     1       1.418   9.316  17.794  0.00  0.00    +0.000 Cl
ENDROOT
BRANCH   1  22
ATOM     18  C   UNL     1      -5.528  12.887  23.618  0.00  0.00    +0.000 A 
ATOM     19  C   UNL     1      -4.210  12.901  24.072  0.00  0.00    +0.000 A 
ATOM     20  C   UNL     1      -3.134  12.818  23.174  0.00  0.00    +0.000 A 
ATOM     21  C   UNL     1      -3.374  12.720  21.784  0.00  0.00    +0.000 A 
ATOM     22  C   UNL     1      -2.533  12.668  20.617  0.00  0.00    +0.000 A 
ATOM     23  C   UNL     1      -3.405  12.506  19.545  0.00  0.00    +0.000 A 
ATOM     24  N   UNL     1      -4.692  12.505  20.004  0.00  0.00    +0.000 N 
ATOM     25  C   UNL     1      -4.706  12.662  21.365  0.00  0.00    +0.000 A 
ATOM     26  C   UNL     1      -5.795  12.753  22.253  0.00  0.00    +0.000 A 
ATOM     27  H   UNL     1      -5.519  12.400  19.430  0.00  0.00    +0.000 HD
BRANCH  18  29
ATOM     28  C   UNL     1      -7.529  14.066  24.119  0.00  0.00    +0.000 C 
ATOM     29  O   UNL     1      -6.644  12.991  24.407  0.00  0.00    +0.000 OA
ENDBRANCH  18  29
ENDBRANCH   1  22
BRANCH   4  30
ATOM     30  C   UNL     1       3.236  14.638  19.999  0.00  0.00    +0.000 C 
BRANCH  30  31
ATOM     31  O   UNL     1       3.539  14.083  18.729  0.00  0.00    +0.000 OA
ATOM     32  H   UNL     1       2.809  13.481  18.503  0.00  0.00    +0.000 HD
ENDBRANCH  30  31
ENDBRANCH   4  30
TORSDOF 4
ENDMDL
MODEL 4
REMARK VINA RESULT:      -7.7      1.492      2.060
REMARK  Name = 
REMARK  5 active torsions:
REMARK  status: ('A' for Active; 'I' for Inactive)
REMARK    1  A    between atoms: C_1  and  O_2
REMARK    2  A    between atoms: O_2  and  C_3
REMARK    3  A    between atoms: C_7  and  C_8
REMARK    4  A    between atoms: C_11  and  C_13
REMARK    5  A    between atoms: C_13  and  O_14
REMARK                            x       y       z     vdW  Elec       q    Type
REMARK                         _______ _______ _______ _____ _____    ______ ____
ROOT
ATOM      1  C   UNL     1       2.515   5.911  19.203  0.00  0.00    +0.000 C 
ATOM      2  C   UNL     1       1.514   5.060  18.390  0.00  0.00    +0.000 C 
ATOM      3  N   UNL     1       1.733   3.610  18.580  0.00  0.00    +0.000 N 
ATOM      4  C   UNL     1       2.566   2.933  17.682  0.00  0.00    +0.000 C 
ATOM      5  O   UNL     1       3.129   3.518  16.754  0.00  0.00    +0.000 OA
ATOM      6  C   UNL     1       1.528   3.150  19.958  0.00  0.00    +0.000 C 
ATOM      7  C   UNL     1       2.339   3.985  20.965  0.00  0.00    +0.000 C 
ATOM      8  C   UNL     1       3.190   4.941  20.184  0.00  0.00    +0.000 C 
ATOM      9  N   UNL     1       4.493   4.906  20.147  0.00  0.00    +0.000 NA
ATOM     10  C   UNL     1       4.856   5.718  19.040  0.00  0.00    +0.000 A 
ATOM     11  C   UNL     1       3.740   6.325  18.438  0.00  0.00    +0.000 A 
ATOM     12  C   UNL     1       3.834   7.021  17.242  0.00  0.00    +0.000 A 
ATOM     13  C   UNL     1       5.075   7.067  16.614  0.00  0.00    +0.000 A 
ATOM     14  C   UNL     1       6.203   6.461  17.201  0.00  0.00    +0.000 A 
ATOM     15 CL   UNL     1       7.678   6.512  16.297  0.00  0.00    +0.000 Cl
ATOM     16  C   UNL     1       6.107   5.800  18.437  0.00  0.00    +0.000 A 
ATOM     17 CL   UNL     1       7.465   5.034  19.180  0.00  0.00    +0.000 Cl
ENDROOT
BRANCH   1  22
ATOM     18  C   UNL     1       0.439  10.954  18.846  0.00  0.00    +0.000 A 
ATOM     19  C   UNL     1       0.900  10.169  17.791  0.00  0.00    +0.000 A 
ATOM     20  C   UNL     1       1.455   8.900  18.021  0.00  0.00    +0.000 A 
ATOM     21  C   UNL     1       1.553   8.395  19.338  0.00  0.00    +0.000 A 
ATOM     22  C   UNL     1       2.008   7.155  19.911  0.00  0.00    +0.000 A 
ATOM     23  C   UNL     1       1.899   7.327  21.287  0.00  0.00    +0.000 A 
ATOM     24  N   UNL     1       1.372   8.561  21.549  0.00  0.00    +0.000 N 
ATOM     25  C   UNL     1       1.124   9.225  20.377  0.00  0.00    +0.000 A 
ATOM     26  C   UNL     1       0.558  10.495  20.161  0.00  0.00    +0.000 A 
ATOM     27  H   UNL     1       1.191   8.936  22.471  0.00  0.00    +0.000 HD
BRANCH  18  29
ATOM     28  C   UNL     1      -1.453  12.225  18.175  0.00  0.00    +0.000 C 
ATOM     29  O   UNL     1      -0.142  12.189  18.726  0.00  0.00    +0.000 OA
ENDBRANCH  18  29
ENDBRANCH   1  22
BRANCH   4  30
ATOM     30  C   UNL     1       2.797   1.422  17.896  0.00  0.00    +0.000 C 
BRANCH  30  31
ATOM     31  O   UNL     1       4.066   1.072  18.423  0.00  0.00    +0.000 OA
ATOM     32  H   UNL     1       3.915   0.733  19.323  0.00  0.00    +0.000 HD
ENDBRANCH  30  31
ENDBRANCH   4  30
TORSDOF 4
ENDMDL
MODEL 5
REMARK VINA RESULT:      -7.5      5.964      8.872
REMARK  Name = 
REMARK  5 active torsions:
REMARK  status: ('A' for Active; 'I' for Inactive)
REMARK    1  A    between atoms: C_1  and  O_2
REMARK    2  A    between atoms: O_2  and  C_3
REMARK    3  A    between atoms: C_7  and  C_8
REMARK    4  A    between atoms: C_11  and  C_13
REMARK    5  A    between atoms: C_13  and  O_14
REMARK                            x       y       z     vdW  Elec       q    Type
REMARK                         _______ _______ _______ _____ _____    ______ ____
ROOT
ATOM      1  C   UNL     1      -0.654  13.182  20.713  0.00  0.00    +0.000 C 
ATOM      2  C   UNL     1       0.217  14.146  21.549  0.00  0.00    +0.000 C 
ATOM      3  N   UNL     1       1.325  14.723  20.757  0.00  0.00    +0.000 N 
ATOM      4  C   UNL     1       2.567  14.078  20.771  0.00  0.00    +0.000 C 
ATOM      5  O   UNL     1       2.751  13.040  21.411  0.00  0.00    +0.000 OA
ATOM      6  C   UNL     1       0.885  15.554  19.631  0.00  0.00    +0.000 C 
ATOM      7  C   UNL     1      -0.127  14.814  18.738  0.00  0.00    +0.000 C 
ATOM      8  C   UNL     1      -0.248  13.411  19.250  0.00  0.00    +0.000 C 
ATOM      9  N   UNL     1       0.129  12.351  18.590  0.00  0.00    +0.000 NA
ATOM     10  C   UNL     1       0.180  11.310  19.554  0.00  0.00    +0.000 A 
ATOM     11  C   UNL     1      -0.257  11.737  20.821  0.00  0.00    +0.000 A 
ATOM     12  C   UNL     1      -0.133  10.943  21.950  0.00  0.00    +0.000 A 
ATOM     13  C   UNL     1       0.487   9.705  21.809  0.00  0.00    +0.000 A 
ATOM     14  C   UNL     1       0.934   9.262  20.548  0.00  0.00    +0.000 A 
ATOM     15 CL   UNL     1       1.760   7.743  20.500  0.00  0.00    +0.000 Cl
ATOM     16  C   UNL     1       0.760  10.055  19.402  0.00  0.00    +0.000 A 
ATOM     17 CL   UNL     1       1.307   9.551  17.842  0.00  0.00    +0.000 Cl
ENDROOT
BRANCH   1  22
ATOM     18  C   UNL     1      -5.588  11.560  19.012  0.00  0.00    +0.000 A 
ATOM     19  C   UNL     1      -4.370  11.309  18.384  0.00  0.00    +0.000 A 
ATOM     20  C   UNL     1      -3.169  11.822  18.902  0.00  0.00    +0.000 A 
ATOM     21  C   UNL     1      -3.180  12.605  20.078  0.00  0.00    +0.000 A 
ATOM     22  C   UNL     1      -2.162  13.228  20.885  0.00  0.00    +0.000 A 
ATOM     23  C   UNL     1      -2.853  13.912  21.880  0.00  0.00    +0.000 A 
ATOM     24  N   UNL     1      -4.194  13.694  21.733  0.00  0.00    +0.000 N 
ATOM     25  C   UNL     1      -4.422  12.876  20.658  0.00  0.00    +0.000 A 
ATOM     26  C   UNL     1      -5.632  12.362  20.156  0.00  0.00    +0.000 A 
ATOM     27  H   UNL     1      -4.918  14.079  22.326  0.00  0.00    +0.000 HD
BRANCH  18  29
ATOM     28  C   UNL     1      -7.133   9.754  18.991  0.00  0.00    +0.000 C 
ATOM     29  O   UNL     1      -6.807  11.084  18.605  0.00  0.00    +0.000 OA
ENDBRANCH  18  29
ENDBRANCH   1  22
BRANCH   4  30
ATOM     30  C   UNL     1       3.713  14.682  19.933  0.00  0.00    +0.000 C 
BRANCH  30  31
ATOM     31  O   UNL     1       3.858  14.145  18.628  0.00  0.00    +0.000 OA
ATOM     32  H   UNL     1       3.797  13.177  18.713  0.00  0.00    +0.000 HD
ENDBRANCH  30  31
ENDBRANCH   4  30
TORSDOF 4
ENDMDL
MODEL 6
REMARK VINA RESULT:      -7.5      4.835      7.717
REMARK  Name = 
REMARK  5 active torsions:
REMARK  status: ('A' for Active; 'I' for Inactive)
REMARK    1  A    between atoms: C_1  and  O_2
REMARK    2  A    between atoms: O_2  and  C_3
REMARK    3  A    between atoms: C_7  and  C_8
REMARK    4  A    between atoms: C_11  and  C_13
REMARK    5  A    between atoms: C_13  and  O_14
REMARK                            x       y       z     vdW  Elec       q    Type
REMARK                         _______ _______ _______ _____ _____    ______ ____
ROOT
ATOM      1  C   UNL     1       0.175  12.192  19.438  0.00  0.00    +0.000 C 
ATOM      2  C   UNL     1      -0.759  12.587  18.272  0.00  0.00    +0.000 C 
ATOM      3  N   UNL     1      -2.107  11.996  18.414  0.00  0.00    +0.000 N 
ATOM      4  C   UNL     1      -2.369  10.764  17.803  0.00  0.00    +0.000 C 
ATOM      5  O   UNL     1      -1.502  10.159  17.168  0.00  0.00    +0.000 OA
ATOM      6  C   UNL     1      -2.837  12.453  19.602  0.00  0.00    +0.000 C 
ATOM      7  C   UNL     1      -2.003  12.283  20.884  0.00  0.00    +0.000 C 
ATOM      8  C   UNL     1      -0.733  11.578  20.513  0.00  0.00    +0.000 C 
ATOM      9  N   UNL     1      -0.410  10.381  20.918  0.00  0.00    +0.000 NA
ATOM     10  C   UNL     1       0.648   9.973  20.064  0.00  0.00    +0.000 A 
ATOM     11  C   UNL     1       1.029  10.987  19.167  0.00  0.00    +0.000 A 
ATOM     12  C   UNL     1       1.921  10.759  18.131  0.00  0.00    +0.000 A 
ATOM     13  C   UNL     1       2.408   9.465  17.966  0.00  0.00    +0.000 A 
ATOM     14  C   UNL     1       2.034   8.436  18.852  0.00  0.00    +0.000 A 
ATOM     15 CL   UNL     1       2.635   6.850  18.509  0.00  0.00    +0.000 Cl
ATOM     16  C   UNL     1       1.167   8.689  19.929  0.00  0.00    +0.000 A 
ATOM     17 CL   UNL     1       0.677   7.450  21.028  0.00  0.00    +0.000 Cl
ENDROOT
BRANCH   1  22
ATOM     18  C   UNL     1       3.889  16.115  18.608  0.00  0.00    +0.000 A 
ATOM     19  C   UNL     1       3.367  15.250  17.649  0.00  0.00    +0.000 A 
ATOM     20  C   UNL     1       2.446  14.249  18.001  0.00  0.00    +0.000 A 
ATOM     21  C   UNL     1       2.030  14.107  19.344  0.00  0.00    +0.000 A 
ATOM     22  C   UNL     1       1.094  13.249  20.024  0.00  0.00    +0.000 A 
ATOM     23  C   UNL     1       1.207  13.581  21.371  0.00  0.00    +0.000 A 
ATOM     24  N   UNL     1       2.108  14.599  21.513  0.00  0.00    +0.000 N 
ATOM     25  C   UNL     1       2.606  14.960  20.288  0.00  0.00    +0.000 A 
ATOM     26  C   UNL     1       3.524  15.972  19.950  0.00  0.00    +0.000 A 
ATOM     27  H   UNL     1       2.376  15.026  22.390  0.00  0.00    +0.000 HD
BRANCH  18  29
ATOM     28  C   UNL     1       5.982  17.125  19.107  0.00  0.00    +0.000 C 
ATOM     29  O   UNL     1       4.768  17.138  18.365  0.00  0.00    +0.000 OA
ENDBRANCH  18  29
ENDBRANCH   1  22
BRANCH   4  30
ATOM     30  C   UNL     1      -3.775  10.151  17.967  0.00  0.00    +0.000 C 
BRANCH  30  31
ATOM     31  O   UNL     1      -4.814  10.825  17.275  0.00  0.00    +0.000 OA
ATOM     32  H   UNL     1      -5.441  11.143  17.948  0.00  0.00    +0.000 HD
ENDBRANCH  30  31
ENDBRANCH   4  30
TORSDOF 4
ENDMDL
MODEL 7
REMARK VINA RESULT:      -7.4      6.154     11.073
REMARK  Name = 
REMARK  5 active torsions:
REMARK  status: ('A' for Active; 'I' for Inactive)
REMARK    1  A    between atoms: C_1  and  O_2
REMARK    2  A    between atoms: O_2  and  C_3
REMARK    3  A    between atoms: C_7  and  C_8
REMARK    4  A    between atoms: C_11  and  C_13
REMARK    5  A    between atoms: C_13  and  O_14
REMARK                            x       y       z     vdW  Elec       q    Type
REMARK                         _______ _______ _______ _____ _____    ______ ____
ROOT
ATOM      1  C   UNL     1      -1.852  12.882  21.857  0.00  0.00    +0.000 C 
ATOM      2  C   UNL     1      -1.002  14.005  21.221  0.00  0.00    +0.000 C 
ATOM      3  N   UNL     1      -1.238  15.315  21.866  0.00  0.00    +0.000 N 
ATOM      4  C   UNL     1      -2.210  16.164  21.325  0.00  0.00    +0.000 C 
ATOM      5  O   UNL     1      -2.879  15.840  20.342  0.00  0.00    +0.000 OA
ATOM      6  C   UNL     1      -0.855  15.361  23.281  0.00  0.00    +0.000 C 
ATOM      7  C   UNL     1      -1.490  14.210  24.082  0.00  0.00    +0.000 C 
ATOM      8  C   UNL     1      -2.412  13.468  23.162  0.00  0.00    +0.000 C 
ATOM      9  N   UNL     1      -3.708  13.418  23.300  0.00  0.00    +0.000 NA
ATOM     10  C   UNL     1      -4.198  12.945  22.055  0.00  0.00    +0.000 A 
ATOM     11  C   UNL     1      -3.159  12.624  21.162  0.00  0.00    +0.000 A 
ATOM     12  C   UNL     1      -3.398  12.308  19.834  0.00  0.00    +0.000 A 
ATOM     13  C   UNL     1      -4.714  12.359  19.381  0.00  0.00    +0.000 A 
ATOM     14  C   UNL     1      -5.766  12.682  20.260  0.00  0.00    +0.000 A 
ATOM     15 CL   UNL     1      -7.351  12.794  19.575  0.00  0.00    +0.000 Cl
ATOM     16  C   UNL     1      -5.517  12.954  21.616  0.00  0.00    +0.000 A 
ATOM     17 CL   UNL     1      -6.781  13.367  22.720  0.00  0.00    +0.000 Cl
ENDROOT
BRANCH   1  22
ATOM     18  C   UNL     1       1.267   8.820  19.949  0.00  0.00    +0.000 A 
ATOM     19  C   UNL     1       0.821   9.931  19.236  0.00  0.00    +0.000 A 
ATOM     20  C   UNL     1      -0.017  10.887  19.832  0.00  0.00    +0.000 A 
ATOM     21  C   UNL     1      -0.422  10.735  21.177  0.00  0.00    +0.000 A 
ATOM     22  C   UNL     1      -1.211  11.525  22.087  0.00  0.00    +0.000 A 
ATOM     23  C   UNL     1      -1.284  10.772  23.255  0.00  0.00    +0.000 A 
ATOM     24  N   UNL     1      -0.557   9.625  23.101  0.00  0.00    +0.000 N 
ATOM     25  C   UNL     1       0.004   9.589  21.851  0.00  0.00    +0.000 A 
ATOM     26  C   UNL     1       0.851   8.627  21.270  0.00  0.00    +0.000 A 
ATOM     27  H   UNL     1      -0.447   8.903  23.801  0.00  0.00    +0.000 HD
BRANCH  18  29
ATOM     28  C   UNL     1       2.489   7.954  18.104  0.00  0.00    +0.000 C 
ATOM     29  O   UNL     1       2.106   7.849  19.471  0.00  0.00    +0.000 OA
ENDBRANCH  18  29
ENDBRANCH   1  22
BRANCH   4  30
ATOM     30  C   UNL     1      -2.455  17.524  22.013  0.00  0.00    +0.000 C 
BRANCH  30  31
ATOM     31  O   UNL     1      -3.557  17.562  22.905  0.00  0.00    +0.000 OA
ATOM     32  H   UNL     1      -3.813  16.638  23.077  0.00  0.00    +0.000 HD
ENDBRANCH  30  31
ENDBRANCH   4  30
TORSDOF 4
ENDMDL
MODEL 8
REMARK VINA RESULT:      -7.4      5.218      9.674
REMARK  Name = 
REMARK  5 active torsions:
REMARK  status: ('A' for Active; 'I' for Inactive)
REMARK    1  A    between atoms: C_1  and  O_2
REMARK    2  A    between atoms: O_2  and  C_3
REMARK    3  A    between atoms: C_7  and  C_8
REMARK    4  A    between atoms: C_11  and  C_13
REMARK    5  A    between atoms: C_13  and  O_14
REMARK                            x       y       z     vdW  Elec       q    Type
REMARK                         _______ _______ _______ _____ _____    ______ ____
ROOT
ATOM      1  C   UNL     1       0.546  12.172  20.108  0.00  0.00    +0.000 C 
ATOM      2  C   UNL     1       0.980  12.726  18.733  0.00  0.00    +0.000 C 
ATOM      3  N   UNL     1       1.569  14.078  18.838  0.00  0.00    +0.000 N 
ATOM      4  C   UNL     1       0.733  15.189  18.680  0.00  0.00    +0.000 C 
ATOM      5  O   UNL     1      -0.476  15.065  18.472  0.00  0.00    +0.000 OA
ATOM      6  C   UNL     1       2.803  14.132  19.629  0.00  0.00    +0.000 C 
ATOM      7  C   UNL     1       2.623  13.480  21.012  0.00  0.00    +0.000 C 
ATOM      8  C   UNL     1       1.180  13.100  21.154  0.00  0.00    +0.000 C 
ATOM      9  N   UNL     1       0.359  13.635  22.015  0.00  0.00    +0.000 NA
ATOM     10  C   UNL     1      -0.938  13.268  21.571  0.00  0.00    +0.000 A 
ATOM     11  C   UNL     1      -0.895  12.419  20.450  0.00  0.00    +0.000 A 
ATOM     12  C   UNL     1      -2.036  12.073  19.742  0.00  0.00    +0.000 A 
ATOM     13  C   UNL     1      -3.246  12.631  20.148  0.00  0.00    +0.000 A 
ATOM     14  C   UNL     1      -3.307  13.486  21.266  0.00  0.00    +0.000 A 
ATOM     15 CL   UNL     1      -4.846  14.185  21.634  0.00  0.00    +0.000 Cl
ATOM     16  C   UNL     1      -2.151  13.792  22.004  0.00  0.00    +0.000 A 
ATOM     17 CL   UNL     1      -2.185  14.846  23.373  0.00  0.00    +0.000 Cl
ENDROOT
BRANCH   1  22
ATOM     18  C   UNL     1       2.471   7.330  18.459  0.00  0.00    +0.000 A 
ATOM     19  C   UNL     1       2.313   8.471  17.675  0.00  0.00    +0.000 A 
ATOM     20  C   UNL     1       1.763   9.647  18.211  0.00  0.00    +0.000 A 
ATOM     21  C   UNL     1       1.359   9.689  19.565  0.00  0.00    +0.000 A 
ATOM     22  C   UNL     1       0.819  10.711  20.424  0.00  0.00    +0.000 A 
ATOM     23  C   UNL     1       0.578  10.077  21.639  0.00  0.00    +0.000 A 
ATOM     24  N   UNL     1       0.981   8.773  21.557  0.00  0.00    +0.000 N 
ATOM     25  C   UNL     1       1.488   8.515  20.311  0.00  0.00    +0.000 A 
ATOM     26  C   UNL     1       2.046   7.333  19.790  0.00  0.00    +0.000 A 
ATOM     27  H   UNL     1       0.914   8.092  22.302  0.00  0.00    +0.000 HD
BRANCH  18  29
ATOM     28  C   UNL     1       3.995   5.560  18.896  0.00  0.00    +0.000 C 
ATOM     29  O   UNL     1       3.021   6.146  18.041  0.00  0.00    +0.000 OA
ENDBRANCH  18  29
ENDBRANCH   1  22
BRANCH   4  30
ATOM     30  C   UNL     1       1.356  16.596  18.802  0.00  0.00    +0.000 C 
BRANCH  30  31
ATOM     31  O   UNL     1       2.144  17.008  17.698  0.00  0.00    +0.000 OA
ATOM     32  H   UNL     1       2.627  17.805  17.977  0.00  0.00    +0.000 HD
ENDBRANCH  30  31
ENDBRANCH   4  30
TORSDOF 4
ENDMDL
MODEL 9
REMARK VINA RESULT:      -7.4      5.224      9.996
REMARK  Name = 
REMARK  5 active torsions:
REMARK  status: ('A' for Active; 'I' for Inactive)
REMARK    1  A    between atoms: C_1  and  O_2
REMARK    2  A    between atoms: O_2  and  C_3
REMARK    3  A    between atoms: C_7  and  C_8
REMARK    4  A    between atoms: C_11  and  C_13
REMARK    5  A    between atoms: C_13  and  O_14
REMARK                            x       y       z     vdW  Elec       q    Type
REMARK                         _______ _______ _______ _____ _____    ______ ____
ROOT
ATOM      1  C   UNL     1       0.136  12.358  20.470  0.00  0.00    +0.000 C 
ATOM      2  C   UNL     1      -0.062  12.863  19.024  0.00  0.00    +0.000 C 
ATOM      3  N   UNL     1       0.534  14.200  18.815  0.00  0.00    +0.000 N 
ATOM      4  C   UNL     1      -0.273  15.330  18.994  0.00  0.00    +0.000 C 
ATOM      5  O   UNL     1      -1.455  15.235  19.334  0.00  0.00    +0.000 OA
ATOM      6  C   UNL     1       1.989  14.240  18.991  0.00  0.00    +0.000 C 
ATOM      7  C   UNL     1       2.417  13.631  20.338  0.00  0.00    +0.000 C 
ATOM      8  C   UNL     1       1.173  13.296  21.104  0.00  0.00    +0.000 C 
ATOM      9  N   UNL     1       0.815  13.876  22.216  0.00  0.00    +0.000 NA
ATOM     10  C   UNL     1      -0.552  13.534  22.391  0.00  0.00    +0.000 A 
ATOM     11  C   UNL     1      -1.011  12.655  21.393  0.00  0.00    +0.000 A 
ATOM     12  C   UNL     1      -2.351  12.323  21.263  0.00  0.00    +0.000 A 
ATOM     13  C   UNL     1      -3.257  12.925  22.131  0.00  0.00    +0.000 A 
ATOM     14  C   UNL     1      -2.815  13.811  23.133  0.00  0.00    +0.000 A 
ATOM     15 CL   UNL     1      -4.033  14.563  24.106  0.00  0.00    +0.000 Cl
ATOM     16  C   UNL     1      -1.450  14.103  23.288  0.00  0.00    +0.000 A 
ATOM     17 CL   UNL     1      -0.872  15.194  24.497  0.00  0.00    +0.000 Cl
ENDROOT
BRANCH   1  22
ATOM     18  C   UNL     1       2.324   7.755  18.498  0.00  0.00    +0.000 A 
ATOM     19  C   UNL     1       2.090   8.932  17.791  0.00  0.00    +0.000 A 
ATOM     20  C   UNL     1       1.477  10.036  18.405  0.00  0.00    +0.000 A 
ATOM     21  C   UNL     1       1.087   9.968  19.762  0.00  0.00    +0.000 A 
ATOM     22  C   UNL     1       0.499  10.900  20.690  0.00  0.00    +0.000 A 
ATOM     23  C   UNL     1       0.310  10.176  21.863  0.00  0.00    +0.000 A 
ATOM     24  N   UNL     1       0.788   8.906  21.694  0.00  0.00    +0.000 N 
ATOM     25  C   UNL     1       1.295   8.759  20.430  0.00  0.00    +0.000 A 
ATOM     26  C   UNL     1       1.915   7.647  19.830  0.00  0.00    +0.000 A 
ATOM     27  H   UNL     1       0.770   8.176  22.395  0.00  0.00    +0.000 HD
BRANCH  18  29
ATOM     28  C   UNL     1       4.219   6.820  17.410  0.00  0.00    +0.000 C 
ATOM     29  O   UNL     1       2.938   6.635  18.001  0.00  0.00    +0.000 OA
ENDBRANCH  18  29
ENDBRANCH   1  22
BRANCH   4  30
ATOM     30  C   UNL     1       0.361  16.721  18.784  0.00  0.00    +0.000 C 
BRANCH  30  31
ATOM     31  O   UNL     1      -0.137  17.453  17.675  0.00  0.00    +0.000 OA
ATOM     32  H   UNL     1      -1.069  17.197  17.564  0.00  0.00    +0.000 HD
ENDBRANCH  30  31
ENDBRANCH   4  30
TORSDOF 4
ENDMDL
