MODEL 1
REMARK VINA RESULT:      -8.5      0.000      0.000
REMARK  Name = 
REMARK  10 active torsions:
REMARK  status: ('A' for Active; 'I' for Inactive)
REMARK    1  A    between atoms: C_1  and  C_2
REMARK    2  A    between atoms: C_2  and  C_3
REMARK    3  A    between atoms: C_2  and  C_4
REMARK    4  A    between atoms: C_4  and  N_5
REMARK    5  A    between atoms: N_5  and  C_6
REMARK    6  A    between atoms: N_5  and  C_14
REMARK    7  A    between atoms: C_6  and  C_7
REMARK    8  A    between atoms: C_17  and  C_18
REMARK    9  A    between atoms: N_20  and  C_21
REMARK   10  A    between atoms: C_21  and  C_22
REMARK                            x       y       z     vdW  Elec       q    Type
REMARK                         _______ _______ _______ _____ _____    ______ ____
ROOT
ATOM      1  C   UNL     1       3.156   6.232  19.264  0.00  0.00    +0.000 A 
ATOM      2  C   UNL     1       2.330   6.750  20.273  0.00  0.00    +0.000 A 
ATOM      3  C   UNL     1       1.619   7.957  20.124  0.00  0.00    +0.000 A 
ATOM      4  C   UNL     1       1.706   8.706  18.952  0.00  0.00    +0.000 A 
ATOM      5  C   UNL     1       2.518   8.220  17.930  0.00  0.00    +0.000 A 
ATOM      6  C   UNL     1       3.222   7.008  18.088  0.00  0.00    +0.000 A 
ENDROOT
BRANCH   4   7
ATOM      7  C   UNL     1       0.905   9.971  18.865  0.00  0.00    +0.000 C 
ATOM      8  O   UNL     1       1.455  11.013  18.512  0.00  0.00    +0.000 OA
ATOM      9  N   UNL     1      -0.431   9.916  19.193  0.00  0.00    +0.000 N 
ATOM     10  H   UNL     1      -0.868   9.055  19.475  0.00  0.00    +0.000 HD
BRANCH   9  11
ATOM     11  C   UNL     1      -1.278  11.093  19.149  0.00  0.00    +0.000 C 
BRANCH  11  12
ATOM     12  C   UNL     1      -2.260  11.026  18.017  0.00  0.00    +0.000 A 
ATOM     13  C   UNL     1      -1.964  10.352  16.827  0.00  0.00    +0.000 A 
ATOM     14  C   UNL     1      -2.914  10.286  15.813  0.00  0.00    +0.000 A 
ATOM     15  C   UNL     1      -4.139  10.897  16.020  0.00  0.00    +0.000 A 
ATOM     16  N   UNL     1      -4.465  11.558  17.152  0.00  0.00    +0.000 NA
ATOM     17  C   UNL     1      -3.523  11.601  18.123  0.00  0.00    +0.000 A 
ENDBRANCH  11  12
ENDBRANCH   9  11
ENDBRANCH   4   7
BRANCH   1  18
ATOM     18  N   UNL     1       3.844   5.025  19.408  0.00  0.00    +0.000 N 
BRANCH  18  19
ATOM     19  C   UNL     1       3.189   3.801  19.915  0.00  0.00    +0.000 C 
BRANCH  19  21
ATOM     20  C   UNL     1       2.597   1.821  18.447  0.00  0.00    +0.000 C 
ATOM     21  C   UNL     1       2.159   3.211  18.924  0.00  0.00    +0.000 C 
ATOM     22  C   UNL     1       0.757   3.100  19.529  0.00  0.00    +0.000 C 
ENDBRANCH  19  21
ENDBRANCH  18  19
BRANCH  18  23
ATOM     23  C   UNL     1       5.300   4.926  19.166  0.00  0.00    +0.000 C 
BRANCH  23  24
ATOM     24  C   UNL     1       5.713   4.839  17.705  0.00  0.00    +0.000 A 
ATOM     25  C   UNL     1       5.031   4.025  16.784  0.00  0.00    +0.000 A 
ATOM     26  C   UNL     1       5.387   4.008  15.433  0.00  0.00    +0.000 A 
ATOM     27  C   UNL     1       6.441   4.793  14.974  0.00  0.00    +0.000 A 
ATOM     28  C   UNL     1       7.169   5.560  15.878  0.00  0.00    +0.000 A 
ATOM     29  C   UNL     1       6.821   5.570  17.234  0.00  0.00    +0.000 A 
ATOM     30 CL   UNL     1       7.817   6.504  18.298  0.00  0.00    +0.000 Cl
ENDBRANCH  23  24
ENDBRANCH  18  23
ENDBRANCH   1  18
TORSDOF 8
ENDMDL
MODEL 2
REMARK VINA RESULT:      -8.3      0.557      1.271
REMARK  Name = 
REMARK  10 active torsions:
REMARK  status: ('A' for Active; 'I' for Inactive)
REMARK    1  A    between atoms: C_1  and  C_2
REMARK    2  A    between atoms: C_2  and  C_3
REMARK    3  A    between atoms: C_2  and  C_4
REMARK    4  A    between atoms: C_4  and  N_5
REMARK    5  A    between atoms: N_5  and  C_6
REMARK    6  A    between atoms: N_5  and  C_14
REMARK    7  A    between atoms: C_6  and  C_7
REMARK    8  A    between atoms: C_17  and  C_18
REMARK    9  A    between atoms: N_20  and  C_21
REMARK   10  A    between atoms: C_21  and  C_22
REMARK                            x       y       z     vdW  Elec       q    Type
REMARK                         _______ _______ _______ _____ _____    ______ ____
ROOT
ATOM      1  C   UNL     1       3.163   6.194  19.264  0.00  0.00    +0.000 A 
ATOM      2  C   UNL     1       3.182   6.975  18.097  0.00  0.00    +0.000 A 
ATOM      3  C   UNL     1       2.466   8.183  17.983  0.00  0.00    +0.000 A 
ATOM      4  C   UNL     1       1.693   8.666  19.038  0.00  0.00    +0.000 A 
ATOM      5  C   UNL     1       1.653   7.916  20.210  0.00  0.00    +0.000 A 
ATOM      6  C   UNL     1       2.376   6.710  20.315  0.00  0.00    +0.000 A 
ENDROOT
BRANCH   4   7
ATOM      7  C   UNL     1       0.975   9.969  18.843  0.00  0.00    +0.000 C 
ATOM      8  O   UNL     1       1.593  10.945  18.422  0.00  0.00    +0.000 OA
ATOM      9  N   UNL     1      -0.366  10.021  19.153  0.00  0.00    +0.000 N 
ATOM     10  H   UNL     1      -0.859   9.213  19.492  0.00  0.00    +0.000 HD
BRANCH   9  11
ATOM     11  C   UNL     1      -1.136  11.242  19.007  0.00  0.00    +0.000 C 
BRANCH  11  12
ATOM     12  C   UNL     1      -2.203  11.101  17.961  0.00  0.00    +0.000 A 
ATOM     13  C   UNL     1      -3.479  11.648  18.137  0.00  0.00    +0.000 A 
ATOM     14  C   UNL     1      -4.431  11.523  17.129  0.00  0.00    +0.000 A 
ATOM     15  C   UNL     1      -4.076  10.854  15.970  0.00  0.00    +0.000 A 
ATOM     16  N   UNL     1      -2.857  10.312  15.761  0.00  0.00    +0.000 NA
ATOM     17  C   UNL     1      -1.951  10.454  16.756  0.00  0.00    +0.000 A 
ENDBRANCH  11  12
ENDBRANCH   9  11
ENDBRANCH   4   7
BRANCH   1  18
ATOM     18  N   UNL     1       3.889   5.007  19.380  0.00  0.00    +0.000 N 
BRANCH  18  19
ATOM     19  C   UNL     1       3.266   3.744  19.828  0.00  0.00    +0.000 C 
BRANCH  19  21
ATOM     20  C   UNL     1       2.171   2.215  18.128  0.00  0.00    +0.000 C 
ATOM     21  C   UNL     1       1.962   3.409  19.068  0.00  0.00    +0.000 C 
ATOM     22  C   UNL     1       0.797   3.092  20.009  0.00  0.00    +0.000 C 
ENDBRANCH  19  21
ENDBRANCH  18  19
BRANCH  18  23
ATOM     23  C   UNL     1       5.352   4.967  19.167  0.00  0.00    +0.000 C 
BRANCH  23  24
ATOM     24  C   UNL     1       5.796   4.853  17.717  0.00  0.00    +0.000 A 
ATOM     25  C   UNL     1       5.220   3.926  16.831  0.00  0.00    +0.000 A 
ATOM     26  C   UNL     1       5.598   3.880  15.486  0.00  0.00    +0.000 A 
ATOM     27  C   UNL     1       6.570   4.751  15.000  0.00  0.00    +0.000 A 
ATOM     28  C   UNL     1       7.198   5.635  15.873  0.00  0.00    +0.000 A 
ATOM     29  C   UNL     1       6.828   5.674  17.222  0.00  0.00    +0.000 A 
ATOM     30 CL   UNL     1       7.701   6.760  18.248  0.00  0.00    +0.000 Cl
ENDBRANCH  23  24
ENDBRANCH  18  23
ENDBRANCH   1  18
TORSDOF 8
ENDMDL
MODEL 3
REMARK VINA RESULT:      -8.3      1.576      2.047
REMARK  Name = 
REMARK  10 active torsions:
REMARK  status: ('A' for Active; 'I' for Inactive)
REMARK    1  A    between atoms: C_1  and  C_2
REMARK    2  A    between atoms: C_2  and  C_3
REMARK    3  A    between atoms: C_2  and  C_4
REMARK    4  A    between atoms: C_4  and  N_5
REMARK    5  A    between atoms: N_5  and  C_6
REMARK    6  A    between atoms: N_5  and  C_14
REMARK    7  A    between atoms: C_6  and  C_7
REMARK    8  A    between atoms: C_17  and  C_18
REMARK    9  A    between atoms: N_20  and  C_21
REMARK   10  A    between atoms: C_21  and  C_22
REMARK                            x       y       z     vdW  Elec       q    Type
REMARK                         _______ _______ _______ _____ _____    ______ ____
ROOT
ATOM      1  C   UNL     1       2.685   6.191  19.048  0.00  0.00    +0.000 A 
ATOM      2  C   UNL     1       2.219   6.656  20.288  0.00  0.00    +0.000 A 
ATOM      3  C   UNL     1       1.607   7.915  20.443  0.00  0.00    +0.000 A 
ATOM      4  C   UNL     1       1.434   8.772  19.358  0.00  0.00    +0.000 A 
ATOM      5  C   UNL     1       1.884   8.342  18.112  0.00  0.00    +0.000 A 
ATOM      6  C   UNL     1       2.492   7.077  17.968  0.00  0.00    +0.000 A 
ENDROOT
BRANCH   4   7
ATOM      7  C   UNL     1       0.758  10.089  19.603  0.00  0.00    +0.000 C 
ATOM      8  O   UNL     1       0.511  10.438  20.755  0.00  0.00    +0.000 OA
ATOM      9  N   UNL     1       0.433  10.863  18.511  0.00  0.00    +0.000 N 
ATOM     10  H   UNL     1       0.646  10.566  17.574  0.00  0.00    +0.000 HD
BRANCH   9  11
ATOM     11  C   UNL     1      -0.233  12.144  18.653  0.00  0.00    +0.000 C 
BRANCH  11  12
ATOM     12  C   UNL     1      -1.724  12.005  18.561  0.00  0.00    +0.000 A 
ATOM     13  C   UNL     1      -2.339  11.416  17.452  0.00  0.00    +0.000 A 
ATOM     14  C   UNL     1      -3.724  11.277  17.419  0.00  0.00    +0.000 A 
ATOM     15  C   UNL     1      -4.455  11.734  18.502  0.00  0.00    +0.000 A 
ATOM     16  N   UNL     1      -3.901  12.308  19.591  0.00  0.00    +0.000 NA
ATOM     17  C   UNL     1      -2.553  12.425  19.597  0.00  0.00    +0.000 A 
ENDBRANCH  11  12
ENDBRANCH   9  11
ENDBRANCH   4   7
BRANCH   1  18
ATOM     18  N   UNL     1       3.273   4.935  18.895  0.00  0.00    +0.000 N 
BRANCH  18  19
ATOM     19  C   UNL     1       2.966   3.805  19.797  0.00  0.00    +0.000 C 
BRANCH  19  21
ATOM     20  C   UNL     1       0.990   2.590  18.774  0.00  0.00    +0.000 C 
ATOM     21  C   UNL     1       1.451   3.515  19.908  0.00  0.00    +0.000 C 
ATOM     22  C   UNL     1       1.071   2.874  21.245  0.00  0.00    +0.000 C 
ENDBRANCH  19  21
ENDBRANCH  18  19
BRANCH  18  23
ATOM     23  C   UNL     1       4.326   4.687  17.885  0.00  0.00    +0.000 C 
BRANCH  23  24
ATOM     24  C   UNL     1       5.626   5.445  18.102  0.00  0.00    +0.000 A 
ATOM     25  C   UNL     1       6.420   5.253  19.247  0.00  0.00    +0.000 A 
ATOM     26  C   UNL     1       7.643   5.913  19.397  0.00  0.00    +0.000 A 
ATOM     27  C   UNL     1       8.094   6.789  18.413  0.00  0.00    +0.000 A 
ATOM     28  C   UNL     1       7.297   7.040  17.300  0.00  0.00    +0.000 A 
ATOM     29  C   UNL     1       6.066   6.389  17.154  0.00  0.00    +0.000 A 
ATOM     30 CL   UNL     1       5.112   6.806  15.771  0.00  0.00    +0.000 Cl
ENDBRANCH  23  24
ENDBRANCH  18  23
ENDBRANCH   1  18
TORSDOF 8
ENDMDL
MODEL 4
REMARK VINA RESULT:      -8.3      3.241      9.288
REMARK  Name = 
REMARK  10 active torsions:
REMARK  status: ('A' for Active; 'I' for Inactive)
REMARK    1  A    between atoms: C_1  and  C_2
REMARK    2  A    between atoms: C_2  and  C_3
REMARK    3  A    between atoms: C_2  and  C_4
REMARK    4  A    between atoms: C_4  and  N_5
REMARK    5  A    between atoms: N_5  and  C_6
REMARK    6  A    between atoms: N_5  and  C_14
REMARK    7  A    between atoms: C_6  and  C_7
REMARK    8  A    between atoms: C_17  and  C_18
REMARK    9  A    between atoms: N_20  and  C_21
REMARK   10  A    between atoms: C_21  and  C_22
REMARK                            x       y       z     vdW  Elec       q    Type
REMARK                         _______ _______ _______ _____ _____    ______ ____
ROOT
ATOM      1  C   UNL     1       1.080   9.614  19.247  0.00  0.00    +0.000 A 
ATOM      2  C   UNL     1       1.311   8.600  20.191  0.00  0.00    +0.000 A 
ATOM      3  C   UNL     1       2.041   7.434  19.886  0.00  0.00    +0.000 A 
ATOM      4  C   UNL     1       2.574   7.228  18.615  0.00  0.00    +0.000 A 
ATOM      5  C   UNL     1       2.364   8.214  17.655  0.00  0.00    +0.000 A 
ATOM      6  C   UNL     1       1.635   9.379  17.971  0.00  0.00    +0.000 A 
ENDROOT
BRANCH   4   7
ATOM      7  C   UNL     1       3.353   5.969  18.376  0.00  0.00    +0.000 C 
ATOM      8  O   UNL     1       2.753   4.913  18.181  0.00  0.00    +0.000 OA
ATOM      9  N   UNL     1       4.728   6.045  18.389  0.00  0.00    +0.000 N 
ATOM     10  H   UNL     1       5.205   6.917  18.546  0.00  0.00    +0.000 HD
BRANCH   9  11
ATOM     11  C   UNL     1       5.560   4.876  18.179  0.00  0.00    +0.000 C 
BRANCH  11  12
ATOM     12  C   UNL     1       6.035   4.782  16.759  0.00  0.00    +0.000 A 
ATOM     13  C   UNL     1       5.325   4.058  15.795  0.00  0.00    +0.000 A 
ATOM     14  C   UNL     1       5.781   4.021  14.480  0.00  0.00    +0.000 A 
ATOM     15  C   UNL     1       6.938   4.715  14.168  0.00  0.00    +0.000 A 
ATOM     16  N   UNL     1       7.652   5.425  15.067  0.00  0.00    +0.000 NA
ATOM     17  C   UNL     1       7.182   5.446  16.336  0.00  0.00    +0.000 A 
ENDBRANCH  11  12
ENDBRANCH   9  11
ENDBRANCH   4   7
BRANCH   1  18
ATOM     18  N   UNL     1       0.373  10.776  19.558  0.00  0.00    +0.000 N 
BRANCH  18  19
ATOM     19  C   UNL     1       1.044  12.080  19.746  0.00  0.00    +0.000 C 
BRANCH  19  21
ATOM     20  C   UNL     1      -0.024  14.118  18.680  0.00  0.00    +0.000 C 
ATOM     21  C   UNL     1       0.985  12.978  18.488  0.00  0.00    +0.000 C 
ATOM     22  C   UNL     1       2.345  13.584  18.134  0.00  0.00    +0.000 C 
ENDBRANCH  19  21
ENDBRANCH  18  19
BRANCH  18  23
ATOM     23  C   UNL     1      -1.082  10.753  19.827  0.00  0.00    +0.000 C 
BRANCH  23  24
ATOM     24  C   UNL     1      -1.972  10.794  18.596  0.00  0.00    +0.000 A 
ATOM     25  C   UNL     1      -1.676  10.058  17.436  0.00  0.00    +0.000 A 
ATOM     26  C   UNL     1      -2.541  10.061  16.338  0.00  0.00    +0.000 A 
ATOM     27  C   UNL     1      -3.715  10.809  16.371  0.00  0.00    +0.000 A 
ATOM     28  C   UNL     1      -3.999  11.592  17.485  0.00  0.00    +0.000 A 
ATOM     29  C   UNL     1      -3.127  11.600  18.581  0.00  0.00    +0.000 A 
ATOM     30 CL   UNL     1      -3.526  12.649  19.898  0.00  0.00    +0.000 Cl
ENDBRANCH  23  24
ENDBRANCH  18  23
ENDBRANCH   1  18
TORSDOF 8
ENDMDL
MODEL 5
REMARK VINA RESULT:      -8.2      1.622      4.077
REMARK  Name = 
REMARK  10 active torsions:
REMARK  status: ('A' for Active; 'I' for Inactive)
REMARK    1  A    between atoms: C_1  and  C_2
REMARK    2  A    between atoms: C_2  and  C_3
REMARK    3  A    between atoms: C_2  and  C_4
REMARK    4  A    between atoms: C_4  and  N_5
REMARK    5  A    between atoms: N_5  and  C_6
REMARK    6  A    between atoms: N_5  and  C_14
REMARK    7  A    between atoms: C_6  and  C_7
REMARK    8  A    between atoms: C_17  and  C_18
REMARK    9  A    between atoms: N_20  and  C_21
REMARK   10  A    between atoms: C_21  and  C_22
REMARK                            x       y       z     vdW  Elec       q    Type
REMARK                         _______ _______ _______ _____ _____    ______ ____
ROOT
ATOM      1  C   UNL     1       3.612   6.563  18.638  0.00  0.00    +0.000 A 
ATOM      2  C   UNL     1       3.441   7.474  17.583  0.00  0.00    +0.000 A 
ATOM      3  C   UNL     1       2.544   8.557  17.656  0.00  0.00    +0.000 A 
ATOM      4  C   UNL     1       1.770   8.778  18.794  0.00  0.00    +0.000 A 
ATOM      5  C   UNL     1       1.915   7.893  19.859  0.00  0.00    +0.000 A 
ATOM      6  C   UNL     1       2.819   6.814  19.777  0.00  0.00    +0.000 A 
ENDROOT
BRANCH   4   7
ATOM      7  C   UNL     1       0.850   9.963  18.799  0.00  0.00    +0.000 C 
ATOM      8  O   UNL     1       1.299  11.080  18.547  0.00  0.00    +0.000 OA
ATOM      9  N   UNL     1      -0.478   9.751  19.096  0.00  0.00    +0.000 N 
ATOM     10  H   UNL     1      -0.832   8.831  19.295  0.00  0.00    +0.000 HD
BRANCH   9  11
ATOM     11  C   UNL     1      -1.435  10.840  19.136  0.00  0.00    +0.000 C 
BRANCH  11  12
ATOM     12  C   UNL     1      -2.331  10.834  17.931  0.00  0.00    +0.000 A 
ATOM     13  C   UNL     1      -2.030  10.073  16.797  0.00  0.00    +0.000 A 
ATOM     14  C   UNL     1      -2.903  10.070  15.713  0.00  0.00    +0.000 A 
ATOM     15  C   UNL     1      -4.056  10.831  15.797  0.00  0.00    +0.000 A 
ATOM     16  N   UNL     1      -4.384  11.579  16.873  0.00  0.00    +0.000 NA
ATOM     17  C   UNL     1      -3.519  11.558  17.913  0.00  0.00    +0.000 A 
ENDBRANCH  11  12
ENDBRANCH   9  11
ENDBRANCH   4   7
BRANCH   1  18
ATOM     18  N   UNL     1       4.516   5.502  18.569  0.00  0.00    +0.000 N 
BRANCH  18  19
ATOM     19  C   UNL     1       5.979   5.710  18.613  0.00  0.00    +0.000 C 
BRANCH  19  21
ATOM     20  C   UNL     1       7.633   7.316  17.558  0.00  0.00    +0.000 C 
ATOM     21  C   UNL     1       6.551   6.263  17.287  0.00  0.00    +0.000 C 
ATOM     22  C   UNL     1       7.148   5.167  16.401  0.00  0.00    +0.000 C 
ENDBRANCH  19  21
ENDBRANCH  18  19
BRANCH  18  23
ATOM     23  C   UNL     1       4.068   4.112  18.337  0.00  0.00    +0.000 C 
BRANCH  23  24
ATOM     24  C   UNL     1       3.065   3.574  19.345  0.00  0.00    +0.000 A 
ATOM     25  C   UNL     1       3.464   3.039  20.582  0.00  0.00    +0.000 A 
ATOM     26  C   UNL     1       2.522   2.608  21.521  0.00  0.00    +0.000 A 
ATOM     27  C   UNL     1       1.161   2.690  21.238  0.00  0.00    +0.000 A 
ATOM     28  C   UNL     1       0.745   3.160  19.997  0.00  0.00    +0.000 A 
ATOM     29  C   UNL     1       1.687   3.581  19.051  0.00  0.00    +0.000 A 
ATOM     30 CL   UNL     1       1.085   4.094  17.512  0.00  0.00    +0.000 Cl
ENDBRANCH  23  24
ENDBRANCH  18  23
ENDBRANCH   1  18
TORSDOF 8
ENDMDL
MODEL 6
REMARK VINA RESULT:      -8.1      1.817      4.077
REMARK  Name = 
REMARK  10 active torsions:
REMARK  status: ('A' for Active; 'I' for Inactive)
REMARK    1  A    between atoms: C_1  and  C_2
REMARK    2  A    between atoms: C_2  and  C_3
REMARK    3  A    between atoms: C_2  and  C_4
REMARK    4  A    between atoms: C_4  and  N_5
REMARK    5  A    between atoms: N_5  and  C_6
REMARK    6  A    between atoms: N_5  and  C_14
REMARK    7  A    between atoms: C_6  and  C_7
REMARK    8  A    between atoms: C_17  and  C_18
REMARK    9  A    between atoms: N_20  and  C_21
REMARK   10  A    between atoms: C_21  and  C_22
REMARK                            x       y       z     vdW  Elec       q    Type
REMARK                         _______ _______ _______ _____ _____    ______ ____
ROOT
ATOM      1  C   UNL     1       3.698   6.238  18.274  0.00  0.00    +0.000 A 
ATOM      2  C   UNL     1       3.362   7.278  17.393  0.00  0.00    +0.000 A 
ATOM      3  C   UNL     1       2.504   8.333  17.760  0.00  0.00    +0.000 A 
ATOM      4  C   UNL     1       1.938   8.394  19.032  0.00  0.00    +0.000 A 
ATOM      5  C   UNL     1       2.251   7.378  19.931  0.00  0.00    +0.000 A 
ATOM      6  C   UNL     1       3.115   6.328  19.554  0.00  0.00    +0.000 A 
ENDROOT
BRANCH   4   7
ATOM      7  C   UNL     1       1.048   9.559  19.351  0.00  0.00    +0.000 C 
ATOM      8  O   UNL     1       0.932   9.931  20.517  0.00  0.00    +0.000 OA
ATOM      9  N   UNL     1       0.383  10.169  18.311  0.00  0.00    +0.000 N 
ATOM     10  H   UNL     1       0.492   9.856  17.361  0.00  0.00    +0.000 HD
BRANCH   9  11
ATOM     11  C   UNL     1      -0.507  11.294  18.528  0.00  0.00    +0.000 C 
BRANCH  11  12
ATOM     12  C   UNL     1      -1.828  11.094  17.843  0.00  0.00    +0.000 A 
ATOM     13  C   UNL     1      -1.979  10.182  16.794  0.00  0.00    +0.000 A 
ATOM     14  C   UNL     1      -3.229  10.003  16.207  0.00  0.00    +0.000 A 
ATOM     15  C   UNL     1      -4.293  10.745  16.689  0.00  0.00    +0.000 A 
ATOM     16  N   UNL     1      -4.189  11.636  17.699  0.00  0.00    +0.000 NA
ATOM     17  C   UNL     1      -2.964  11.784  18.254  0.00  0.00    +0.000 A 
ENDBRANCH  11  12
ENDBRANCH   9  11
ENDBRANCH   4   7
BRANCH   1  18
ATOM     18  N   UNL     1       4.564   5.205  17.912  0.00  0.00    +0.000 N 
BRANCH  18  19
ATOM     19  C   UNL     1       5.928   5.461  17.402  0.00  0.00    +0.000 C 
BRANCH  19  21
ATOM     20  C   UNL     1       7.727   5.639  19.180  0.00  0.00    +0.000 C 
ATOM     21  C   UNL     1       6.740   6.421  18.303  0.00  0.00    +0.000 C 
ATOM     22  C   UNL     1       7.521   7.463  17.500  0.00  0.00    +0.000 C 
ENDBRANCH  19  21
ENDBRANCH  18  19
BRANCH  18  23
ATOM     23  C   UNL     1       4.130   3.790  17.913  0.00  0.00    +0.000 C 
BRANCH  23  24
ATOM     24  C   UNL     1       3.174   3.404  19.029  0.00  0.00    +0.000 A 
ATOM     25  C   UNL     1       3.626   2.874  20.250  0.00  0.00    +0.000 A 
ATOM     26  C   UNL     1       2.735   2.584  21.287  0.00  0.00    +0.000 A 
ATOM     27  C   UNL     1       1.370   2.805  21.122  0.00  0.00    +0.000 A 
ATOM     28  C   UNL     1       0.893   3.272  19.901  0.00  0.00    +0.000 A 
ATOM     29  C   UNL     1       1.783   3.551  18.858  0.00  0.00    +0.000 A 
ATOM     30 CL   UNL     1       1.100   4.070  17.355  0.00  0.00    +0.000 Cl
ENDBRANCH  23  24
ENDBRANCH  18  23
ENDBRANCH   1  18
TORSDOF 8
ENDMDL
MODEL 7
REMARK VINA RESULT:      -8.1      1.386      1.889
REMARK  Name = 
REMARK  10 active torsions:
REMARK  status: ('A' for Active; 'I' for Inactive)
REMARK    1  A    between atoms: C_1  and  C_2
REMARK    2  A    between atoms: C_2  and  C_3
REMARK    3  A    between atoms: C_2  and  C_4
REMARK    4  A    between atoms: C_4  and  N_5
REMARK    5  A    between atoms: N_5  and  C_6
REMARK    6  A    between atoms: N_5  and  C_14
REMARK    7  A    between atoms: C_6  and  C_7
REMARK    8  A    between atoms: C_17  and  C_18
REMARK    9  A    between atoms: N_20  and  C_21
REMARK   10  A    between atoms: C_21  and  C_22
REMARK                            x       y       z     vdW  Elec       q    Type
REMARK                         _______ _______ _______ _____ _____    ______ ____
ROOT
ATOM      1  C   UNL     1       2.761   6.151  19.202  0.00  0.00    +0.000 A 
ATOM      2  C   UNL     1       2.203   6.553  20.426  0.00  0.00    +0.000 A 
ATOM      3  C   UNL     1       1.531   7.781  20.584  0.00  0.00    +0.000 A 
ATOM      4  C   UNL     1       1.386   8.667  19.518  0.00  0.00    +0.000 A 
ATOM      5  C   UNL     1       1.928   8.298  18.289  0.00  0.00    +0.000 A 
ATOM      6  C   UNL     1       2.597   7.066  18.141  0.00  0.00    +0.000 A 
ENDROOT
BRANCH   4   7
ATOM      7  C   UNL     1       0.642   9.946  19.763  0.00  0.00    +0.000 C 
ATOM      8  O   UNL     1       0.980  10.674  20.695  0.00  0.00    +0.000 OA
ATOM      9  N   UNL     1      -0.407  10.255  18.927  0.00  0.00    +0.000 N 
ATOM     10  H   UNL     1      -0.669   9.652  18.166  0.00  0.00    +0.000 HD
BRANCH   9  11
ATOM     11  C   UNL     1      -1.190  11.465  19.098  0.00  0.00    +0.000 C 
BRANCH  11  12
ATOM     12  C   UNL     1      -2.418  11.455  18.236  0.00  0.00    +0.000 A 
ATOM     13  C   UNL     1      -2.382  11.003  16.913  0.00  0.00    +0.000 A 
ATOM     14  C   UNL     1      -3.550  10.981  16.156  0.00  0.00    +0.000 A 
ATOM     15  C   UNL     1      -4.725  11.412  16.749  0.00  0.00    +0.000 A 
ATOM     16  N   UNL     1      -4.802  11.856  18.022  0.00  0.00    +0.000 NA
ATOM     17  C   UNL     1      -3.652  11.861  18.735  0.00  0.00    +0.000 A 
ENDBRANCH  11  12
ENDBRANCH   9  11
ENDBRANCH   4   7
BRANCH   1  18
ATOM     18  N   UNL     1       3.411   4.925  19.044  0.00  0.00    +0.000 N 
BRANCH  18  19
ATOM     19  C   UNL     1       3.198   3.795  19.974  0.00  0.00    +0.000 C 
BRANCH  19  21
ATOM     20  C   UNL     1       0.767   3.324  20.515  0.00  0.00    +0.000 C 
ATOM     21  C   UNL     1       1.955   2.948  19.620  0.00  0.00    +0.000 C 
ATOM     22  C   UNL     1       1.532   3.104  18.158  0.00  0.00    +0.000 C 
ENDBRANCH  19  21
ENDBRANCH  18  19
BRANCH  18  23
ATOM     23  C   UNL     1       4.438   4.718  18.000  0.00  0.00    +0.000 C 
BRANCH  23  24
ATOM     24  C   UNL     1       5.723   5.507  18.185  0.00  0.00    +0.000 A 
ATOM     25  C   UNL     1       6.562   5.317  19.297  0.00  0.00    +0.000 A 
ATOM     26  C   UNL     1       7.772   6.008  19.416  0.00  0.00    +0.000 A 
ATOM     27  C   UNL     1       8.162   6.914  18.434  0.00  0.00    +0.000 A 
ATOM     28  C   UNL     1       7.319   7.164  17.355  0.00  0.00    +0.000 A 
ATOM     29  C   UNL     1       6.102   6.481  17.240  0.00  0.00    +0.000 A 
ATOM     30 CL   UNL     1       5.089   6.896  15.901  0.00  0.00    +0.000 Cl
ENDBRANCH  23  24
ENDBRANCH  18  23
ENDBRANCH   1  18
TORSDOF 8
ENDMDL
MODEL 8
REMARK VINA RESULT:      -8.0      1.933      4.025
REMARK  Name = 
REMARK  10 active torsions:
REMARK  status: ('A' for Active; 'I' for Inactive)
REMARK    1  A    between atoms: C_1  and  C_2
REMARK    2  A    between atoms: C_2  and  C_3
REMARK    3  A    between atoms: C_2  and  C_4
REMARK    4  A    between atoms: C_4  and  N_5
REMARK    5  A    between atoms: N_5  and  C_6
REMARK    6  A    between atoms: N_5  and  C_14
REMARK    7  A    between atoms: C_6  and  C_7
REMARK    8  A    between atoms: C_17  and  C_18
REMARK    9  A    between atoms: N_20  and  C_21
REMARK   10  A    between atoms: C_21  and  C_22
REMARK                            x       y       z     vdW  Elec       q    Type
REMARK                         _______ _______ _______ _____ _____    ______ ____
ROOT
ATOM      1  C   UNL     1       3.340   6.854  18.373  0.00  0.00    +0.000 A 
ATOM      2  C   UNL     1       2.951   7.859  17.473  0.00  0.00    +0.000 A 
ATOM      3  C   UNL     1       2.009   8.851  17.807  0.00  0.00    +0.000 A 
ATOM      4  C   UNL     1       1.407   8.881  19.064  0.00  0.00    +0.000 A 
ATOM      5  C   UNL     1       1.771   7.898  19.981  0.00  0.00    +0.000 A 
ATOM      6  C   UNL     1       2.718   6.912  19.638  0.00  0.00    +0.000 A 
ENDROOT
BRANCH   4   7
ATOM      7  C   UNL     1       0.426   9.980  19.348  0.00  0.00    +0.000 C 
ATOM      8  O   UNL     1      -0.107  10.046  20.454  0.00  0.00    +0.000 OA
ATOM      9  N   UNL     1       0.154  10.880  18.342  0.00  0.00    +0.000 N 
ATOM     10  H   UNL     1       0.601  10.816  17.443  0.00  0.00    +0.000 HD
BRANCH   9  11
ATOM     11  C   UNL     1      -0.791  11.966  18.524  0.00  0.00    +0.000 C 
BRANCH  11  12
ATOM     12  C   UNL     1      -2.130  11.640  17.930  0.00  0.00    +0.000 A 
ATOM     13  C   UNL     1      -3.310  11.762  18.671  0.00  0.00    +0.000 A 
ATOM     14  C   UNL     1      -4.535  11.481  18.074  0.00  0.00    +0.000 A 
ATOM     15  C   UNL     1      -4.544  11.086  16.748  0.00  0.00    +0.000 A 
ATOM     16  N   UNL     1      -3.428  10.955  15.998  0.00  0.00    +0.000 NA
ATOM     17  C   UNL     1      -2.252  11.240  16.603  0.00  0.00    +0.000 A 
ENDBRANCH  11  12
ENDBRANCH   9  11
ENDBRANCH   4   7
BRANCH   1  18
ATOM     18  N   UNL     1       4.289   5.884  18.045  0.00  0.00    +0.000 N 
BRANCH  18  19
ATOM     19  C   UNL     1       5.708   6.220  17.804  0.00  0.00    +0.000 C 
BRANCH  19  21
ATOM     20  C   UNL     1       7.523   4.550  17.217  0.00  0.00    +0.000 C 
ATOM     21  C   UNL     1       6.683   5.152  18.351  0.00  0.00    +0.000 C 
ATOM     22  C   UNL     1       7.631   5.710  19.415  0.00  0.00    +0.000 C 
ENDBRANCH  19  21
ENDBRANCH  18  19
BRANCH  18  23
ATOM     23  C   UNL     1       3.910   4.474  17.809  0.00  0.00    +0.000 C 
BRANCH  23  24
ATOM     24  C   UNL     1       3.059   3.838  18.897  0.00  0.00    +0.000 A 
ATOM     25  C   UNL     1       3.624   3.290  20.062  0.00  0.00    +0.000 A 
ATOM     26  C   UNL     1       2.819   2.767  21.079  0.00  0.00    +0.000 A 
ATOM     27  C   UNL     1       1.433   2.768  20.947  0.00  0.00    +0.000 A 
ATOM     28  C   UNL     1       0.854   3.250  19.777  0.00  0.00    +0.000 A 
ATOM     29  C   UNL     1       1.660   3.763  18.753  0.00  0.00    +0.000 A 
ATOM     30 CL   UNL     1       0.862   4.285  17.309  0.00  0.00    +0.000 Cl
ENDBRANCH  23  24
ENDBRANCH  18  23
ENDBRANCH   1  18
TORSDOF 8
ENDMDL
MODEL 9
REMARK VINA RESULT:      -8.0      0.764      1.307
REMARK  Name = 
REMARK  10 active torsions:
REMARK  status: ('A' for Active; 'I' for Inactive)
REMARK    1  A    between atoms: C_1  and  C_2
REMARK    2  A    between atoms: C_2  and  C_3
REMARK    3  A    between atoms: C_2  and  C_4
REMARK    4  A    between atoms: C_4  and  N_5
REMARK    5  A    between atoms: N_5  and  C_6
REMARK    6  A    between atoms: N_5  and  C_14
REMARK    7  A    between atoms: C_6  and  C_7
REMARK    8  A    between atoms: C_17  and  C_18
REMARK    9  A    between atoms: N_20  and  C_21
REMARK   10  A    between atoms: C_21  and  C_22
REMARK                            x       y       z     vdW  Elec       q    Type
REMARK                         _______ _______ _______ _____ _____    ______ ____
ROOT
ATOM      1  C   UNL     1       3.273   5.737  19.202  0.00  0.00    +0.000 A 
ATOM      2  C   UNL     1       3.469   6.450  18.008  0.00  0.00    +0.000 A 
ATOM      3  C   UNL     1       2.871   7.703  17.768  0.00  0.00    +0.000 A 
ATOM      4  C   UNL     1       2.044   8.302  18.717  0.00  0.00    +0.000 A 
ATOM      5  C   UNL     1       1.829   7.621  19.913  0.00  0.00    +0.000 A 
ATOM      6  C   UNL     1       2.435   6.369  20.144  0.00  0.00    +0.000 A 
ENDROOT
BRANCH   4   7
ATOM      7  C   UNL     1       1.459   9.644  18.392  0.00  0.00    +0.000 C 
ATOM      8  O   UNL     1       2.036  10.379  17.592  0.00  0.00    +0.000 OA
ATOM      9  N   UNL     1       0.286  10.008  19.016  0.00  0.00    +0.000 N 
ATOM     10  H   UNL     1      -0.176   9.394  19.665  0.00  0.00    +0.000 HD
BRANCH   9  11
ATOM     11  C   UNL     1      -0.343  11.292  18.771  0.00  0.00    +0.000 C 
BRANCH  11  12
ATOM     12  C   UNL     1      -1.718  11.132  18.191  0.00  0.00    +0.000 A 
ATOM     13  C   UNL     1      -1.963  10.282  17.108  0.00  0.00    +0.000 A 
ATOM     14  C   UNL     1      -3.258  10.138  16.619  0.00  0.00    +0.000 A 
ATOM     15  C   UNL     1      -4.274  10.850  17.233  0.00  0.00    +0.000 A 
ATOM     16  N   UNL     1      -4.080  11.681  18.280  0.00  0.00    +0.000 NA
ATOM     17  C   UNL     1      -2.812  11.797  18.736  0.00  0.00    +0.000 A 
ENDBRANCH  11  12
ENDBRANCH   9  11
ENDBRANCH   4   7
BRANCH   1  18
ATOM     18  N   UNL     1       3.883   4.505  19.444  0.00  0.00    +0.000 N 
BRANCH  18  19
ATOM     19  C   UNL     1       3.169   3.388  20.098  0.00  0.00    +0.000 C 
BRANCH  19  21
ATOM     20  C   UNL     1       1.714   3.255  18.026  0.00  0.00    +0.000 C 
ATOM     21  C   UNL     1       2.466   2.448  19.091  0.00  0.00    +0.000 C 
ATOM     22  C   UNL     1       3.444   1.504  18.387  0.00  0.00    +0.000 C 
ENDBRANCH  19  21
ENDBRANCH  18  19
BRANCH  18  23
ATOM     23  C   UNL     1       5.317   4.278  19.160  0.00  0.00    +0.000 C 
BRANCH  23  24
ATOM     24  C   UNL     1       5.736   4.490  17.715  0.00  0.00    +0.000 A 
ATOM     25  C   UNL     1       5.101   3.829  16.648  0.00  0.00    +0.000 A 
ATOM     26  C   UNL     1       5.460   4.087  15.322  0.00  0.00    +0.000 A 
ATOM     27  C   UNL     1       6.470   5.000  15.033  0.00  0.00    +0.000 A 
ATOM     28  C   UNL     1       7.154   5.621  16.074  0.00  0.00    +0.000 A 
ATOM     29  C   UNL     1       6.803   5.355  17.403  0.00  0.00    +0.000 A 
ATOM     30 CL   UNL     1       7.744   6.124  18.636  0.00  0.00    +0.000 Cl
ENDBRANCH  23  24
ENDBRANCH  18  23
ENDBRANCH   1  18
TORSDOF 8
ENDMDL
