MODEL 1
REMARK VINA RESULT:      -7.4      0.000      0.000
REMARK  Name = 
REMARK  16 active torsions:
REMARK  status: ('A' for Active; 'I' for Inactive)
REMARK    1  A    between atoms: C_2  and  O_3
REMARK    2  A    between atoms: C_2  and  C_4
REMARK    3  A    between atoms: C_4  and  C_5
REMARK    4  A    between atoms: C_5  and  C_6
REMARK    5  A    between atoms: C_6  and  C_7
REMARK    6  A    between atoms: C_8  and  C_9
REMARK    7  A    between atoms: C_9  and  C_10
REMARK    8  A    between atoms: C_11  and  O_12
REMARK    9  A    between atoms: C_14  and  O_15
REMARK   10  A    between atoms: C_16  and  S_17
REMARK   11  A    between atoms: S_17  and  C_18
REMARK   12  A    between atoms: C_18  and  C_19
REMARK   13  A    between atoms: C_19  and  O_20
REMARK   14  A    between atoms: C_19  and  C_21
REMARK   15  A    between atoms: C_21  and  O_22
REMARK   16  A    between atoms: O_22  and  C_23
REMARK                            x       y       z     vdW  Elec       q    Type
REMARK                         _______ _______ _______ _____ _____    ______ ____
ROOT
ATOM      1  C   UNL     1       3.119   3.972  18.079  0.00  0.00    +0.000 C 
ATOM      2  C   UNL     1       2.318   2.741  17.624  0.00  0.00    +0.000 C 
ATOM      3  C   UNL     1       1.112   2.733  18.542  0.00  0.00    +0.000 C 
ATOM      4  C   UNL     1       1.678   3.137  19.898  0.00  0.00    +0.000 C 
ATOM      5  C   UNL     1       2.870   4.083  19.614  0.00  0.00    +0.000 C 
ENDROOT
BRANCH   2   6
ATOM      6  O   UNL     1       3.067   1.539  17.732  0.00  0.00    +0.000 OA
ATOM      7  H   UNL     1       3.063   1.053  16.892  0.00  0.00    +0.000 HD
ENDBRANCH   2   6
BRANCH   4   8
ATOM      8  O   UNL     1       0.635   3.684  20.687  0.00  0.00    +0.000 OA
ATOM      9  H   UNL     1       0.340   2.973  21.286  0.00  0.00    +0.000 HD
ENDBRANCH   4   8
BRANCH   1  10
ATOM     10  C   UNL     1       4.612   3.919  17.717  0.00  0.00    +0.000 C 
BRANCH  10  12
ATOM     11  C   UNL     1       5.416   5.733  16.107  0.00  0.00    +0.000 C 
ATOM     12  C   UNL     1       4.897   4.520  16.363  0.00  0.00    +0.000 C 
BRANCH  11  13
ATOM     13  C   UNL     1       5.816   6.755  17.127  0.00  0.00    +0.000 C 
BRANCH  13  14
ATOM     14  C   UNL     1       7.307   7.092  17.079  0.00  0.00    +0.000 C 
BRANCH  14  15
ATOM     15  C   UNL     1       7.935   6.886  18.457  0.00  0.00    +0.000 C 
BRANCH  15  17
ATOM     16  O   UNL     1       8.080   4.470  18.261  0.00  0.00    +0.000 OA
ATOM     17  C   UNL     1       7.828   5.458  18.931  0.00  0.00    +0.000 C 
BRANCH  17  18
ATOM     18  O   UNL     1       7.413   5.377  20.216  0.00  0.00    +0.000 OA
ATOM     19  H   UNL     1       7.808   6.050  20.802  0.00  0.00    +0.000 HD
ENDBRANCH  17  18
ENDBRANCH  15  17
ENDBRANCH  14  15
ENDBRANCH  13  14
ENDBRANCH  11  13
ENDBRANCH  10  12
ENDBRANCH   1  10
BRANCH   5  20
ATOM     20  S   UNL     1       2.585   5.853  20.056  0.00  0.00    +0.000 S 
BRANCH  20  21
ATOM     21  C   UNL     1       2.375   6.633  18.394  0.00  0.00    +0.000 C 
BRANCH  21  22
ATOM     22  C   UNL     1       2.409   8.173  18.491  0.00  0.00    +0.000 C 
BRANCH  22  23
ATOM     23  O   UNL     1       2.345   8.726  17.171  0.00  0.00    +0.000 OA
ATOM     24  H   UNL     1       1.411   8.951  17.008  0.00  0.00    +0.000 HD
ENDBRANCH  22  23
BRANCH  22  25
ATOM     25  C   UNL     1       1.299   8.755  19.391  0.00  0.00    +0.000 C 
BRANCH  25  26
ATOM     26  O   UNL     1       1.174  10.158  19.141  0.00  0.00    +0.000 OA
BRANCH  26  27
ATOM     27  C   UNL     1      -0.090  10.654  18.966  0.00  0.00    +0.000 A 
ATOM     28  C   UNL     1      -0.680  11.686  19.700  0.00  0.00    +0.000 A 
ATOM     29  C   UNL     1      -1.973  12.121  19.391  0.00  0.00    +0.000 A 
ATOM     30  C   UNL     1      -2.683  11.524  18.350  0.00  0.00    +0.000 A 
ATOM     31  C   UNL     1      -2.101  10.485  17.629  0.00  0.00    +0.000 A 
ATOM     32 CL   UNL     1      -2.974   9.743  16.346  0.00  0.00    +0.000 Cl
ATOM     33  C   UNL     1      -0.813  10.048  17.936  0.00  0.00    +0.000 A 
ENDBRANCH  26  27
ENDBRANCH  25  26
ENDBRANCH  22  25
ENDBRANCH  21  22
ENDBRANCH  20  21
ENDBRANCH   5  20
TORSDOF 16
ENDMDL
MODEL 2
REMARK VINA RESULT:      -6.9      1.943      2.393
REMARK  Name = 
REMARK  16 active torsions:
REMARK  status: ('A' for Active; 'I' for Inactive)
REMARK    1  A    between atoms: C_2  and  O_3
REMARK    2  A    between atoms: C_2  and  C_4
REMARK    3  A    between atoms: C_4  and  C_5
REMARK    4  A    between atoms: C_5  and  C_6
REMARK    5  A    between atoms: C_6  and  C_7
REMARK    6  A    between atoms: C_8  and  C_9
REMARK    7  A    between atoms: C_9  and  C_10
REMARK    8  A    between atoms: C_11  and  O_12
REMARK    9  A    between atoms: C_14  and  O_15
REMARK   10  A    between atoms: C_16  and  S_17
REMARK   11  A    between atoms: S_17  and  C_18
REMARK   12  A    between atoms: C_18  and  C_19
REMARK   13  A    between atoms: C_19  and  O_20
REMARK   14  A    between atoms: C_19  and  C_21
REMARK   15  A    between atoms: C_21  and  O_22
REMARK   16  A    between atoms: O_22  and  C_23
REMARK                            x       y       z     vdW  Elec       q    Type
REMARK                         _______ _______ _______ _____ _____    ______ ____
ROOT
ATOM      1  C   UNL     1       2.999   3.713  18.432  0.00  0.00    +0.000 C 
ATOM      2  C   UNL     1       2.302   2.476  17.844  0.00  0.00    +0.000 C 
ATOM      3  C   UNL     1       1.141   2.231  18.786  0.00  0.00    +0.000 C 
ATOM      4  C   UNL     1       1.719   2.514  20.167  0.00  0.00    +0.000 C 
ATOM      5  C   UNL     1       2.803   3.604  19.975  0.00  0.00    +0.000 C 
ENDROOT
BRANCH   2   6
ATOM      6  O   UNL     1       3.167   1.350  17.773  0.00  0.00    +0.000 OA
ATOM      7  H   UNL     1       3.768   1.328  18.535  0.00  0.00    +0.000 HD
ENDBRANCH   2   6
BRANCH   4   8
ATOM      8  O   UNL     1       0.661   2.850  21.048  0.00  0.00    +0.000 OA
ATOM      9  H   UNL     1       0.592   2.116  21.687  0.00  0.00    +0.000 HD
ENDBRANCH   4   8
BRANCH   1  10
ATOM     10  C   UNL     1       4.474   3.856  18.024  0.00  0.00    +0.000 C 
BRANCH  10  12
ATOM     11  C   UNL     1       5.146   5.553  16.236  0.00  0.00    +0.000 C 
ATOM     12  C   UNL     1       4.635   4.369  16.615  0.00  0.00    +0.000 C 
BRANCH  11  13
ATOM     13  C   UNL     1       5.660   6.625  17.147  0.00  0.00    +0.000 C 
BRANCH  13  14
ATOM     14  C   UNL     1       7.156   6.890  16.969  0.00  0.00    +0.000 C 
BRANCH  14  15
ATOM     15  C   UNL     1       7.862   6.835  18.324  0.00  0.00    +0.000 C 
BRANCH  15  17
ATOM     16  O   UNL     1       7.244   5.355  20.147  0.00  0.00    +0.000 OA
ATOM     17  C   UNL     1       7.678   5.509  19.017  0.00  0.00    +0.000 C 
BRANCH  17  18
ATOM     18  O   UNL     1       8.051   4.470  18.236  0.00  0.00    +0.000 OA
ATOM     19  H   UNL     1       8.695   3.870  18.658  0.00  0.00    +0.000 HD
ENDBRANCH  17  18
ENDBRANCH  15  17
ENDBRANCH  14  15
ENDBRANCH  13  14
ENDBRANCH  11  13
ENDBRANCH  10  12
ENDBRANCH   1  10
BRANCH   5  20
ATOM     20  S   UNL     1       2.367   5.266  20.650  0.00  0.00    +0.000 S 
BRANCH  20  21
ATOM     21  C   UNL     1       2.578   6.349  19.168  0.00  0.00    +0.000 C 
BRANCH  21  22
ATOM     22  C   UNL     1       1.832   7.687  19.342  0.00  0.00    +0.000 C 
BRANCH  22  23
ATOM     23  O   UNL     1       2.068   8.186  20.664  0.00  0.00    +0.000 OA
ATOM     24  H   UNL     1       2.223   7.409  21.233  0.00  0.00    +0.000 HD
ENDBRANCH  22  23
BRANCH  22  25
ATOM     25  C   UNL     1       2.204   8.741  18.278  0.00  0.00    +0.000 C 
BRANCH  25  26
ATOM     26  O   UNL     1       1.093   9.617  18.070  0.00  0.00    +0.000 OA
BRANCH  26  27
ATOM     27  C   UNL     1       1.115  10.823  18.720  0.00  0.00    +0.000 A 
ATOM     28  C   UNL     1       0.269  11.213  19.761  0.00  0.00    +0.000 A 
ATOM     29  C   UNL     1       0.425  12.466  20.363  0.00  0.00    +0.000 A 
ATOM     30  C   UNL     1       1.424  13.334  19.926  0.00  0.00    +0.000 A 
ATOM     31  C   UNL     1       2.257  12.950  18.878  0.00  0.00    +0.000 A 
ATOM     32 CL   UNL     1       3.490  14.019  18.332  0.00  0.00    +0.000 Cl
ATOM     33  C   UNL     1       2.103  11.703  18.274  0.00  0.00    +0.000 A 
ENDBRANCH  26  27
ENDBRANCH  25  26
ENDBRANCH  22  25
ENDBRANCH  21  22
ENDBRANCH  20  21
ENDBRANCH   5  20
TORSDOF 16
ENDMDL
MODEL 3
REMARK VINA RESULT:      -6.8      3.198      8.016
REMARK  Name = 
REMARK  16 active torsions:
REMARK  status: ('A' for Active; 'I' for Inactive)
REMARK    1  A    between atoms: C_2  and  O_3
REMARK    2  A    between atoms: C_2  and  C_4
REMARK    3  A    between atoms: C_4  and  C_5
REMARK    4  A    between atoms: C_5  and  C_6
REMARK    5  A    between atoms: C_6  and  C_7
REMARK    6  A    between atoms: C_8  and  C_9
REMARK    7  A    between atoms: C_9  and  C_10
REMARK    8  A    between atoms: C_11  and  O_12
REMARK    9  A    between atoms: C_14  and  O_15
REMARK   10  A    between atoms: C_16  and  S_17
REMARK   11  A    between atoms: S_17  and  C_18
REMARK   12  A    between atoms: C_18  and  C_19
REMARK   13  A    between atoms: C_19  and  O_20
REMARK   14  A    between atoms: C_19  and  C_21
REMARK   15  A    between atoms: C_21  and  O_22
REMARK   16  A    between atoms: O_22  and  C_23
REMARK                            x       y       z     vdW  Elec       q    Type
REMARK                         _______ _______ _______ _____ _____    ______ ____
ROOT
ATOM      1  C   UNL     1       2.688   4.056  20.058  0.00  0.00    +0.000 C 
ATOM      2  C   UNL     1       1.852   2.802  19.757  0.00  0.00    +0.000 C 
ATOM      3  C   UNL     1       2.740   1.987  18.839  0.00  0.00    +0.000 C 
ATOM      4  C   UNL     1       3.383   3.025  17.928  0.00  0.00    +0.000 C 
ATOM      5  C   UNL     1       3.518   4.321  18.765  0.00  0.00    +0.000 C 
ENDROOT
BRANCH   2   6
ATOM      6  O   UNL     1       0.609   3.115  19.144  0.00  0.00    +0.000 OA
ATOM      7  H   UNL     1       0.546   4.065  18.957  0.00  0.00    +0.000 HD
ENDBRANCH   2   6
BRANCH   4   8
ATOM      8  O   UNL     1       4.594   2.499  17.413  0.00  0.00    +0.000 OA
ATOM      9  H   UNL     1       5.303   3.102  17.704  0.00  0.00    +0.000 HD
ENDBRANCH   4   8
BRANCH   1  10
ATOM     10  C   UNL     1       1.859   5.273  20.498  0.00  0.00    +0.000 C 
BRANCH  10  12
ATOM     11  C   UNL     1       1.897   7.782  20.015  0.00  0.00    +0.000 C 
ATOM     12  C   UNL     1       2.175   6.508  19.691  0.00  0.00    +0.000 C 
BRANCH  11  13
ATOM     13  C   UNL     1       1.200   8.245  21.258  0.00  0.00    +0.000 C 
BRANCH  13  14
ATOM     14  C   UNL     1       0.036   9.194  20.970  0.00  0.00    +0.000 C 
BRANCH  14  15
ATOM     15  C   UNL     1       0.568  10.533  20.457  0.00  0.00    +0.000 C 
BRANCH  15  17
ATOM     16  O   UNL     1      -0.945  11.705  18.963  0.00  0.00    +0.000 OA
ATOM     17  C   UNL     1      -0.028  10.916  19.126  0.00  0.00    +0.000 C 
BRANCH  17  18
ATOM     18  O   UNL     1       0.575  10.282  18.095  0.00  0.00    +0.000 OA
ATOM     19  H   UNL     1       1.468  10.621  17.891  0.00  0.00    +0.000 HD
ENDBRANCH  17  18
ENDBRANCH  15  17
ENDBRANCH  14  15
ENDBRANCH  13  14
ENDBRANCH  11  13
ENDBRANCH  10  12
ENDBRANCH   1  10
BRANCH   5  20
ATOM     20  S   UNL     1       5.246   4.771  19.235  0.00  0.00    +0.000 S 
BRANCH  20  21
ATOM     21  C   UNL     1       5.651   6.079  17.994  0.00  0.00    +0.000 C 
BRANCH  21  22
ATOM     22  C   UNL     1       7.112   5.960  17.512  0.00  0.00    +0.000 C 
BRANCH  22  23
ATOM     23  O   UNL     1       7.989   6.115  18.634  0.00  0.00    +0.000 OA
ATOM     24  H   UNL     1       8.077   7.074  18.789  0.00  0.00    +0.000 HD
ENDBRANCH  22  23
BRANCH  22  25
ATOM     25  C   UNL     1       7.403   4.645  16.758  0.00  0.00    +0.000 C 
BRANCH  25  26
ATOM     26  O   UNL     1       6.327   4.367  15.858  0.00  0.00    +0.000 OA
BRANCH  26  27
ATOM     27  C   UNL     1       6.609   4.387  14.518  0.00  0.00    +0.000 A 
ATOM     28  C   UNL     1       7.567   5.186  13.890  0.00  0.00    +0.000 A 
ATOM     29  C   UNL     1       7.779   5.079  12.511  0.00  0.00    +0.000 A 
ATOM     30  C   UNL     1       7.033   4.177  11.755  0.00  0.00    +0.000 A 
ATOM     31  C   UNL     1       6.067   3.391  12.380  0.00  0.00    +0.000 A 
ATOM     32 CL   UNL     1       5.141   2.278  11.451  0.00  0.00    +0.000 Cl
ATOM     33  C   UNL     1       5.852   3.496  13.753  0.00  0.00    +0.000 A 
ENDBRANCH  26  27
ENDBRANCH  25  26
ENDBRANCH  22  25
ENDBRANCH  21  22
ENDBRANCH  20  21
ENDBRANCH   5  20
TORSDOF 16
ENDMDL
MODEL 4
REMARK VINA RESULT:      -6.7      1.597      4.571
REMARK  Name = 
REMARK  16 active torsions:
REMARK  status: ('A' for Active; 'I' for Inactive)
REMARK    1  A    between atoms: C_2  and  O_3
REMARK    2  A    between atoms: C_2  and  C_4
REMARK    3  A    between atoms: C_4  and  C_5
REMARK    4  A    between atoms: C_5  and  C_6
REMARK    5  A    between atoms: C_6  and  C_7
REMARK    6  A    between atoms: C_8  and  C_9
REMARK    7  A    between atoms: C_9  and  C_10
REMARK    8  A    between atoms: C_11  and  O_12
REMARK    9  A    between atoms: C_14  and  O_15
REMARK   10  A    between atoms: C_16  and  S_17
REMARK   11  A    between atoms: S_17  and  C_18
REMARK   12  A    between atoms: C_18  and  C_19
REMARK   13  A    between atoms: C_19  and  O_20
REMARK   14  A    between atoms: C_19  and  C_21
REMARK   15  A    between atoms: C_21  and  O_22
REMARK   16  A    between atoms: O_22  and  C_23
REMARK                            x       y       z     vdW  Elec       q    Type
REMARK                         _______ _______ _______ _____ _____    ______ ____
ROOT
ATOM      1  C   UNL     1       5.828   5.014  17.469  0.00  0.00    +0.000 C 
ATOM      2  C   UNL     1       7.210   4.748  18.087  0.00  0.00    +0.000 C 
ATOM      3  C   UNL     1       7.725   6.130  18.435  0.00  0.00    +0.000 C 
ATOM      4  C   UNL     1       7.283   6.995  17.261  0.00  0.00    +0.000 C 
ATOM      5  C   UNL     1       5.959   6.385  16.738  0.00  0.00    +0.000 C 
ENDROOT
BRANCH   2   6
ATOM      6  O   UNL     1       8.082   4.073  17.190  0.00  0.00    +0.000 OA
ATOM      7  H   UNL     1       8.390   4.672  16.491  0.00  0.00    +0.000 HD
ENDBRANCH   2   6
BRANCH   4   8
ATOM      8  O   UNL     1       7.211   8.345  17.686  0.00  0.00    +0.000 OA
ATOM      9  H   UNL     1       6.486   8.756  17.179  0.00  0.00    +0.000 HD
ENDBRANCH   4   8
BRANCH   1  10
ATOM     10  C   UNL     1       5.324   3.891  16.549  0.00  0.00    +0.000 C 
BRANCH  10  12
ATOM     11  C   UNL     1       2.972   3.035  17.060  0.00  0.00    +0.000 C 
ATOM     12  C   UNL     1       3.820   3.870  16.436  0.00  0.00    +0.000 C 
BRANCH  11  13
ATOM     13  C   UNL     1       3.350   1.933  18.004  0.00  0.00    +0.000 C 
BRANCH  13  14
ATOM     14  C   UNL     1       2.521   1.939  19.288  0.00  0.00    +0.000 C 
BRANCH  14  15
ATOM     15  C   UNL     1       1.836   3.295  19.464  0.00  0.00    +0.000 C 
BRANCH  15  17
ATOM     16  O   UNL     1       2.220   4.632  21.453  0.00  0.00    +0.000 OA
ATOM     17  C   UNL     1       1.683   3.678  20.913  0.00  0.00    +0.000 C 
BRANCH  17  18
ATOM     18  O   UNL     1       0.863   2.835  21.581  0.00  0.00    +0.000 OA
ATOM     19  H   UNL     1       0.850   2.979  22.546  0.00  0.00    +0.000 HD
ENDBRANCH  17  18
ENDBRANCH  15  17
ENDBRANCH  14  15
ENDBRANCH  13  14
ENDBRANCH  11  13
ENDBRANCH  10  12
ENDBRANCH   1  10
BRANCH   5  20
ATOM     20  S   UNL     1       4.449   7.396  17.070  0.00  0.00    +0.000 S 
BRANCH  20  21
ATOM     21  C   UNL     1       3.797   6.616  18.613  0.00  0.00    +0.000 C 
BRANCH  21  22
ATOM     22  C   UNL     1       2.364   7.096  18.920  0.00  0.00    +0.000 C 
BRANCH  22  23
ATOM     23  O   UNL     1       2.259   7.390  20.317  0.00  0.00    +0.000 OA
ATOM     24  H   UNL     1       3.159   7.324  20.686  0.00  0.00    +0.000 HD
ENDBRANCH  22  23
BRANCH  22  25
ATOM     25  C   UNL     1       1.926   8.304  18.064  0.00  0.00    +0.000 C 
BRANCH  25  26
ATOM     26  O   UNL     1       1.732   9.439  18.912  0.00  0.00    +0.000 OA
BRANCH  26  27
ATOM     27  C   UNL     1       0.488  10.012  18.917  0.00  0.00    +0.000 A 
ATOM     28  C   UNL     1      -0.025  10.860  19.902  0.00  0.00    +0.000 A 
ATOM     29  C   UNL     1      -1.304  11.408  19.764  0.00  0.00    +0.000 A 
ATOM     30  C   UNL     1      -2.078  11.108  18.644  0.00  0.00    +0.000 A 
ATOM     31  C   UNL     1      -1.573  10.250  17.670  0.00  0.00    +0.000 A 
ATOM     32 CL   UNL     1      -2.525   9.873  16.288  0.00  0.00    +0.000 Cl
ATOM     33  C   UNL     1      -0.298   9.701  17.806  0.00  0.00    +0.000 A 
ENDBRANCH  26  27
ENDBRANCH  25  26
ENDBRANCH  22  25
ENDBRANCH  21  22
ENDBRANCH  20  21
ENDBRANCH   5  20
TORSDOF 16
ENDMDL
MODEL 5
REMARK VINA RESULT:      -6.7      2.523      3.479
REMARK  Name = 
REMARK  16 active torsions:
REMARK  status: ('A' for Active; 'I' for Inactive)
REMARK    1  A    between atoms: C_2  and  O_3
REMARK    2  A    between atoms: C_2  and  C_4
REMARK    3  A    between atoms: C_4  and  C_5
REMARK    4  A    between atoms: C_5  and  C_6
REMARK    5  A    between atoms: C_6  and  C_7
REMARK    6  A    between atoms: C_8  and  C_9
REMARK    7  A    between atoms: C_9  and  C_10
REMARK    8  A    between atoms: C_11  and  O_12
REMARK    9  A    between atoms: C_14  and  O_15
REMARK   10  A    between atoms: C_16  and  S_17
REMARK   11  A    between atoms: S_17  and  C_18
REMARK   12  A    between atoms: C_18  and  C_19
REMARK   13  A    between atoms: C_19  and  O_20
REMARK   14  A    between atoms: C_19  and  C_21
REMARK   15  A    between atoms: C_21  and  O_22
REMARK   16  A    between atoms: O_22  and  C_23
REMARK                            x       y       z     vdW  Elec       q    Type
REMARK                         _______ _______ _______ _____ _____    ______ ____
ROOT
ATOM      1  C   UNL     1       4.707   4.593  18.415  0.00  0.00    +0.000 C 
ATOM      2  C   UNL     1       4.552   3.086  18.677  0.00  0.00    +0.000 C 
ATOM      3  C   UNL     1       3.056   2.896  18.826  0.00  0.00    +0.000 C 
ATOM      4  C   UNL     1       2.604   4.120  19.615  0.00  0.00    +0.000 C 
ATOM      5  C   UNL     1       3.559   5.274  19.220  0.00  0.00    +0.000 C 
ENDROOT
BRANCH   2   6
ATOM      6  O   UNL     1       5.253   2.665  19.839  0.00  0.00    +0.000 OA
ATOM      7  H   UNL     1       5.215   3.344  20.531  0.00  0.00    +0.000 HD
ENDBRANCH   2   6
BRANCH   4   8
ATOM      8  O   UNL     1       1.229   4.348  19.362  0.00  0.00    +0.000 OA
ATOM      9  H   UNL     1       0.818   4.542  20.225  0.00  0.00    +0.000 HD
ENDBRANCH   4   8
BRANCH   1  10
ATOM     10  C   UNL     1       6.096   5.151  18.763  0.00  0.00    +0.000 C 
BRANCH  10  12
ATOM     11  C   UNL     1       7.130   4.827  16.449  0.00  0.00    +0.000 C 
ATOM     12  C   UNL     1       7.157   4.706  17.787  0.00  0.00    +0.000 C 
BRANCH  11  13
ATOM     13  C   UNL     1       6.023   5.431  15.639  0.00  0.00    +0.000 C 
BRANCH  13  14
ATOM     14  C   UNL     1       5.388   4.437  14.666  0.00  0.00    +0.000 C 
BRANCH  14  15
ATOM     15  C   UNL     1       6.437   3.931  13.675  0.00  0.00    +0.000 C 
BRANCH  15  17
ATOM     16  O   UNL     1       4.694   3.518  12.036  0.00  0.00    +0.000 OA
ATOM     17  C   UNL     1       5.818   3.295  12.456  0.00  0.00    +0.000 C 
BRANCH  17  18
ATOM     18  O   UNL     1       6.659   2.426  11.851  0.00  0.00    +0.000 OA
ATOM     19  H   UNL     1       6.281   1.997  11.059  0.00  0.00    +0.000 HD
ENDBRANCH  17  18
ENDBRANCH  15  17
ENDBRANCH  14  15
ENDBRANCH  13  14
ENDBRANCH  11  13
ENDBRANCH  10  12
ENDBRANCH   1  10
BRANCH   5  20
ATOM     20  S   UNL     1       2.796   6.600  18.187  0.00  0.00    +0.000 S 
BRANCH  20  21
ATOM     21  C   UNL     1       2.139   7.755  19.471  0.00  0.00    +0.000 C 
BRANCH  21  22
ATOM     22  C   UNL     1       1.820   9.139  18.868  0.00  0.00    +0.000 C 
BRANCH  22  23
ATOM     23  O   UNL     1       1.722   9.017  17.444  0.00  0.00    +0.000 OA
ATOM     24  H   UNL     1       1.115   8.275  17.268  0.00  0.00    +0.000 HD
ENDBRANCH  22  23
BRANCH  22  25
ATOM     25  C   UNL     1       0.550   9.787  19.458  0.00  0.00    +0.000 C 
BRANCH  25  26
ATOM     26  O   UNL     1       0.079  10.802  18.567  0.00  0.00    +0.000 OA
BRANCH  26  27
ATOM     27  C   UNL     1      -1.238  10.747  18.194  0.00  0.00    +0.000 A 
ATOM     28  C   UNL     1      -1.774   9.947  17.181  0.00  0.00    +0.000 A 
ATOM     29  C   UNL     1      -3.150   9.961  16.927  0.00  0.00    +0.000 A 
ATOM     30  C   UNL     1      -3.994  10.775  17.681  0.00  0.00    +0.000 A 
ATOM     31  C   UNL     1      -3.456  11.583  18.679  0.00  0.00    +0.000 A 
ATOM     32 CL   UNL     1      -4.492  12.593  19.610  0.00  0.00    +0.000 Cl
ATOM     33  C   UNL     1      -2.085  11.574  18.934  0.00  0.00    +0.000 A 
ENDBRANCH  26  27
ENDBRANCH  25  26
ENDBRANCH  22  25
ENDBRANCH  21  22
ENDBRANCH  20  21
ENDBRANCH   5  20
TORSDOF 16
ENDMDL
MODEL 6
REMARK VINA RESULT:      -6.6      1.802      2.488
REMARK  Name = 
REMARK  16 active torsions:
REMARK  status: ('A' for Active; 'I' for Inactive)
REMARK    1  A    between atoms: C_2  and  O_3
REMARK    2  A    between atoms: C_2  and  C_4
REMARK    3  A    between atoms: C_4  and  C_5
REMARK    4  A    between atoms: C_5  and  C_6
REMARK    5  A    between atoms: C_6  and  C_7
REMARK    6  A    between atoms: C_8  and  C_9
REMARK    7  A    between atoms: C_9  and  C_10
REMARK    8  A    between atoms: C_11  and  O_12
REMARK    9  A    between atoms: C_14  and  O_15
REMARK   10  A    between atoms: C_16  and  S_17
REMARK   11  A    between atoms: S_17  and  C_18
REMARK   12  A    between atoms: C_18  and  C_19
REMARK   13  A    between atoms: C_19  and  O_20
REMARK   14  A    between atoms: C_19  and  C_21
REMARK   15  A    between atoms: C_21  and  O_22
REMARK   16  A    between atoms: O_22  and  C_23
REMARK                            x       y       z     vdW  Elec       q    Type
REMARK                         _______ _______ _______ _____ _____    ______ ____
ROOT
ATOM      1  C   UNL     1       3.662   3.866  18.569  0.00  0.00    +0.000 C 
ATOM      2  C   UNL     1       3.209   2.604  17.816  0.00  0.00    +0.000 C 
ATOM      3  C   UNL     1       1.769   2.422  18.249  0.00  0.00    +0.000 C 
ATOM      4  C   UNL     1       1.780   2.776  19.731  0.00  0.00    +0.000 C 
ATOM      5  C   UNL     1       2.886   3.844  19.920  0.00  0.00    +0.000 C 
ENDROOT
BRANCH   2   6
ATOM      6  O   UNL     1       4.002   1.470  18.138  0.00  0.00    +0.000 OA
ATOM      7  H   UNL     1       3.928   1.252  19.081  0.00  0.00    +0.000 HD
ENDBRANCH   2   6
BRANCH   4   8
ATOM      8  O   UNL     1       0.475   3.168  20.121  0.00  0.00    +0.000 OA
ATOM      9  H   UNL     1       0.345   2.832  21.027  0.00  0.00    +0.000 HD
ENDBRANCH   4   8
BRANCH   1  10
ATOM     10  C   UNL     1       5.184   3.974  18.754  0.00  0.00    +0.000 C 
BRANCH  10  12
ATOM     11  C   UNL     1       5.590   6.216  17.597  0.00  0.00    +0.000 C 
ATOM     12  C   UNL     1       5.677   5.397  18.659  0.00  0.00    +0.000 C 
BRANCH  11  13
ATOM     13  C   UNL     1       4.984   5.878  16.268  0.00  0.00    +0.000 C 
BRANCH  13  14
ATOM     14  C   UNL     1       6.032   5.575  15.197  0.00  0.00    +0.000 C 
BRANCH  14  15
ATOM     15  C   UNL     1       5.922   4.115  14.755  0.00  0.00    +0.000 C 
BRANCH  15  17
ATOM     16  O   UNL     1       5.819   3.148  12.530  0.00  0.00    +0.000 OA
ATOM     17  C   UNL     1       6.344   3.915  13.321  0.00  0.00    +0.000 C 
BRANCH  17  18
ATOM     18  O   UNL     1       7.395   4.697  12.984  0.00  0.00    +0.000 OA
ATOM     19  H   UNL     1       7.502   4.820  12.022  0.00  0.00    +0.000 HD
ENDBRANCH  17  18
ENDBRANCH  15  17
ENDBRANCH  14  15
ENDBRANCH  13  14
ENDBRANCH  11  13
ENDBRANCH  10  12
ENDBRANCH   1  10
BRANCH   5  20
ATOM     20  S   UNL     1       2.273   5.544  20.296  0.00  0.00    +0.000 S 
BRANCH  20  21
ATOM     21  C   UNL     1       2.198   6.305  18.614  0.00  0.00    +0.000 C 
BRANCH  21  22
ATOM     22  C   UNL     1       2.439   7.827  18.677  0.00  0.00    +0.000 C 
BRANCH  22  23
ATOM     23  O   UNL     1       2.483   8.350  17.344  0.00  0.00    +0.000 OA
ATOM     24  H   UNL     1       1.988   9.190  17.357  0.00  0.00    +0.000 HD
ENDBRANCH  22  23
BRANCH  22  25
ATOM     25  C   UNL     1       1.398   8.578  19.534  0.00  0.00    +0.000 C 
BRANCH  25  26
ATOM     26  O   UNL     1       1.287   9.927  19.070  0.00  0.00    +0.000 OA
BRANCH  26  27
ATOM     27  C   UNL     1       0.025  10.430  18.900  0.00  0.00    +0.000 A 
ATOM     28  C   UNL     1      -0.594  11.392  19.702  0.00  0.00    +0.000 A 
ATOM     29  C   UNL     1      -1.880  11.846  19.393  0.00  0.00    +0.000 A 
ATOM     30  C   UNL     1      -2.554  11.339  18.283  0.00  0.00    +0.000 A 
ATOM     31  C   UNL     1      -1.943  10.368  17.492  0.00  0.00    +0.000 A 
ATOM     32 CL   UNL     1      -2.771   9.736  16.124  0.00  0.00    +0.000 Cl
ATOM     33  C   UNL     1      -0.662   9.912  17.799  0.00  0.00    +0.000 A 
ENDBRANCH  26  27
ENDBRANCH  25  26
ENDBRANCH  22  25
ENDBRANCH  21  22
ENDBRANCH  20  21
ENDBRANCH   5  20
TORSDOF 16
ENDMDL
MODEL 7
REMARK VINA RESULT:      -6.6      1.732      2.083
REMARK  Name = 
REMARK  16 active torsions:
REMARK  status: ('A' for Active; 'I' for Inactive)
REMARK    1  A    between atoms: C_2  and  O_3
REMARK    2  A    between atoms: C_2  and  C_4
REMARK    3  A    between atoms: C_4  and  C_5
REMARK    4  A    between atoms: C_5  and  C_6
REMARK    5  A    between atoms: C_6  and  C_7
REMARK    6  A    between atoms: C_8  and  C_9
REMARK    7  A    between atoms: C_9  and  C_10
REMARK    8  A    between atoms: C_11  and  O_12
REMARK    9  A    between atoms: C_14  and  O_15
REMARK   10  A    between atoms: C_16  and  S_17
REMARK   11  A    between atoms: S_17  and  C_18
REMARK   12  A    between atoms: C_18  and  C_19
REMARK   13  A    between atoms: C_19  and  O_20
REMARK   14  A    between atoms: C_19  and  C_21
REMARK   15  A    between atoms: C_21  and  O_22
REMARK   16  A    between atoms: O_22  and  C_23
REMARK                            x       y       z     vdW  Elec       q    Type
REMARK                         _______ _______ _______ _____ _____    ______ ____
ROOT
ATOM      1  C   UNL     1       3.475   3.489  17.954  0.00  0.00    +0.000 C 
ATOM      2  C   UNL     1       3.288   2.110  18.607  0.00  0.00    +0.000 C 
ATOM      3  C   UNL     1       2.062   2.285  19.479  0.00  0.00    +0.000 C 
ATOM      4  C   UNL     1       2.224   3.680  20.071  0.00  0.00    +0.000 C 
ATOM      5  C   UNL     1       2.984   4.520  19.015  0.00  0.00    +0.000 C 
ENDROOT
BRANCH   2   6
ATOM      6  O   UNL     1       4.421   1.715  19.368  0.00  0.00    +0.000 OA
ATOM      7  H   UNL     1       4.156   1.169  20.125  0.00  0.00    +0.000 HD
ENDBRANCH   2   6
BRANCH   4   8
ATOM      8  O   UNL     1       0.949   4.172  20.446  0.00  0.00    +0.000 OA
ATOM      9  H   UNL     1       0.664   4.772  19.731  0.00  0.00    +0.000 HD
ENDBRANCH   4   8
BRANCH   1  10
ATOM     10  C   UNL     1       4.906   3.765  17.467  0.00  0.00    +0.000 C 
BRANCH  10  12
ATOM     11  C   UNL     1       5.346   5.624  15.770  0.00  0.00    +0.000 C 
ATOM     12  C   UNL     1       4.938   4.385  16.092  0.00  0.00    +0.000 C 
BRANCH  11  13
ATOM     13  C   UNL     1       5.854   6.663  16.724  0.00  0.00    +0.000 C 
BRANCH  13  14
ATOM     14  C   UNL     1       7.366   6.585  16.939  0.00  0.00    +0.000 C 
BRANCH  14  15
ATOM     15  C   UNL     1       7.697   6.806  18.415  0.00  0.00    +0.000 C 
BRANCH  15  17
ATOM     16  O   UNL     1       7.867   5.397  20.385  0.00  0.00    +0.000 OA
ATOM     17  C   UNL     1       7.857   5.511  19.170  0.00  0.00    +0.000 C 
BRANCH  17  18
ATOM     18  O   UNL     1       7.992   4.451  18.342  0.00  0.00    +0.000 OA
ATOM     19  H   UNL     1       7.144   4.069  18.047  0.00  0.00    +0.000 HD
ENDBRANCH  17  18
ENDBRANCH  15  17
ENDBRANCH  14  15
ENDBRANCH  13  14
ENDBRANCH  11  13
ENDBRANCH  10  12
ENDBRANCH   1  10
BRANCH   5  20
ATOM     20  S   UNL     1       1.974   5.820  18.178  0.00  0.00    +0.000 S 
BRANCH  20  21
ATOM     21  C   UNL     1       2.313   7.303  19.227  0.00  0.00    +0.000 C 
BRANCH  21  22
ATOM     22  C   UNL     1       2.407   8.583  18.371  0.00  0.00    +0.000 C 
BRANCH  22  23
ATOM     23  O   UNL     1       2.832   8.232  17.049  0.00  0.00    +0.000 OA
ATOM     24  H   UNL     1       2.757   7.262  16.980  0.00  0.00    +0.000 HD
ENDBRANCH  22  23
BRANCH  22  25
ATOM     25  C   UNL     1       1.094   9.394  18.335  0.00  0.00    +0.000 C 
BRANCH  25  26
ATOM     26  O   UNL     1       0.606   9.564  19.669  0.00  0.00    +0.000 OA
BRANCH  26  27
ATOM     27  C   UNL     1      -0.348  10.526  19.869  0.00  0.00    +0.000 A 
ATOM     28  C   UNL     1      -1.326  10.921  18.952  0.00  0.00    +0.000 A 
ATOM     29  C   UNL     1      -2.267  11.895  19.301  0.00  0.00    +0.000 A 
ATOM     30  C   UNL     1      -2.233  12.481  20.565  0.00  0.00    +0.000 A 
ATOM     31  C   UNL     1      -1.249  12.098  21.473  0.00  0.00    +0.000 A 
ATOM     32 CL   UNL     1      -1.200  12.821  23.034  0.00  0.00    +0.000 Cl
ATOM     33  C   UNL     1      -0.308  11.129  21.128  0.00  0.00    +0.000 A 
ENDBRANCH  26  27
ENDBRANCH  25  26
ENDBRANCH  22  25
ENDBRANCH  21  22
ENDBRANCH  20  21
ENDBRANCH   5  20
TORSDOF 16
ENDMDL
MODEL 8
REMARK VINA RESULT:      -6.6      2.506      4.964
REMARK  Name = 
REMARK  16 active torsions:
REMARK  status: ('A' for Active; 'I' for Inactive)
REMARK    1  A    between atoms: C_2  and  O_3
REMARK    2  A    between atoms: C_2  and  C_4
REMARK    3  A    between atoms: C_4  and  C_5
REMARK    4  A    between atoms: C_5  and  C_6
REMARK    5  A    between atoms: C_6  and  C_7
REMARK    6  A    between atoms: C_8  and  C_9
REMARK    7  A    between atoms: C_9  and  C_10
REMARK    8  A    between atoms: C_11  and  O_12
REMARK    9  A    between atoms: C_14  and  O_15
REMARK   10  A    between atoms: C_16  and  S_17
REMARK   11  A    between atoms: S_17  and  C_18
REMARK   12  A    between atoms: C_18  and  C_19
REMARK   13  A    between atoms: C_19  and  O_20
REMARK   14  A    between atoms: C_19  and  C_21
REMARK   15  A    between atoms: C_21  and  O_22
REMARK   16  A    between atoms: O_22  and  C_23
REMARK                            x       y       z     vdW  Elec       q    Type
REMARK                         _______ _______ _______ _____ _____    ______ ____
ROOT
ATOM      1  C   UNL     1       4.938   5.671  18.553  0.00  0.00    +0.000 C 
ATOM      2  C   UNL     1       5.956   4.702  17.929  0.00  0.00    +0.000 C 
ATOM      3  C   UNL     1       6.267   5.321  16.582  0.00  0.00    +0.000 C 
ATOM      4  C   UNL     1       4.919   5.837  16.092  0.00  0.00    +0.000 C 
ATOM      5  C   UNL     1       4.115   6.235  17.355  0.00  0.00    +0.000 C 
ENDROOT
BRANCH   2   6
ATOM      6  O   UNL     1       5.437   3.386  17.796  0.00  0.00    +0.000 OA
ATOM      7  H   UNL     1       4.505   3.353  18.063  0.00  0.00    +0.000 HD
ENDBRANCH   2   6
BRANCH   4   8
ATOM      8  O   UNL     1       5.138   6.875  15.152  0.00  0.00    +0.000 OA
ATOM      9  H   UNL     1       5.572   7.601  15.639  0.00  0.00    +0.000 HD
ENDBRANCH   4   8
BRANCH   1  10
ATOM     10  C   UNL     1       4.055   5.040  19.642  0.00  0.00    +0.000 C 
BRANCH  10  12
ATOM     11  C   UNL     1       1.661   5.384  20.463  0.00  0.00    +0.000 C 
ATOM     12  C   UNL     1       2.791   5.825  19.885  0.00  0.00    +0.000 C 
BRANCH  11  13
ATOM     13  C   UNL     1       1.418   4.000  20.984  0.00  0.00    +0.000 C 
BRANCH  13  14
ATOM     14  C   UNL     1       0.733   3.091  19.963  0.00  0.00    +0.000 C 
BRANCH  14  15
ATOM     15  C   UNL     1       1.726   2.056  19.434  0.00  0.00    +0.000 C 
BRANCH  15  17
ATOM     16  O   UNL     1       1.845   3.333  17.372  0.00  0.00    +0.000 OA
ATOM     17  C   UNL     1       2.209   2.380  18.044  0.00  0.00    +0.000 C 
BRANCH  17  18
ATOM     18  O   UNL     1       3.119   1.485  17.597  0.00  0.00    +0.000 OA
ATOM     19  H   UNL     1       2.769   0.867  16.927  0.00  0.00    +0.000 HD
ENDBRANCH  17  18
ENDBRANCH  15  17
ENDBRANCH  14  15
ENDBRANCH  13  14
ENDBRANCH  11  13
ENDBRANCH  10  12
ENDBRANCH   1  10
BRANCH   5  20
ATOM     20  S   UNL     1       3.872   8.050  17.586  0.00  0.00    +0.000 S 
BRANCH  20  21
ATOM     21  C   UNL     1       2.031   8.182  17.674  0.00  0.00    +0.000 C 
BRANCH  21  22
ATOM     22  C   UNL     1       1.593   9.582  18.150  0.00  0.00    +0.000 C 
BRANCH  22  23
ATOM     23  O   UNL     1       2.200  10.573  17.313  0.00  0.00    +0.000 OA
ATOM     24  H   UNL     1       2.698  10.091  16.626  0.00  0.00    +0.000 HD
ENDBRANCH  22  23
BRANCH  22  25
ATOM     25  C   UNL     1       0.061   9.761  18.199  0.00  0.00    +0.000 C 
BRANCH  25  26
ATOM     26  O   UNL     1      -0.261  10.860  19.057  0.00  0.00    +0.000 OA
BRANCH  26  27
ATOM     27  C   UNL     1      -0.439  10.586  20.387  0.00  0.00    +0.000 A 
ATOM     28  C   UNL     1      -0.235   9.351  21.008  0.00  0.00    +0.000 A 
ATOM     29  C   UNL     1      -0.419   9.218  22.388  0.00  0.00    +0.000 A 
ATOM     30  C   UNL     1      -0.811  10.316  23.152  0.00  0.00    +0.000 A 
ATOM     31  C   UNL     1      -1.029  11.543  22.530  0.00  0.00    +0.000 A 
ATOM     32 CL   UNL     1      -1.517  12.901  23.467  0.00  0.00    +0.000 Cl
ATOM     33  C   UNL     1      -0.848  11.679  21.154  0.00  0.00    +0.000 A 
ENDBRANCH  26  27
ENDBRANCH  25  26
ENDBRANCH  22  25
ENDBRANCH  21  22
ENDBRANCH  20  21
ENDBRANCH   5  20
TORSDOF 16
ENDMDL
MODEL 9
REMARK VINA RESULT:      -6.5      2.085      2.885
REMARK  Name = 
REMARK  16 active torsions:
REMARK  status: ('A' for Active; 'I' for Inactive)
REMARK    1  A    between atoms: C_2  and  O_3
REMARK    2  A    between atoms: C_2  and  C_4
REMARK    3  A    between atoms: C_4  and  C_5
REMARK    4  A    between atoms: C_5  and  C_6
REMARK    5  A    between atoms: C_6  and  C_7
REMARK    6  A    between atoms: C_8  and  C_9
REMARK    7  A    between atoms: C_9  and  C_10
REMARK    8  A    between atoms: C_11  and  O_12
REMARK    9  A    between atoms: C_14  and  O_15
REMARK   10  A    between atoms: C_16  and  S_17
REMARK   11  A    between atoms: S_17  and  C_18
REMARK   12  A    between atoms: C_18  and  C_19
REMARK   13  A    between atoms: C_19  and  O_20
REMARK   14  A    between atoms: C_19  and  C_21
REMARK   15  A    between atoms: C_21  and  O_22
REMARK   16  A    between atoms: O_22  and  C_23
REMARK                            x       y       z     vdW  Elec       q    Type
REMARK                         _______ _______ _______ _____ _____    ______ ____
ROOT
ATOM      1  C   UNL     1       4.458   4.199  18.756  0.00  0.00    +0.000 C 
ATOM      2  C   UNL     1       4.586   2.670  18.843  0.00  0.00    +0.000 C 
ATOM      3  C   UNL     1       3.177   2.173  18.590  0.00  0.00    +0.000 C 
ATOM      4  C   UNL     1       2.295   3.166  19.337  0.00  0.00    +0.000 C 
ATOM      5  C   UNL     1       3.034   4.527  19.297  0.00  0.00    +0.000 C 
ENDROOT
BRANCH   2   6
ATOM      6  O   UNL     1       5.076   2.239  20.105  0.00  0.00    +0.000 OA
ATOM      7  H   UNL     1       5.217   1.279  20.113  0.00  0.00    +0.000 HD
ENDBRANCH   2   6
BRANCH   4   8
ATOM      8  O   UNL     1       1.000   3.153  18.763  0.00  0.00    +0.000 OA
ATOM      9  H   UNL     1       0.390   3.475  19.453  0.00  0.00    +0.000 HD
ENDBRANCH   4   8
BRANCH   1  10
ATOM     10  C   UNL     1       5.570   4.965  19.491  0.00  0.00    +0.000 C 
BRANCH  10  12
ATOM     11  C   UNL     1       6.812   6.042  17.535  0.00  0.00    +0.000 C 
ATOM     12  C   UNL     1       6.763   5.236  18.609  0.00  0.00    +0.000 C 
BRANCH  11  13
ATOM     13  C   UNL     1       5.674   6.843  16.980  0.00  0.00    +0.000 C 
BRANCH  13  14
ATOM     14  C   UNL     1       5.329   6.468  15.538  0.00  0.00    +0.000 C 
BRANCH  14  15
ATOM     15  C   UNL     1       5.481   4.959  15.340  0.00  0.00    +0.000 C 
BRANCH  15  17
ATOM     16  O   UNL     1       7.543   5.309  14.107  0.00  0.00    +0.000 OA
ATOM     17  C   UNL     1       6.570   4.615  14.357  0.00  0.00    +0.000 C 
BRANCH  17  18
ATOM     18  O   UNL     1       6.361   3.419  13.761  0.00  0.00    +0.000 OA
ATOM     19  H   UNL     1       7.109   2.799  13.846  0.00  0.00    +0.000 HD
ENDBRANCH  17  18
ENDBRANCH  15  17
ENDBRANCH  14  15
ENDBRANCH  13  14
ENDBRANCH  11  13
ENDBRANCH  10  12
ENDBRANCH   1  10
BRANCH   5  20
ATOM     20  S   UNL     1       2.254   5.806  18.218  0.00  0.00    +0.000 S 
BRANCH  20  21
ATOM     21  C   UNL     1       2.757   7.373  19.059  0.00  0.00    +0.000 C 
BRANCH  21  22
ATOM     22  C   UNL     1       1.542   8.082  19.693  0.00  0.00    +0.000 C 
BRANCH  22  23
ATOM     23  O   UNL     1       1.676   8.054  21.118  0.00  0.00    +0.000 OA
ATOM     24  H   UNL     1       1.141   8.793  21.464  0.00  0.00    +0.000 HD
ENDBRANCH  22  23
BRANCH  22  25
ATOM     25  C   UNL     1       1.339   9.525  19.183  0.00  0.00    +0.000 C 
BRANCH  25  26
ATOM     26  O   UNL     1       0.564   9.498  17.981  0.00  0.00    +0.000 OA
BRANCH  26  27
ATOM     27  C   UNL     1      -0.662  10.107  18.012  0.00  0.00    +0.000 A 
ATOM     28  C   UNL     1      -1.759   9.794  17.205  0.00  0.00    +0.000 A 
ATOM     29  C   UNL     1      -2.970  10.474  17.367  0.00  0.00    +0.000 A 
ATOM     30  C   UNL     1      -3.090  11.471  18.333  0.00  0.00    +0.000 A 
ATOM     31  C   UNL     1      -1.992  11.794  19.127  0.00  0.00    +0.000 A 
ATOM     32 CL   UNL     1      -2.133  13.027  20.318  0.00  0.00    +0.000 Cl
ATOM     33  C   UNL     1      -0.782  11.119  18.967  0.00  0.00    +0.000 A 
ENDBRANCH  26  27
ENDBRANCH  25  26
ENDBRANCH  22  25
ENDBRANCH  21  22
ENDBRANCH  20  21
ENDBRANCH   5  20
TORSDOF 16
ENDMDL
