MODEL 1
REMARK VINA RESULT:      -7.0      0.000      0.000
REMARK  Name = 
REMARK  1 active torsions:
REMARK  status: ('A' for Active; 'I' for Inactive)
REMARK    1  A    between atoms: C_5  and  C_6
REMARK                            x       y       z     vdW  Elec       q    Type
REMARK                         _______ _______ _______ _____ _____    ______ ____
ROOT
ATOM      1  C   UNL     1       3.529   4.068  18.306  0.00  0.00    +0.000 C 
ATOM      2  C   UNL     1       3.696   2.730  18.394  0.00  0.00    +0.000 C 
ATOM      3  C   UNL     1       2.501   1.816  18.596  0.00  0.00    +0.000 C 
ATOM      4  C   UNL     1       1.137   2.561  18.635  0.00  0.00    +0.000 C 
ATOM      5  C   UNL     1       0.864   3.233  19.978  0.00  0.00    +0.000 C 
ATOM      6  C   UNL     1       1.660   4.538  19.913  0.00  0.00    +0.000 C 
ATOM      7  C   UNL     1       2.118   4.628  18.447  0.00  0.00    +0.000 C 
ATOM      8  N   UNL     1       1.180   3.732  17.734  0.00  0.00    +0.000 NA
ATOM      9  H   UNL     1       0.258   4.170  17.719  0.00  0.00    +0.000 HD
ENDROOT
BRANCH   1  14
ATOM     10 CL   UNL     1       7.896   7.929  17.480  0.00  0.00    +0.000 Cl
ATOM     11  C   UNL     1       6.662   6.770  17.674  0.00  0.00    +0.000 A 
ATOM     12  N   UNL     1       5.625   6.853  16.835  0.00  0.00    +0.000 NA
ATOM     13  C   UNL     1       4.644   5.947  17.047  0.00  0.00    +0.000 A 
ATOM     14  C   UNL     1       4.651   4.994  18.053  0.00  0.00    +0.000 A 
ATOM     15  C   UNL     1       5.799   5.017  18.833  0.00  0.00    +0.000 A 
ATOM     16  N   UNL     1       6.819   5.890  18.672  0.00  0.00    +0.000 NA
ENDBRANCH   1  14
TORSDOF 1
ENDMDL
MODEL 2
REMARK VINA RESULT:      -6.9      0.171      1.226
REMARK  Name = 
REMARK  1 active torsions:
REMARK  status: ('A' for Active; 'I' for Inactive)
REMARK    1  A    between atoms: C_5  and  C_6
REMARK                            x       y       z     vdW  Elec       q    Type
REMARK                         _______ _______ _______ _____ _____    ______ ____
ROOT
ATOM      1  C   UNL     1       3.474   4.082  18.447  0.00  0.00    +0.000 C 
ATOM      2  C   UNL     1       3.699   2.752  18.525  0.00  0.00    +0.000 C 
ATOM      3  C   UNL     1       2.542   1.782  18.676  0.00  0.00    +0.000 C 
ATOM      4  C   UNL     1       1.144   2.462  18.678  0.00  0.00    +0.000 C 
ATOM      5  C   UNL     1       0.796   3.103  20.020  0.00  0.00    +0.000 C 
ATOM      6  C   UNL     1       1.533   4.443  19.996  0.00  0.00    +0.000 C 
ATOM      7  C   UNL     1       2.034   4.574  18.548  0.00  0.00    +0.000 C 
ATOM      8  N   UNL     1       1.162   3.646  17.794  0.00  0.00    +0.000 NA
ATOM      9  H   UNL     1       0.222   4.042  17.753  0.00  0.00    +0.000 HD
ENDROOT
BRANCH   1  14
ATOM     10 CL   UNL     1       7.894   7.835  17.429  0.00  0.00    +0.000 Cl
ATOM     11  C   UNL     1       6.591   6.790  17.773  0.00  0.00    +0.000 A 
ATOM     12  N   UNL     1       6.803   5.858  18.708  0.00  0.00    +0.000 NA
ATOM     13  C   UNL     1       5.765   5.018  18.923  0.00  0.00    +0.000 A 
ATOM     14  C   UNL     1       4.559   5.061  18.243  0.00  0.00    +0.000 A 
ATOM     15  C   UNL     1       4.479   6.091  17.315  0.00  0.00    +0.000 A 
ATOM     16  N   UNL     1       5.475   6.969  17.055  0.00  0.00    +0.000 NA
ENDBRANCH   1  14
TORSDOF 1
ENDMDL
MODEL 3
REMARK VINA RESULT:      -6.8      2.705      3.239
REMARK  Name = 
REMARK  1 active torsions:
REMARK  status: ('A' for Active; 'I' for Inactive)
REMARK    1  A    between atoms: C_5  and  C_6
REMARK                            x       y       z     vdW  Elec       q    Type
REMARK                         _______ _______ _______ _____ _____    ______ ____
ROOT
ATOM      1  C   UNL     1       4.840   4.340  17.417  0.00  0.00    +0.000 C 
ATOM      2  C   UNL     1       4.735   5.256  18.405  0.00  0.00    +0.000 C 
ATOM      3  C   UNL     1       3.888   4.973  19.632  0.00  0.00    +0.000 C 
ATOM      4  C   UNL     1       3.237   3.562  19.637  0.00  0.00    +0.000 C 
ATOM      5  C   UNL     1       1.998   3.475  18.749  0.00  0.00    +0.000 C 
ATOM      6  C   UNL     1       2.561   3.294  17.338  0.00  0.00    +0.000 C 
ATOM      7  C   UNL     1       4.061   3.037  17.559  0.00  0.00    +0.000 C 
ATOM      8  N   UNL     1       4.133   2.594  18.970  0.00  0.00    +0.000 NA
ATOM      9  H   UNL     1       3.723   1.662  19.040  0.00  0.00    +0.000 HD
ENDROOT
BRANCH   1  14
ATOM     10 CL   UNL     1       8.100   5.373  12.625  0.00  0.00    +0.000 Cl
ATOM     11  C   UNL     1       7.197   5.021  14.028  0.00  0.00    +0.000 A 
ATOM     12  N   UNL     1       6.187   4.156  13.887  0.00  0.00    +0.000 NA
ATOM     13  C   UNL     1       5.464   3.935  15.009  0.00  0.00    +0.000 A 
ATOM     14  C   UNL     1       5.694   4.545  16.232  0.00  0.00    +0.000 A 
ATOM     15  C   UNL     1       6.785   5.404  16.228  0.00  0.00    +0.000 A 
ATOM     16  N   UNL     1       7.553   5.665  15.147  0.00  0.00    +0.000 NA
ENDBRANCH   1  14
TORSDOF 1
ENDMDL
MODEL 4
REMARK VINA RESULT:      -6.7      1.104      1.852
REMARK  Name = 
REMARK  1 active torsions:
REMARK  status: ('A' for Active; 'I' for Inactive)
REMARK    1  A    between atoms: C_5  and  C_6
REMARK                            x       y       z     vdW  Elec       q    Type
REMARK                         _______ _______ _______ _____ _____    ______ ____
ROOT
ATOM      1  C   UNL     1       3.200   4.544  19.216  0.00  0.00    +0.000 C 
ATOM      2  C   UNL     1       2.195   5.160  19.877  0.00  0.00    +0.000 C 
ATOM      3  C   UNL     1       1.046   4.355  20.455  0.00  0.00    +0.000 C 
ATOM      4  C   UNL     1       1.184   2.820  20.250  0.00  0.00    +0.000 C 
ATOM      5  C   UNL     1       0.805   2.371  18.841  0.00  0.00    +0.000 C 
ATOM      6  C   UNL     1       2.049   2.672  18.004  0.00  0.00    +0.000 C 
ATOM      7  C   UNL     1       3.125   3.031  19.043  0.00  0.00    +0.000 C 
ATOM      8  N   UNL     1       2.610   2.435  20.297  0.00  0.00    +0.000 NA
ATOM      9  H   UNL     1       2.681   1.419  20.228  0.00  0.00    +0.000 HD
ENDROOT
BRANCH   1  14
ATOM     10 CL   UNL     1       7.822   7.644  17.295  0.00  0.00    +0.000 Cl
ATOM     11  C   UNL     1       6.496   6.699  17.803  0.00  0.00    +0.000 A 
ATOM     12  N   UNL     1       5.325   6.944  17.207  0.00  0.00    +0.000 NA
ATOM     13  C   UNL     1       4.286   6.209  17.667  0.00  0.00    +0.000 A 
ATOM     14  C   UNL     1       4.367   5.274  18.686  0.00  0.00    +0.000 A 
ATOM     15  C   UNL     1       5.650   5.117  19.196  0.00  0.00    +0.000 A 
ATOM     16  N   UNL     1       6.732   5.813  18.780  0.00  0.00    +0.000 NA
ENDBRANCH   1  14
TORSDOF 1
ENDMDL
MODEL 5
REMARK VINA RESULT:      -6.7      2.074      2.740
REMARK  Name = 
REMARK  1 active torsions:
REMARK  status: ('A' for Active; 'I' for Inactive)
REMARK    1  A    between atoms: C_5  and  C_6
REMARK                            x       y       z     vdW  Elec       q    Type
REMARK                         _______ _______ _______ _____ _____    ______ ____
ROOT
ATOM      1  C   UNL     1       3.441   4.874  18.412  0.00  0.00    +0.000 C 
ATOM      2  C   UNL     1       2.991   5.987  19.033  0.00  0.00    +0.000 C 
ATOM      3  C   UNL     1       2.120   5.880  20.271  0.00  0.00    +0.000 C 
ATOM      4  C   UNL     1       1.866   4.419  20.739  0.00  0.00    +0.000 C 
ATOM      5  C   UNL     1       0.799   3.706  19.913  0.00  0.00    +0.000 C 
ATOM      6  C   UNL     1       1.540   3.254  18.654  0.00  0.00    +0.000 C 
ATOM      7  C   UNL     1       3.021   3.519  18.971  0.00  0.00    +0.000 C 
ATOM      8  N   UNL     1       3.053   3.587  20.450  0.00  0.00    +0.000 NA
ATOM      9  H   UNL     1       2.898   2.650  20.822  0.00  0.00    +0.000 HD
ENDROOT
BRANCH   1  14
ATOM     10 CL   UNL     1       7.223   5.072  13.905  0.00  0.00    +0.000 Cl
ATOM     11  C   UNL     1       6.077   5.014  15.165  0.00  0.00    +0.000 A 
ATOM     12  N   UNL     1       5.616   6.188  15.609  0.00  0.00    +0.000 NA
ATOM     13  C   UNL     1       4.743   6.105  16.639  0.00  0.00    +0.000 A 
ATOM     14  C   UNL     1       4.336   4.925  17.240  0.00  0.00    +0.000 A 
ATOM     15  C   UNL     1       4.884   3.789  16.660  0.00  0.00    +0.000 A 
ATOM     16  N   UNL     1       5.756   3.798  15.627  0.00  0.00    +0.000 NA
ENDBRANCH   1  14
TORSDOF 1
ENDMDL
MODEL 6
REMARK VINA RESULT:      -6.7      2.472      2.839
REMARK  Name = 
REMARK  1 active torsions:
REMARK  status: ('A' for Active; 'I' for Inactive)
REMARK    1  A    between atoms: C_5  and  C_6
REMARK                            x       y       z     vdW  Elec       q    Type
REMARK                         _______ _______ _______ _____ _____    ______ ____
ROOT
ATOM      1  C   UNL     1       4.381   3.692  17.465  0.00  0.00    +0.000 C 
ATOM      2  C   UNL     1       4.771   3.622  18.757  0.00  0.00    +0.000 C 
ATOM      3  C   UNL     1       3.842   3.053  19.813  0.00  0.00    +0.000 C 
ATOM      4  C   UNL     1       2.484   2.545  19.251  0.00  0.00    +0.000 C 
ATOM      5  C   UNL     1       1.495   3.673  18.972  0.00  0.00    +0.000 C 
ATOM      6  C   UNL     1       1.935   4.229  17.617  0.00  0.00    +0.000 C 
ATOM      7  C   UNL     1       2.976   3.217  17.112  0.00  0.00    +0.000 C 
ATOM      8  N   UNL     1       2.679   1.995  17.893  0.00  0.00    +0.000 NA
ATOM      9  H   UNL     1       1.795   1.604  17.565  0.00  0.00    +0.000 HD
ENDROOT
BRANCH   1  14
ATOM     10 CL   UNL     1       8.061   5.421  13.208  0.00  0.00    +0.000 Cl
ATOM     11  C   UNL     1       6.960   4.978  14.431  0.00  0.00    +0.000 A 
ATOM     12  N   UNL     1       7.244   5.393  15.670  0.00  0.00    +0.000 NA
ATOM     13  C   UNL     1       6.373   4.985  16.622  0.00  0.00    +0.000 A 
ATOM     14  C   UNL     1       5.268   4.183  16.393  0.00  0.00    +0.000 A 
ATOM     15  C   UNL     1       5.093   3.846  15.057  0.00  0.00    +0.000 A 
ATOM     16  N   UNL     1       5.919   4.223  14.055  0.00  0.00    +0.000 NA
ENDBRANCH   1  14
TORSDOF 1
ENDMDL
MODEL 7
REMARK VINA RESULT:      -6.7      2.454      2.610
REMARK  Name = 
REMARK  1 active torsions:
REMARK  status: ('A' for Active; 'I' for Inactive)
REMARK    1  A    between atoms: C_5  and  C_6
REMARK                            x       y       z     vdW  Elec       q    Type
REMARK                         _______ _______ _______ _____ _____    ______ ____
ROOT
ATOM      1  C   UNL     1       4.325   3.585  17.571  0.00  0.00    +0.000 C 
ATOM      2  C   UNL     1       4.670   3.563  18.878  0.00  0.00    +0.000 C 
ATOM      3  C   UNL     1       3.684   3.086  19.928  0.00  0.00    +0.000 C 
ATOM      4  C   UNL     1       2.325   2.606  19.346  0.00  0.00    +0.000 C 
ATOM      5  C   UNL     1       1.394   3.758  18.978  0.00  0.00    +0.000 C 
ATOM      6  C   UNL     1       1.900   4.228  17.614  0.00  0.00    +0.000 C 
ATOM      7  C   UNL     1       2.913   3.150  17.194  0.00  0.00    +0.000 C 
ATOM      8  N   UNL     1       2.540   1.981  18.023  0.00  0.00    +0.000 NA
ATOM      9  H   UNL     1       1.651   1.612  17.684  0.00  0.00    +0.000 HD
ENDROOT
BRANCH   1  14
ATOM     10 CL   UNL     1       7.994   5.438  13.358  0.00  0.00    +0.000 Cl
ATOM     11  C   UNL     1       6.956   4.839  14.570  0.00  0.00    +0.000 A 
ATOM     12  N   UNL     1       5.764   4.388  14.166  0.00  0.00    +0.000 NA
ATOM     13  C   UNL     1       4.949   3.963  15.159  0.00  0.00    +0.000 A 
ATOM     14  C   UNL     1       5.265   3.985  16.507  0.00  0.00    +0.000 A 
ATOM     15  C   UNL     1       6.542   4.462  16.771  0.00  0.00    +0.000 A 
ATOM     16  N   UNL     1       7.409   4.897  15.829  0.00  0.00    +0.000 NA
ENDBRANCH   1  14
TORSDOF 1
ENDMDL
MODEL 8
REMARK VINA RESULT:      -6.7      2.647      3.288
REMARK  Name = 
REMARK  1 active torsions:
REMARK  status: ('A' for Active; 'I' for Inactive)
REMARK    1  A    between atoms: C_5  and  C_6
REMARK                            x       y       z     vdW  Elec       q    Type
REMARK                         _______ _______ _______ _____ _____    ______ ____
ROOT
ATOM      1  C   UNL     1       4.711   4.347  17.467  0.00  0.00    +0.000 C 
ATOM      2  C   UNL     1       4.519   5.253  18.451  0.00  0.00    +0.000 C 
ATOM      3  C   UNL     1       3.722   4.889  19.690  0.00  0.00    +0.000 C 
ATOM      4  C   UNL     1       3.226   3.416  19.710  0.00  0.00    +0.000 C 
ATOM      5  C   UNL     1       1.994   3.190  18.837  0.00  0.00    +0.000 C 
ATOM      6  C   UNL     1       2.557   3.061  17.421  0.00  0.00    +0.000 C 
ATOM      7  C   UNL     1       4.078   2.969  17.626  0.00  0.00    +0.000 C 
ATOM      8  N   UNL     1       4.214   2.545  19.038  0.00  0.00    +0.000 NA
ATOM      9  H   UNL     1       3.908   1.575  19.118  0.00  0.00    +0.000 HD
ENDROOT
BRANCH   1  14
ATOM     10 CL   UNL     1       8.104   5.268  12.745  0.00  0.00    +0.000 Cl
ATOM     11  C   UNL     1       7.085   5.057  14.096  0.00  0.00    +0.000 A 
ATOM     12  N   UNL     1       7.450   5.677  15.222  0.00  0.00    +0.000 NA
ATOM     13  C   UNL     1       6.644   5.451  16.285  0.00  0.00    +0.000 A 
ATOM     14  C   UNL     1       5.526   4.634  16.271  0.00  0.00    +0.000 A 
ATOM     15  C   UNL     1       5.263   4.073  15.028  0.00  0.00    +0.000 A 
ATOM     16  N   UNL     1       6.021   4.261  13.925  0.00  0.00    +0.000 NA
ENDBRANCH   1  14
TORSDOF 1
ENDMDL
MODEL 9
REMARK VINA RESULT:      -6.7      1.156      1.418
REMARK  Name = 
REMARK  1 active torsions:
REMARK  status: ('A' for Active; 'I' for Inactive)
REMARK    1  A    between atoms: C_5  and  C_6
REMARK                            x       y       z     vdW  Elec       q    Type
REMARK                         _______ _______ _______ _____ _____    ______ ____
ROOT
ATOM      1  C   UNL     1       3.016   4.368  19.003  0.00  0.00    +0.000 C 
ATOM      2  C   UNL     1       2.334   3.527  18.195  0.00  0.00    +0.000 C 
ATOM      3  C   UNL     1       1.075   2.837  18.688  0.00  0.00    +0.000 C 
ATOM      4  C   UNL     1       0.663   3.233  20.134  0.00  0.00    +0.000 C 
ATOM      5  C   UNL     1       1.487   2.520  21.204  0.00  0.00    +0.000 C 
ATOM      6  C   UNL     1       2.786   3.323  21.272  0.00  0.00    +0.000 C 
ATOM      7  C   UNL     1       2.504   4.574  20.424  0.00  0.00    +0.000 C 
ATOM      8  N   UNL     1       1.025   4.643  20.389  0.00  0.00    +0.000 NA
ATOM      9  H   UNL     1       0.689   4.908  21.315  0.00  0.00    +0.000 HD
ENDROOT
BRANCH   1  14
ATOM     10 CL   UNL     1       7.737   7.498  17.398  0.00  0.00    +0.000 Cl
ATOM     11  C   UNL     1       6.386   6.546  17.816  0.00  0.00    +0.000 A 
ATOM     12  N   UNL     1       5.255   6.786  17.144  0.00  0.00    +0.000 NA
ATOM     13  C   UNL     1       4.193   6.044  17.533  0.00  0.00    +0.000 A 
ATOM     14  C   UNL     1       4.212   5.106  18.552  0.00  0.00    +0.000 A 
ATOM     15  C   UNL     1       5.459   4.955  19.145  0.00  0.00    +0.000 A 
ATOM     16  N   UNL     1       6.562   5.657  18.803  0.00  0.00    +0.000 NA
ENDBRANCH   1  14
TORSDOF 1
ENDMDL
