MODEL 1
REMARK VINA RESULT:      -7.1      0.000      0.000
REMARK  Name = 
REMARK  8 active torsions:
REMARK  status: ('A' for Active; 'I' for Inactive)
REMARK    1  A    between atoms: C_1  and  C_2
REMARK    2  A    between atoms: C_2  and  C_3
REMARK    3  A    between atoms: C_3  and  C_4
REMARK    4  A    between atoms: C_4  and  C_5
REMARK    5  A    between atoms: C_5  and  C_6
REMARK    6  A    between atoms: C_6  and  C_7
REMARK    7  A    between atoms: N_9  and  C_10
REMARK    8  A    between atoms: C_14  and  N_15
REMARK                            x       y       z     vdW  Elec       q    Type
REMARK                         _______ _______ _______ _____ _____    ______ ____
ROOT
ATOM      1  C   UNL     1       5.076   5.651  17.922  0.00  0.00    +0.000 C 
ATOM      2  C   UNL     1       4.945   5.521  16.407  0.00  0.00    +0.000 C 
ATOM      3  N   UNL     1       6.187   4.939  15.993  0.00  0.00    +0.000 N 
ATOM      4  C   UNL     1       6.972   4.662  17.102  0.00  0.00    +0.000 C 
ATOM      5  O   UNL     1       8.094   4.182  17.141  0.00  0.00    +0.000 OA
ATOM      6  O   UNL     1       6.330   5.041  18.246  0.00  0.00    +0.000 OA
ENDROOT
BRANCH   3   7
ATOM      7  C   UNL     1       6.540   4.673  14.639  0.00  0.00    +0.000 A 
ATOM      8  C   UNL     1       7.478   5.479  13.977  0.00  0.00    +0.000 A 
ATOM      9  C   UNL     1       7.840   5.234  12.651  0.00  0.00    +0.000 A 
ATOM     10  C   UNL     1       7.239   4.198  11.945  0.00  0.00    +0.000 A 
ATOM     11  C   UNL     1       6.253   3.419  12.551  0.00  0.00    +0.000 A 
ATOM     12  C   UNL     1       5.970   3.611  13.917  0.00  0.00    +0.000 A 
BRANCH  11  13
ATOM     13  N   UNL     1       5.713   2.329  11.850  0.00  0.00    +0.000 N 
ATOM     14  H   UNL     1       6.417   1.653  11.561  0.00  0.00    +0.000 HD
ATOM     15  H   UNL     1       5.117   2.598  11.074  0.00  0.00    +0.000 HD
ENDBRANCH  11  13
ENDBRANCH   3   7
BRANCH   1  16
ATOM     16  C   UNL     1       3.964   4.961  18.725  0.00  0.00    +0.000 C 
BRANCH  16  17
ATOM     17  C   UNL     1       3.304   3.801  17.952  0.00  0.00    +0.000 C 
BRANCH  17  18
ATOM     18  C   UNL     1       1.779   3.970  17.887  0.00  0.00    +0.000 C 
BRANCH  18  19
ATOM     19  C   UNL     1       1.034   3.030  18.843  0.00  0.00    +0.000 C 
BRANCH  19  21
ATOM     20  C   UNL     1       1.630   2.899  21.304  0.00  0.00    +0.000 C 
ATOM     21  C   UNL     1       0.877   3.666  20.228  0.00  0.00    +0.000 C 
ENDBRANCH  19  21
ENDBRANCH  18  19
ENDBRANCH  17  18
ENDBRANCH  16  17
ENDBRANCH   1  16
TORSDOF 7
ENDMDL
MODEL 2
REMARK VINA RESULT:      -7.0      4.405      7.268
REMARK  Name = 
REMARK  8 active torsions:
REMARK  status: ('A' for Active; 'I' for Inactive)
REMARK    1  A    between atoms: C_1  and  C_2
REMARK    2  A    between atoms: C_2  and  C_3
REMARK    3  A    between atoms: C_3  and  C_4
REMARK    4  A    between atoms: C_4  and  C_5
REMARK    5  A    between atoms: C_5  and  C_6
REMARK    6  A    between atoms: C_6  and  C_7
REMARK    7  A    between atoms: N_9  and  C_10
REMARK    8  A    between atoms: C_14  and  N_15
REMARK                            x       y       z     vdW  Elec       q    Type
REMARK                         _______ _______ _______ _____ _____    ______ ____
ROOT
ATOM      1  C   UNL     1       7.768   7.483  17.486  0.00  0.00    +0.000 C 
ATOM      2  C   UNL     1       6.390   6.988  17.058  0.00  0.00    +0.000 C 
ATOM      3  N   UNL     1       6.059   5.984  18.026  0.00  0.00    +0.000 N 
ATOM      4  C   UNL     1       7.056   5.906  18.986  0.00  0.00    +0.000 C 
ATOM      5  O   UNL     1       7.129   5.161  19.951  0.00  0.00    +0.000 OA
ATOM      6  O   UNL     1       8.054   6.797  18.710  0.00  0.00    +0.000 OA
ENDROOT
BRANCH   3   7
ATOM      7  C   UNL     1       4.868   5.203  18.001  0.00  0.00    +0.000 A 
ATOM      8  C   UNL     1       3.611   5.826  17.994  0.00  0.00    +0.000 A 
ATOM      9  C   UNL     1       2.431   5.080  17.967  0.00  0.00    +0.000 A 
ATOM     10  C   UNL     1       2.484   3.691  17.989  0.00  0.00    +0.000 A 
ATOM     11  C   UNL     1       3.715   3.040  18.064  0.00  0.00    +0.000 A 
ATOM     12  C   UNL     1       4.898   3.799  17.989  0.00  0.00    +0.000 A 
BRANCH  11  13
ATOM     13  N   UNL     1       3.754   1.638  18.006  0.00  0.00    +0.000 N 
ATOM     14  H   UNL     1       3.123   1.194  18.670  0.00  0.00    +0.000 HD
ATOM     15  H   UNL     1       4.691   1.253  18.069  0.00  0.00    +0.000 HD
ENDBRANCH  11  13
ENDBRANCH   3   7
BRANCH   1  16
ATOM     16  C   UNL     1       7.860   8.996  17.730  0.00  0.00    +0.000 C 
BRANCH  16  17
ATOM     17  C   UNL     1       8.868   9.361  18.839  0.00  0.00    +0.000 C 
BRANCH  17  18
ATOM     18  C   UNL     1       9.421  10.780  18.646  0.00  0.00    +0.000 C 
BRANCH  18  19
ATOM     19  C   UNL     1       9.531  11.560  19.963  0.00  0.00    +0.000 C 
BRANCH  19  21
ATOM     20  C   UNL     1      11.933  11.650  19.154  0.00  0.00    +0.000 C 
ATOM     21  C   UNL     1      10.997  11.787  20.346  0.00  0.00    +0.000 C 
ENDBRANCH  19  21
ENDBRANCH  18  19
ENDBRANCH  17  18
ENDBRANCH  16  17
ENDBRANCH   1  16
TORSDOF 7
ENDMDL
MODEL 3
REMARK VINA RESULT:      -7.0      2.462      7.279
REMARK  Name = 
REMARK  8 active torsions:
REMARK  status: ('A' for Active; 'I' for Inactive)
REMARK    1  A    between atoms: C_1  and  C_2
REMARK    2  A    between atoms: C_2  and  C_3
REMARK    3  A    between atoms: C_3  and  C_4
REMARK    4  A    between atoms: C_4  and  C_5
REMARK    5  A    between atoms: C_5  and  C_6
REMARK    6  A    between atoms: C_6  and  C_7
REMARK    7  A    between atoms: N_9  and  C_10
REMARK    8  A    between atoms: C_14  and  N_15
REMARK                            x       y       z     vdW  Elec       q    Type
REMARK                         _______ _______ _______ _____ _____    ______ ____
ROOT
ATOM      1  C   UNL     1       5.584   5.473  16.491  0.00  0.00    +0.000 C 
ATOM      2  C   UNL     1       4.859   4.283  17.112  0.00  0.00    +0.000 C 
ATOM      3  N   UNL     1       3.774   4.872  17.840  0.00  0.00    +0.000 N 
ATOM      4  C   UNL     1       3.763   6.244  17.645  0.00  0.00    +0.000 C 
ATOM      5  O   UNL     1       3.001   7.075  18.114  0.00  0.00    +0.000 OA
ATOM      6  O   UNL     1       4.795   6.618  16.832  0.00  0.00    +0.000 OA
ENDROOT
BRANCH   3   7
ATOM      7  C   UNL     1       2.841   4.138  18.628  0.00  0.00    +0.000 A 
ATOM      8  C   UNL     1       1.721   3.542  18.031  0.00  0.00    +0.000 A 
ATOM      9  C   UNL     1       0.796   2.816  18.783  0.00  0.00    +0.000 A 
ATOM     10  C   UNL     1       0.952   2.706  20.160  0.00  0.00    +0.000 A 
ATOM     11  C   UNL     1       2.017   3.342  20.796  0.00  0.00    +0.000 A 
ATOM     12  C   UNL     1       2.997   3.985  20.016  0.00  0.00    +0.000 A 
BRANCH  11  13
ATOM     13  N   UNL     1       2.204   3.156  22.175  0.00  0.00    +0.000 N 
ATOM     14  H   UNL     1       2.177   2.176  22.452  0.00  0.00    +0.000 HD
ATOM     15  H   UNL     1       1.587   3.721  22.750  0.00  0.00    +0.000 HD
ENDBRANCH  11  13
ENDBRANCH   3   7
BRANCH   1  16
ATOM     16  C   UNL     1       5.735   5.409  14.964  0.00  0.00    +0.000 C 
BRANCH  16  17
ATOM     17  C   UNL     1       6.043   3.986  14.456  0.00  0.00    +0.000 C 
BRANCH  17  18
ATOM     18  C   UNL     1       6.563   4.010  13.011  0.00  0.00    +0.000 C 
BRANCH  18  19
ATOM     19  C   UNL     1       5.836   3.012  12.100  0.00  0.00    +0.000 C 
BRANCH  19  21
ATOM     20  C   UNL     1       6.259   0.749  11.035  0.00  0.00    +0.000 C 
ATOM     21  C   UNL     1       6.834   2.121  11.354  0.00  0.00    +0.000 C 
ENDBRANCH  19  21
ENDBRANCH  18  19
ENDBRANCH  17  18
ENDBRANCH  16  17
ENDBRANCH   1  16
TORSDOF 7
ENDMDL
MODEL 4
REMARK VINA RESULT:      -6.9      2.338      6.727
REMARK  Name = 
REMARK  8 active torsions:
REMARK  status: ('A' for Active; 'I' for Inactive)
REMARK    1  A    between atoms: C_1  and  C_2
REMARK    2  A    between atoms: C_2  and  C_3
REMARK    3  A    between atoms: C_3  and  C_4
REMARK    4  A    between atoms: C_4  and  C_5
REMARK    5  A    between atoms: C_5  and  C_6
REMARK    6  A    between atoms: C_6  and  C_7
REMARK    7  A    between atoms: N_9  and  C_10
REMARK    8  A    between atoms: C_14  and  N_15
REMARK                            x       y       z     vdW  Elec       q    Type
REMARK                         _______ _______ _______ _____ _____    ______ ____
ROOT
ATOM      1  C   UNL     1       6.446   5.831  17.349  0.00  0.00    +0.000 C 
ATOM      2  C   UNL     1       5.582   4.812  18.085  0.00  0.00    +0.000 C 
ATOM      3  N   UNL     1       4.302   5.447  18.194  0.00  0.00    +0.000 N 
ATOM      4  C   UNL     1       4.325   6.672  17.545  0.00  0.00    +0.000 C 
ATOM      5  O   UNL     1       3.431   7.497  17.440  0.00  0.00    +0.000 OA
ATOM      6  O   UNL     1       5.562   6.906  17.015  0.00  0.00    +0.000 OA
ENDROOT
BRANCH   3   7
ATOM      7  C   UNL     1       3.175   4.881  18.856  0.00  0.00    +0.000 A 
ATOM      8  C   UNL     1       2.651   5.484  20.009  0.00  0.00    +0.000 A 
ATOM      9  C   UNL     1       1.546   4.948  20.672  0.00  0.00    +0.000 A 
ATOM     10  C   UNL     1       0.966   3.769  20.217  0.00  0.00    +0.000 A 
ATOM     11  C   UNL     1       1.503   3.105  19.114  0.00  0.00    +0.000 A 
ATOM     12  C   UNL     1       2.552   3.709  18.395  0.00  0.00    +0.000 A 
BRANCH  11  13
ATOM     13  N   UNL     1       0.858   1.960  18.622  0.00  0.00    +0.000 N 
ATOM     14  H   UNL     1       1.506   1.224  18.349  0.00  0.00    +0.000 HD
ATOM     15  H   UNL     1       0.187   2.155  17.885  0.00  0.00    +0.000 HD
ENDBRANCH  11  13
ENDBRANCH   3   7
BRANCH   1  16
ATOM     16  C   UNL     1       7.104   5.308  16.064  0.00  0.00    +0.000 C 
BRANCH  16  17
ATOM     17  C   UNL     1       6.447   4.013  15.544  0.00  0.00    +0.000 C 
BRANCH  17  18
ATOM     18  C   UNL     1       5.638   4.272  14.266  0.00  0.00    +0.000 C 
BRANCH  18  19
ATOM     19  C   UNL     1       6.343   3.765  13.001  0.00  0.00    +0.000 C 
BRANCH  19  21
ATOM     20  C   UNL     1       5.788   1.865  11.416  0.00  0.00    +0.000 C 
ATOM     21  C   UNL     1       5.334   3.194  12.000  0.00  0.00    +0.000 C 
ENDBRANCH  19  21
ENDBRANCH  18  19
ENDBRANCH  17  18
ENDBRANCH  16  17
ENDBRANCH   1  16
TORSDOF 7
ENDMDL
MODEL 5
REMARK VINA RESULT:      -6.9      2.211      7.029
REMARK  Name = 
REMARK  8 active torsions:
REMARK  status: ('A' for Active; 'I' for Inactive)
REMARK    1  A    between atoms: C_1  and  C_2
REMARK    2  A    between atoms: C_2  and  C_3
REMARK    3  A    between atoms: C_3  and  C_4
REMARK    4  A    between atoms: C_4  and  C_5
REMARK    5  A    between atoms: C_5  and  C_6
REMARK    6  A    between atoms: C_6  and  C_7
REMARK    7  A    between atoms: N_9  and  C_10
REMARK    8  A    between atoms: C_14  and  N_15
REMARK                            x       y       z     vdW  Elec       q    Type
REMARK                         _______ _______ _______ _____ _____    ______ ____
ROOT
ATOM      1  C   UNL     1       6.539   4.741  15.585  0.00  0.00    +0.000 C 
ATOM      2  C   UNL     1       5.548   3.901  16.385  0.00  0.00    +0.000 C 
ATOM      3  N   UNL     1       4.635   4.860  16.934  0.00  0.00    +0.000 N 
ATOM      4  C   UNL     1       4.955   6.131  16.481  0.00  0.00    +0.000 C 
ATOM      5  O   UNL     1       4.415   7.194  16.745  0.00  0.00    +0.000 OA
ATOM      6  O   UNL     1       6.048   6.084  15.664  0.00  0.00    +0.000 OA
ENDROOT
BRANCH   3   7
ATOM      7  C   UNL     1       3.552   4.537  17.801  0.00  0.00    +0.000 A 
ATOM      8  C   UNL     1       2.505   3.716  17.354  0.00  0.00    +0.000 A 
ATOM      9  C   UNL     1       1.435   3.384  18.187  0.00  0.00    +0.000 A 
ATOM     10  C   UNL     1       1.370   3.901  19.476  0.00  0.00    +0.000 A 
ATOM     11  C   UNL     1       2.358   4.774  19.930  0.00  0.00    +0.000 A 
ATOM     12  C   UNL     1       3.482   5.021  19.118  0.00  0.00    +0.000 A 
BRANCH  11  13
ATOM     13  N   UNL     1       2.318   5.225  21.259  0.00  0.00    +0.000 N 
ATOM     14  H   UNL     1       1.373   5.404  21.591  0.00  0.00    +0.000 HD
ATOM     15  H   UNL     1       2.931   6.013  21.441  0.00  0.00    +0.000 HD
ENDBRANCH  11  13
ENDBRANCH   3   7
BRANCH   1  16
ATOM     16  C   UNL     1       6.673   4.344  14.108  0.00  0.00    +0.000 C 
BRANCH  16  17
ATOM     17  C   UNL     1       5.324   3.951  13.473  0.00  0.00    +0.000 C 
BRANCH  17  18
ATOM     18  C   UNL     1       5.527   3.232  12.132  0.00  0.00    +0.000 C 
BRANCH  18  19
ATOM     19  C   UNL     1       6.989   3.239  11.667  0.00  0.00    +0.000 C 
BRANCH  19  21
ATOM     20  C   UNL     1       6.232   0.890  11.086  0.00  0.00    +0.000 C 
ATOM     21  C   UNL     1       7.375   1.893  11.047  0.00  0.00    +0.000 C 
ENDBRANCH  19  21
ENDBRANCH  18  19
ENDBRANCH  17  18
ENDBRANCH  16  17
ENDBRANCH   1  16
TORSDOF 7
ENDMDL
MODEL 6
REMARK VINA RESULT:      -6.9      2.421      6.781
REMARK  Name = 
REMARK  8 active torsions:
REMARK  status: ('A' for Active; 'I' for Inactive)
REMARK    1  A    between atoms: C_1  and  C_2
REMARK    2  A    between atoms: C_2  and  C_3
REMARK    3  A    between atoms: C_3  and  C_4
REMARK    4  A    between atoms: C_4  and  C_5
REMARK    5  A    between atoms: C_5  and  C_6
REMARK    6  A    between atoms: C_6  and  C_7
REMARK    7  A    between atoms: N_9  and  C_10
REMARK    8  A    between atoms: C_14  and  N_15
REMARK                            x       y       z     vdW  Elec       q    Type
REMARK                         _______ _______ _______ _____ _____    ______ ____
ROOT
ATOM      1  C   UNL     1       6.167   4.011  15.624  0.00  0.00    +0.000 C 
ATOM      2  C   UNL     1       4.795   4.384  16.176  0.00  0.00    +0.000 C 
ATOM      3  N   UNL     1       5.046   4.724  17.546  0.00  0.00    +0.000 N 
ATOM      4  C   UNL     1       6.405   4.653  17.810  0.00  0.00    +0.000 C 
ATOM      5  O   UNL     1       6.990   4.857  18.862  0.00  0.00    +0.000 OA
ATOM      6  O   UNL     1       7.087   4.268  16.691  0.00  0.00    +0.000 OA
ENDROOT
BRANCH   3   7
ATOM      7  C   UNL     1       4.037   5.097  18.481  0.00  0.00    +0.000 A 
ATOM      8  C   UNL     1       3.448   6.368  18.421  0.00  0.00    +0.000 A 
ATOM      9  C   UNL     1       2.457   6.754  19.325  0.00  0.00    +0.000 A 
ATOM     10  C   UNL     1       2.062   5.886  20.336  0.00  0.00    +0.000 A 
ATOM     11  C   UNL     1       2.674   4.640  20.467  0.00  0.00    +0.000 A 
ATOM     12  C   UNL     1       3.599   4.224  19.491  0.00  0.00    +0.000 A 
BRANCH  11  13
ATOM     13  N   UNL     1       2.209   3.746  21.445  0.00  0.00    +0.000 N 
ATOM     14  H   UNL     1       2.621   3.908  22.361  0.00  0.00    +0.000 HD
ATOM     15  H   UNL     1       2.281   2.771  21.173  0.00  0.00    +0.000 HD
ENDBRANCH  11  13
ENDBRANCH   3   7
BRANCH   1  16
ATOM     16  C   UNL     1       6.602   4.810  14.388  0.00  0.00    +0.000 C 
BRANCH  16  17
ATOM     17  C   UNL     1       6.501   3.992  13.084  0.00  0.00    +0.000 C 
BRANCH  17  18
ATOM     18  C   UNL     1       5.054   3.556  12.810  0.00  0.00    +0.000 C 
BRANCH  18  19
ATOM     19  C   UNL     1       4.833   3.103  11.361  0.00  0.00    +0.000 C 
BRANCH  19  21
ATOM     20  C   UNL     1       3.145   4.097   9.751  0.00  0.00    +0.000 C 
ATOM     21  C   UNL     1       3.356   3.212  10.970  0.00  0.00    +0.000 C 
ENDBRANCH  19  21
ENDBRANCH  18  19
ENDBRANCH  17  18
ENDBRANCH  16  17
ENDBRANCH   1  16
TORSDOF 7
ENDMDL
MODEL 7
REMARK VINA RESULT:      -6.8      2.387      6.975
REMARK  Name = 
REMARK  8 active torsions:
REMARK  status: ('A' for Active; 'I' for Inactive)
REMARK    1  A    between atoms: C_1  and  C_2
REMARK    2  A    between atoms: C_2  and  C_3
REMARK    3  A    between atoms: C_3  and  C_4
REMARK    4  A    between atoms: C_4  and  C_5
REMARK    5  A    between atoms: C_5  and  C_6
REMARK    6  A    between atoms: C_6  and  C_7
REMARK    7  A    between atoms: N_9  and  C_10
REMARK    8  A    between atoms: C_14  and  N_15
REMARK                            x       y       z     vdW  Elec       q    Type
REMARK                         _______ _______ _______ _____ _____    ______ ____
ROOT
ATOM      1  C   UNL     1       6.320   5.640  17.960  0.00  0.00    +0.000 C 
ATOM      2  C   UNL     1       5.523   4.446  18.476  0.00  0.00    +0.000 C 
ATOM      3  N   UNL     1       4.167   4.910  18.503  0.00  0.00    +0.000 N 
ATOM      4  C   UNL     1       4.099   6.199  17.998  0.00  0.00    +0.000 C 
ATOM      5  O   UNL     1       3.122   6.922  17.879  0.00  0.00    +0.000 OA
ATOM      6  O   UNL     1       5.343   6.638  17.643  0.00  0.00    +0.000 OA
ENDROOT
BRANCH   3   7
ATOM      7  C   UNL     1       3.062   4.140  18.966  0.00  0.00    +0.000 A 
ATOM      8  C   UNL     1       2.065   3.721  18.073  0.00  0.00    +0.000 A 
ATOM      9  C   UNL     1       0.974   2.963  18.504  0.00  0.00    +0.000 A 
ATOM     10  C   UNL     1       0.837   2.644  19.850  0.00  0.00    +0.000 A 
ATOM     11  C   UNL     1       1.774   3.102  20.776  0.00  0.00    +0.000 A 
ATOM     12  C   UNL     1       2.920   3.777  20.316  0.00  0.00    +0.000 A 
BRANCH  11  13
ATOM     13  N   UNL     1       1.663   2.705  22.118  0.00  0.00    +0.000 N 
ATOM     14  H   UNL     1       0.794   2.213  22.317  0.00  0.00    +0.000 HD
ATOM     15  H   UNL     1       1.824   3.457  22.780  0.00  0.00    +0.000 HD
ENDBRANCH  11  13
ENDBRANCH   3   7
BRANCH   1  16
ATOM     16  C   UNL     1       7.166   5.357  16.711  0.00  0.00    +0.000 C 
BRANCH  16  17
ATOM     17  C   UNL     1       6.562   4.253  15.819  0.00  0.00    +0.000 C 
BRANCH  17  18
ATOM     18  C   UNL     1       6.677   4.613  14.331  0.00  0.00    +0.000 C 
BRANCH  18  19
ATOM     19  C   UNL     1       5.693   3.831  13.451  0.00  0.00    +0.000 C 
BRANCH  19  21
ATOM     20  C   UNL     1       5.659   2.167  11.538  0.00  0.00    +0.000 C 
ATOM     21  C   UNL     1       6.365   3.365  12.156  0.00  0.00    +0.000 C 
ENDBRANCH  19  21
ENDBRANCH  18  19
ENDBRANCH  17  18
ENDBRANCH  16  17
ENDBRANCH   1  16
TORSDOF 7
ENDMDL
MODEL 8
REMARK VINA RESULT:      -6.8      2.416      7.065
REMARK  Name = 
REMARK  8 active torsions:
REMARK  status: ('A' for Active; 'I' for Inactive)
REMARK    1  A    between atoms: C_1  and  C_2
REMARK    2  A    between atoms: C_2  and  C_3
REMARK    3  A    between atoms: C_3  and  C_4
REMARK    4  A    between atoms: C_4  and  C_5
REMARK    5  A    between atoms: C_5  and  C_6
REMARK    6  A    between atoms: C_6  and  C_7
REMARK    7  A    between atoms: N_9  and  C_10
REMARK    8  A    between atoms: C_14  and  N_15
REMARK                            x       y       z     vdW  Elec       q    Type
REMARK                         _______ _______ _______ _____ _____    ______ ____
ROOT
ATOM      1  C   UNL     1       5.872   3.731  15.876  0.00  0.00    +0.000 C 
ATOM      2  C   UNL     1       4.550   3.684  16.636  0.00  0.00    +0.000 C 
ATOM      3  N   UNL     1       4.875   4.179  17.941  0.00  0.00    +0.000 N 
ATOM      4  C   UNL     1       6.207   4.562  17.984  0.00  0.00    +0.000 C 
ATOM      5  O   UNL     1       6.841   5.013  18.924  0.00  0.00    +0.000 OA
ATOM      6  O   UNL     1       6.805   4.340  16.777  0.00  0.00    +0.000 OA
ENDROOT
BRANCH   3   7
ATOM      7  C   UNL     1       3.949   4.274  19.020  0.00  0.00    +0.000 A 
ATOM      8  C   UNL     1       3.576   3.129  19.739  0.00  0.00    +0.000 A 
ATOM      9  C   UNL     1       2.673   3.200  20.801  0.00  0.00    +0.000 A 
ATOM     10  C   UNL     1       2.091   4.417  21.140  0.00  0.00    +0.000 A 
ATOM     11  C   UNL     1       2.387   5.563  20.402  0.00  0.00    +0.000 A 
ATOM     12  C   UNL     1       3.374   5.498  19.401  0.00  0.00    +0.000 A 
BRANCH  11  13
ATOM     13  N   UNL     1       1.852   6.796  20.807  0.00  0.00    +0.000 N 
ATOM     14  H   UNL     1       1.620   6.825  21.797  0.00  0.00    +0.000 HD
ATOM     15  H   UNL     1       1.074   7.110  20.235  0.00  0.00    +0.000 HD
ENDBRANCH  11  13
ENDBRANCH   3   7
BRANCH   1  16
ATOM     16  C   UNL     1       5.837   4.541  14.572  0.00  0.00    +0.000 C 
BRANCH  16  17
ATOM     17  C   UNL     1       6.237   3.704  13.340  0.00  0.00    +0.000 C 
BRANCH  17  18
ATOM     18  C   UNL     1       5.396   4.081  12.112  0.00  0.00    +0.000 C 
BRANCH  18  19
ATOM     19  C   UNL     1       4.816   2.858  11.390  0.00  0.00    +0.000 C 
BRANCH  19  21
ATOM     20  C   UNL     1       3.204   3.936   9.756  0.00  0.00    +0.000 C 
ATOM     21  C   UNL     1       3.350   3.088  11.011  0.00  0.00    +0.000 C 
ENDBRANCH  19  21
ENDBRANCH  18  19
ENDBRANCH  17  18
ENDBRANCH  16  17
ENDBRANCH   1  16
TORSDOF 7
ENDMDL
MODEL 9
REMARK VINA RESULT:      -6.8      3.620      4.763
REMARK  Name = 
REMARK  8 active torsions:
REMARK  status: ('A' for Active; 'I' for Inactive)
REMARK    1  A    between atoms: C_1  and  C_2
REMARK    2  A    between atoms: C_2  and  C_3
REMARK    3  A    between atoms: C_3  and  C_4
REMARK    4  A    between atoms: C_4  and  C_5
REMARK    5  A    between atoms: C_5  and  C_6
REMARK    6  A    between atoms: C_6  and  C_7
REMARK    7  A    between atoms: N_9  and  C_10
REMARK    8  A    between atoms: C_14  and  N_15
REMARK                            x       y       z     vdW  Elec       q    Type
REMARK                         _______ _______ _______ _____ _____    ______ ____
ROOT
ATOM      1  C   UNL     1       2.499   3.088  17.440  0.00  0.00    +0.000 C 
ATOM      2  C   UNL     1       3.986   3.301  17.708  0.00  0.00    +0.000 C 
ATOM      3  N   UNL     1       4.126   4.723  17.815  0.00  0.00    +0.000 N 
ATOM      4  C   UNL     1       2.883   5.330  17.710  0.00  0.00    +0.000 C 
ATOM      5  O   UNL     1       2.610   6.519  17.738  0.00  0.00    +0.000 OA
ATOM      6  O   UNL     1       1.910   4.391  17.521  0.00  0.00    +0.000 OA
ENDROOT
BRANCH   3   7
ATOM      7  C   UNL     1       5.364   5.398  18.021  0.00  0.00    +0.000 A 
ATOM      8  C   UNL     1       5.771   6.418  17.149  0.00  0.00    +0.000 A 
ATOM      9  C   UNL     1       6.978   7.094  17.334  0.00  0.00    +0.000 A 
ATOM     10  C   UNL     1       7.825   6.733  18.375  0.00  0.00    +0.000 A 
ATOM     11  C   UNL     1       7.484   5.678  19.221  0.00  0.00    +0.000 A 
ATOM     12  C   UNL     1       6.220   5.073  19.087  0.00  0.00    +0.000 A 
BRANCH  11  13
ATOM     13  N   UNL     1       8.312   5.379  20.314  0.00  0.00    +0.000 N 
ATOM     14  H   UNL     1       8.622   4.410  20.326  0.00  0.00    +0.000 HD
ATOM     15  H   UNL     1       7.921   5.655  21.210  0.00  0.00    +0.000 HD
ENDBRANCH  11  13
ENDBRANCH   3   7
BRANCH   1  16
ATOM     16  C   UNL     1       1.793   2.159  18.438  0.00  0.00    +0.000 C 
BRANCH  16  17
ATOM     17  C   UNL     1       1.122   2.926  19.595  0.00  0.00    +0.000 C 
BRANCH  17  18
ATOM     18  C   UNL     1       2.034   2.985  20.829  0.00  0.00    +0.000 C 
BRANCH  18  19
ATOM     19  C   UNL     1       2.332   4.420  21.282  0.00  0.00    +0.000 C 
BRANCH  19  21
ATOM     20  C   UNL     1       1.706   6.847  20.898  0.00  0.00    +0.000 C 
ATOM     21  C   UNL     1       1.280   5.395  20.745  0.00  0.00    +0.000 C 
ENDBRANCH  19  21
ENDBRANCH  18  19
ENDBRANCH  17  18
ENDBRANCH  16  17
ENDBRANCH   1  16
TORSDOF 7
ENDMDL
