MODEL 1
REMARK VINA RESULT:      -9.4      0.000      0.000
REMARK  Name = 
REMARK  6 active torsions:
REMARK  status: ('A' for Active; 'I' for Inactive)
REMARK    1  A    between atoms: C_1  and  C_2
REMARK    2  A    between atoms: C_5  and  N_6
REMARK    3  A    between atoms: C_7  and  C_9
REMARK    4  A    between atoms: C_13  and  S_14
REMARK    5  A    between atoms: S_14  and  N_17
REMARK    6  A    between atoms: N_20  and  C_21
REMARK                            x       y       z     vdW  Elec       q    Type
REMARK                         _______ _______ _______ _____ _____    ______ ____
ROOT
ATOM      1  C   UNL     1       1.664   8.588  18.863  0.00  0.00    +0.000 A 
ATOM      2  C   UNL     1       1.200   8.520  20.200  0.00  0.00    +0.000 A 
ATOM      3  C   UNL     1       1.430   7.401  21.001  0.00  0.00    +0.000 A 
ATOM      4  C   UNL     1       2.149   6.317  20.489  0.00  0.00    +0.000 A 
ATOM      5  C   UNL     1       2.565   6.342  19.152  0.00  0.00    +0.000 A 
ATOM      6  C   UNL     1       2.311   7.473  18.347  0.00  0.00    +0.000 A 
ENDROOT
BRANCH   1   8
ATOM      7  N   UNL     1       0.359  10.558  17.851  0.00  0.00    +0.000 N 
ATOM      8  C   UNL     1       1.505   9.875  18.133  0.00  0.00    +0.000 C 
ATOM      9  O   UNL     1       2.537  10.404  17.699  0.00  0.00    +0.000 OA
ATOM     10  H   UNL     1       0.669  11.337  17.279  0.00  0.00    +0.000 HD
BRANCH   7  15
ATOM     11  C   UNL     1      -5.463  10.774  18.448  0.00  0.00    +0.000 C 
ATOM     12  C   UNL     1      -4.056  11.016  17.879  0.00  0.00    +0.000 C 
ATOM     13  C   UNL     1      -3.187  11.826  18.856  0.00  0.00    +0.000 C 
ATOM     14  C   UNL     1      -1.720  11.977  18.393  0.00  0.00    +0.000 C 
ATOM     15  C   UNL     1      -1.110  10.618  18.035  0.00  0.00    +0.000 C 
ATOM     16  C   UNL     1      -1.950   9.871  16.997  0.00  0.00    +0.000 C 
ATOM     17  C   UNL     1      -3.390   9.681  17.519  0.00  0.00    +0.000 C 
ENDBRANCH   7  15
ENDBRANCH   1   8
BRANCH   5  18
ATOM     18  S   UNL     1       3.732   5.125  18.535  0.00  0.00    +0.000 S 
ATOM     19  O   UNL     1       3.867   4.149  19.599  0.00  0.00    +0.000 OA
ATOM     20  O   UNL     1       3.261   4.725  17.226  0.00  0.00    +0.000 OA
BRANCH  18  21
ATOM     21  N   UNL     1       5.248   5.832  18.340  0.00  0.00    +0.000 NA
ATOM     22  C   UNL     1       6.472   4.997  18.320  0.00  0.00    +0.000 C 
ATOM     23  C   UNL     1       6.686   4.367  16.942  0.00  0.00    +0.000 C 
ATOM     24  N   UNL     1       6.570   5.350  15.842  0.00  0.00    +0.000 N 
ATOM     25  C   UNL     1       5.624   6.495  15.986  0.00  0.00    +0.000 C 
ATOM     26  C   UNL     1       5.413   6.975  17.424  0.00  0.00    +0.000 C 
BRANCH  24  27
ATOM     27  C   UNL     1       6.559   4.877  14.512  0.00  0.00    +0.000 A 
ATOM     28  C   UNL     1       7.546   5.148  13.556  0.00  0.00    +0.000 A 
ATOM     29  C   UNL     1       7.533   4.514  12.304  0.00  0.00    +0.000 A 
ATOM     30  C   UNL     1       6.519   3.617  11.977  0.00  0.00    +0.000 A 
ATOM     31  C   UNL     1       5.500   3.378  12.887  0.00  0.00    +0.000 A 
ATOM     32  C   UNL     1       5.518   4.012  14.128  0.00  0.00    +0.000 A 
ENDBRANCH  24  27
ENDBRANCH  18  21
ENDBRANCH   5  18
TORSDOF 5
ENDMDL
MODEL 2
REMARK VINA RESULT:      -9.2      2.444      3.551
REMARK  Name = 
REMARK  6 active torsions:
REMARK  status: ('A' for Active; 'I' for Inactive)
REMARK    1  A    between atoms: C_1  and  C_2
REMARK    2  A    between atoms: C_5  and  N_6
REMARK    3  A    between atoms: C_7  and  C_9
REMARK    4  A    between atoms: C_13  and  S_14
REMARK    5  A    between atoms: S_14  and  N_17
REMARK    6  A    between atoms: N_20  and  C_21
REMARK                            x       y       z     vdW  Elec       q    Type
REMARK                         _______ _______ _______ _____ _____    ______ ____
ROOT
ATOM      1  C   UNL     1       1.828   7.519  19.978  0.00  0.00    +0.000 A 
ATOM      2  C   UNL     1       2.463   7.905  18.772  0.00  0.00    +0.000 A 
ATOM      3  C   UNL     1       2.829   6.969  17.804  0.00  0.00    +0.000 A 
ATOM      4  C   UNL     1       2.555   5.614  18.010  0.00  0.00    +0.000 A 
ATOM      5  C   UNL     1       1.981   5.208  19.221  0.00  0.00    +0.000 A 
ATOM      6  C   UNL     1       1.631   6.162  20.200  0.00  0.00    +0.000 A 
ENDROOT
BRANCH   1   8
ATOM      7  N   UNL     1       0.384   9.539  20.647  0.00  0.00    +0.000 N 
ATOM      8  C   UNL     1       1.339   8.595  20.884  0.00  0.00    +0.000 C 
ATOM      9  O   UNL     1       1.871   8.671  22.000  0.00  0.00    +0.000 OA
ATOM     10  H   UNL     1       0.402  10.123  21.476  0.00  0.00    +0.000 HD
BRANCH   7  15
ATOM     11  C   UNL     1      -3.547  11.536  16.793  0.00  0.00    +0.000 C 
ATOM     12  C   UNL     1      -2.241  11.405  17.594  0.00  0.00    +0.000 C 
ATOM     13  C   UNL     1      -2.470  11.688  19.089  0.00  0.00    +0.000 C 
ATOM     14  C   UNL     1      -1.219  11.433  19.959  0.00  0.00    +0.000 C 
ATOM     15  C   UNL     1      -0.634  10.041  19.696  0.00  0.00    +0.000 C 
ATOM     16  C   UNL     1      -0.338   9.819  18.211  0.00  0.00    +0.000 C 
ATOM     17  C   UNL     1      -1.622  10.018  17.379  0.00  0.00    +0.000 C 
ENDBRANCH   7  15
ENDBRANCH   1   8
BRANCH   5  18
ATOM     18  S   UNL     1       1.344   3.541  19.418  0.00  0.00    +0.000 S 
ATOM     19  O   UNL     1       0.737   3.516  20.735  0.00  0.00    +0.000 OA
ATOM     20  O   UNL     1       0.555   3.256  18.240  0.00  0.00    +0.000 OA
BRANCH  18  21
ATOM     21  N   UNL     1       2.620   2.442  19.459  0.00  0.00    +0.000 NA
ATOM     22  C   UNL     1       3.129   1.832  18.209  0.00  0.00    +0.000 C 
ATOM     23  C   UNL     1       4.086   2.781  17.484  0.00  0.00    +0.000 C 
ATOM     24  N   UNL     1       5.119   3.345  18.382  0.00  0.00    +0.000 N 
ATOM     25  C   UNL     1       4.778   3.598  19.814  0.00  0.00    +0.000 C 
ATOM     26  C   UNL     1       3.734   2.646  20.402  0.00  0.00    +0.000 C 
BRANCH  24  27
ATOM     27  C   UNL     1       5.950   4.375  17.893  0.00  0.00    +0.000 A 
ATOM     28  C   UNL     1       6.051   4.753  16.548  0.00  0.00    +0.000 A 
ATOM     29  C   UNL     1       6.788   5.886  16.169  0.00  0.00    +0.000 A 
ATOM     30  C   UNL     1       7.456   6.646  17.126  0.00  0.00    +0.000 A 
ATOM     31  C   UNL     1       7.417   6.256  18.457  0.00  0.00    +0.000 A 
ATOM     32  C   UNL     1       6.685   5.130  18.825  0.00  0.00    +0.000 A 
ENDBRANCH  24  27
ENDBRANCH  18  21
ENDBRANCH   5  18
TORSDOF 5
ENDMDL
MODEL 3
REMARK VINA RESULT:      -8.5      1.925      2.528
REMARK  Name = 
REMARK  6 active torsions:
REMARK  status: ('A' for Active; 'I' for Inactive)
REMARK    1  A    between atoms: C_1  and  C_2
REMARK    2  A    between atoms: C_5  and  N_6
REMARK    3  A    between atoms: C_7  and  C_9
REMARK    4  A    between atoms: C_13  and  S_14
REMARK    5  A    between atoms: S_14  and  N_17
REMARK    6  A    between atoms: N_20  and  C_21
REMARK                            x       y       z     vdW  Elec       q    Type
REMARK                         _______ _______ _______ _____ _____    ______ ____
ROOT
ATOM      1  C   UNL     1       1.575   8.610  19.868  0.00  0.00    +0.000 A 
ATOM      2  C   UNL     1       2.158   9.053  18.656  0.00  0.00    +0.000 A 
ATOM      3  C   UNL     1       2.687   8.158  17.725  0.00  0.00    +0.000 A 
ATOM      4  C   UNL     1       2.633   6.784  17.976  0.00  0.00    +0.000 A 
ATOM      5  C   UNL     1       2.113   6.331  19.194  0.00  0.00    +0.000 A 
ATOM      6  C   UNL     1       1.597   7.247  20.135  0.00  0.00    +0.000 A 
ENDROOT
BRANCH   1   8
ATOM      7  N   UNL     1      -0.222  10.346  20.474  0.00  0.00    +0.000 N 
ATOM      8  C   UNL     1       0.903   9.620  20.730  0.00  0.00    +0.000 C 
ATOM      9  O   UNL     1       1.432   9.863  21.824  0.00  0.00    +0.000 OA
ATOM     10  H   UNL     1      -0.302  10.969  21.270  0.00  0.00    +0.000 HD
BRANCH   7  15
ATOM     11  C   UNL     1      -4.545  11.301  16.639  0.00  0.00    +0.000 C 
ATOM     12  C   UNL     1      -3.196  11.437  17.365  0.00  0.00    +0.000 C 
ATOM     13  C   UNL     1      -3.387  11.906  18.818  0.00  0.00    +0.000 C 
ATOM     14  C   UNL     1      -2.075  11.925  19.634  0.00  0.00    +0.000 C 
ATOM     15  C   UNL     1      -1.337  10.586  19.529  0.00  0.00    +0.000 C 
ATOM     16  C   UNL     1      -1.086  10.186  18.073  0.00  0.00    +0.000 C 
ATOM     17  C   UNL     1      -2.423  10.114  17.305  0.00  0.00    +0.000 C 
ENDBRANCH   7  15
ENDBRANCH   1   8
BRANCH   5  18
ATOM     18  S   UNL     1       1.753   4.589  19.444  0.00  0.00    +0.000 S 
ATOM     19  O   UNL     1       0.906   4.538  20.621  0.00  0.00    +0.000 OA
ATOM     20  O   UNL     1       1.279   4.077  18.176  0.00  0.00    +0.000 OA
BRANCH  18  21
ATOM     21  N   UNL     1       3.166   3.762  19.835  0.00  0.00    +0.000 NA
ATOM     22  C   UNL     1       3.502   2.485  19.163  0.00  0.00    +0.000 C 
ATOM     23  C   UNL     1       4.133   2.735  17.791  0.00  0.00    +0.000 C 
ATOM     24  N   UNL     1       5.224   3.735  17.838  0.00  0.00    +0.000 N 
ATOM     25  C   UNL     1       5.144   4.852  18.824  0.00  0.00    +0.000 C 
ATOM     26  C   UNL     1       4.402   4.513  20.120  0.00  0.00    +0.000 C 
BRANCH  24  27
ATOM     27  C   UNL     1       5.767   4.199  16.622  0.00  0.00    +0.000 A 
ATOM     28  C   UNL     1       7.021   4.810  16.484  0.00  0.00    +0.000 A 
ATOM     29  C   UNL     1       7.546   5.104  15.217  0.00  0.00    +0.000 A 
ATOM     30  C   UNL     1       6.817   4.815  14.066  0.00  0.00    +0.000 A 
ATOM     31  C   UNL     1       5.550   4.263  14.181  0.00  0.00    +0.000 A 
ATOM     32  C   UNL     1       5.034   3.974  15.443  0.00  0.00    +0.000 A 
ENDBRANCH  24  27
ENDBRANCH  18  21
ENDBRANCH   5  18
TORSDOF 5
ENDMDL
MODEL 4
REMARK VINA RESULT:      -8.4      1.918      2.440
REMARK  Name = 
REMARK  6 active torsions:
REMARK  status: ('A' for Active; 'I' for Inactive)
REMARK    1  A    between atoms: C_1  and  C_2
REMARK    2  A    between atoms: C_5  and  N_6
REMARK    3  A    between atoms: C_7  and  C_9
REMARK    4  A    between atoms: C_13  and  S_14
REMARK    5  A    between atoms: S_14  and  N_17
REMARK    6  A    between atoms: N_20  and  C_21
REMARK                            x       y       z     vdW  Elec       q    Type
REMARK                         _______ _______ _______ _____ _____    ______ ____
ROOT
ATOM      1  C   UNL     1       2.189   7.483  18.882  0.00  0.00    +0.000 A 
ATOM      2  C   UNL     1       1.597   7.164  20.129  0.00  0.00    +0.000 A 
ATOM      3  C   UNL     1       1.892   5.975  20.798  0.00  0.00    +0.000 A 
ATOM      4  C   UNL     1       2.804   5.073  20.242  0.00  0.00    +0.000 A 
ATOM      5  C   UNL     1       3.354   5.345  18.984  0.00  0.00    +0.000 A 
ATOM      6  C   UNL     1       3.035   6.542  18.309  0.00  0.00    +0.000 A 
ENDROOT
BRANCH   1   8
ATOM      7  N   UNL     1       1.163   9.839  18.819  0.00  0.00    +0.000 N 
ATOM      8  C   UNL     1       1.934   8.835  18.314  0.00  0.00    +0.000 C 
ATOM      9  O   UNL     1       2.470   9.096  17.228  0.00  0.00    +0.000 OA
ATOM     10  H   UNL     1       1.189  10.557  18.103  0.00  0.00    +0.000 HD
BRANCH   7  15
ATOM     11  C   UNL     1      -2.128  11.741  23.275  0.00  0.00    +0.000 C 
ATOM     12  C   UNL     1      -0.965  11.637  22.274  0.00  0.00    +0.000 C 
ATOM     13  C   UNL     1      -0.201  10.313  22.440  0.00  0.00    +0.000 C 
ATOM     14  C   UNL     1       0.890  10.096  21.367  0.00  0.00    +0.000 C 
ATOM     15  C   UNL     1       0.325  10.289  19.955  0.00  0.00    +0.000 C 
ATOM     16  C   UNL     1      -0.356  11.649  19.795  0.00  0.00    +0.000 C 
ATOM     17  C   UNL     1      -1.481  11.806  20.840  0.00  0.00    +0.000 C 
ENDBRANCH   7  15
ENDBRANCH   1   8
BRANCH   5  18
ATOM     18  S   UNL     1       4.736   4.382  18.363  0.00  0.00    +0.000 S 
ATOM     19  O   UNL     1       5.342   3.781  19.536  0.00  0.00    +0.000 OA
ATOM     20  O   UNL     1       4.218   3.552  17.296  0.00  0.00    +0.000 OA
BRANCH  18  21
ATOM     21  N   UNL     1       5.896   5.407  17.698  0.00  0.00    +0.000 NA
ATOM     22  C   UNL     1       7.246   4.898  17.360  0.00  0.00    +0.000 C 
ATOM     23  C   UNL     1       7.240   4.174  16.012  0.00  0.00    +0.000 C 
ATOM     24  N   UNL     1       6.570   4.957  14.948  0.00  0.00    +0.000 N 
ATOM     25  C   UNL     1       5.428   5.847  15.308  0.00  0.00    +0.000 C 
ATOM     26  C   UNL     1       5.493   6.434  16.721  0.00  0.00    +0.000 C 
BRANCH  24  27
ATOM     27  C   UNL     1       6.327   4.336  13.704  0.00  0.00    +0.000 A 
ATOM     28  C   UNL     1       7.320   3.917  12.808  0.00  0.00    +0.000 A 
ATOM     29  C   UNL     1       6.994   3.173  11.664  0.00  0.00    +0.000 A 
ATOM     30  C   UNL     1       5.667   2.856  11.383  0.00  0.00    +0.000 A 
ATOM     31  C   UNL     1       4.663   3.309  12.226  0.00  0.00    +0.000 A 
ATOM     32  C   UNL     1       4.994   4.048  13.359  0.00  0.00    +0.000 A 
ENDBRANCH  24  27
ENDBRANCH  18  21
ENDBRANCH   5  18
TORSDOF 5
ENDMDL
MODEL 5
REMARK VINA RESULT:      -8.3      3.325     10.076
REMARK  Name = 
REMARK  6 active torsions:
REMARK  status: ('A' for Active; 'I' for Inactive)
REMARK    1  A    between atoms: C_1  and  C_2
REMARK    2  A    between atoms: C_5  and  N_6
REMARK    3  A    between atoms: C_7  and  C_9
REMARK    4  A    between atoms: C_13  and  S_14
REMARK    5  A    between atoms: S_14  and  N_17
REMARK    6  A    between atoms: N_20  and  C_21
REMARK                            x       y       z     vdW  Elec       q    Type
REMARK                         _______ _______ _______ _____ _____    ______ ____
ROOT
ATOM      1  C   UNL     1       1.988   7.476  19.480  0.00  0.00    +0.000 A 
ATOM      2  C   UNL     1       2.239   7.893  18.149  0.00  0.00    +0.000 A 
ATOM      3  C   UNL     1       1.930   9.183  17.714  0.00  0.00    +0.000 A 
ATOM      4  C   UNL     1       1.371  10.101  18.607  0.00  0.00    +0.000 A 
ATOM      5  C   UNL     1       1.062   9.689  19.909  0.00  0.00    +0.000 A 
ATOM      6  C   UNL     1       1.364   8.377  20.333  0.00  0.00    +0.000 A 
ENDROOT
BRANCH   1   8
ATOM      7  N   UNL     1       3.412   5.344  19.286  0.00  0.00    +0.000 N 
ATOM      8  C   UNL     1       2.486   6.136  19.896  0.00  0.00    +0.000 C 
ATOM      9  O   UNL     1       1.991   5.649  20.922  0.00  0.00    +0.000 OA
ATOM     10  H   UNL     1       3.411   4.492  19.835  0.00  0.00    +0.000 HD
BRANCH   7  15
ATOM     11  C   UNL     1       7.244   4.762  14.895  0.00  0.00    +0.000 C 
ATOM     12  C   UNL     1       6.493   4.486  16.208  0.00  0.00    +0.000 C 
ATOM     13  C   UNL     1       6.710   5.619  17.226  0.00  0.00    +0.000 C 
ATOM     14  C   UNL     1       5.865   5.459  18.510  0.00  0.00    +0.000 C 
ATOM     15  C   UNL     1       4.387   5.230  18.176  0.00  0.00    +0.000 C 
ATOM     16  C   UNL     1       4.194   4.045  17.228  0.00  0.00    +0.000 C 
ATOM     17  C   UNL     1       5.000   4.267  15.931  0.00  0.00    +0.000 C 
ENDBRANCH   7  15
ENDBRANCH   1   8
BRANCH   5  18
ATOM     18  S   UNL     1       0.623  10.890  21.170  0.00  0.00    +0.000 S 
ATOM     19  O   UNL     1       0.460  10.122  22.390  0.00  0.00    +0.000 OA
ATOM     20  O   UNL     1       1.606  11.949  21.094  0.00  0.00    +0.000 OA
BRANCH  18  21
ATOM     21  N   UNL     1      -0.882  11.561  20.822  0.00  0.00    +0.000 NA
ATOM     22  C   UNL     1      -1.406  12.690  21.625  0.00  0.00    +0.000 C 
ATOM     23  C   UNL     1      -0.805  14.020  21.163  0.00  0.00    +0.000 C 
ATOM     24  N   UNL     1      -0.874  14.197  19.695  0.00  0.00    +0.000 N 
ATOM     25  C   UNL     1      -0.771  12.998  18.812  0.00  0.00    +0.000 C 
ATOM     26  C   UNL     1      -1.316  11.704  19.421  0.00  0.00    +0.000 C 
BRANCH  24  27
ATOM     27  C   UNL     1      -0.193  15.288  19.114  0.00  0.00    +0.000 A 
ATOM     28  C   UNL     1      -0.770  16.530  18.818  0.00  0.00    +0.000 A 
ATOM     29  C   UNL     1       0.016  17.606  18.381  0.00  0.00    +0.000 A 
ATOM     30  C   UNL     1       1.389  17.454  18.208  0.00  0.00    +0.000 A 
ATOM     31  C   UNL     1       1.973  16.217  18.439  0.00  0.00    +0.000 A 
ATOM     32  C   UNL     1       1.186  15.151  18.872  0.00  0.00    +0.000 A 
ENDBRANCH  24  27
ENDBRANCH  18  21
ENDBRANCH   5  18
TORSDOF 5
ENDMDL
MODEL 6
REMARK VINA RESULT:      -8.3      1.524      2.135
REMARK  Name = 
REMARK  6 active torsions:
REMARK  status: ('A' for Active; 'I' for Inactive)
REMARK    1  A    between atoms: C_1  and  C_2
REMARK    2  A    between atoms: C_5  and  N_6
REMARK    3  A    between atoms: C_7  and  C_9
REMARK    4  A    between atoms: C_13  and  S_14
REMARK    5  A    between atoms: S_14  and  N_17
REMARK    6  A    between atoms: N_20  and  C_21
REMARK                            x       y       z     vdW  Elec       q    Type
REMARK                         _______ _______ _______ _____ _____    ______ ____
ROOT
ATOM      1  C   UNL     1       1.830   8.641  18.892  0.00  0.00    +0.000 A 
ATOM      2  C   UNL     1       1.239   8.529  20.175  0.00  0.00    +0.000 A 
ATOM      3  C   UNL     1       1.348   7.363  20.934  0.00  0.00    +0.000 A 
ATOM      4  C   UNL     1       2.067   6.274  20.434  0.00  0.00    +0.000 A 
ATOM      5  C   UNL     1       2.608   6.345  19.144  0.00  0.00    +0.000 A 
ATOM      6  C   UNL     1       2.477   7.524  18.379  0.00  0.00    +0.000 A 
ENDROOT
BRANCH   1   8
ATOM      7  N   UNL     1       1.099  11.086  18.579  0.00  0.00    +0.000 N 
ATOM      8  C   UNL     1       1.792   9.968  18.220  0.00  0.00    +0.000 C 
ATOM      9  O   UNL     1       2.459  10.089  17.183  0.00  0.00    +0.000 OA
ATOM     10  H   UNL     1       1.279  11.742  17.827  0.00  0.00    +0.000 HD
BRANCH   7  15
ATOM     11  C   UNL     1      -2.334  13.481  22.675  0.00  0.00    +0.000 C 
ATOM     12  C   UNL     1      -1.498  12.439  21.915  0.00  0.00    +0.000 C 
ATOM     13  C   UNL     1      -2.106  12.129  20.536  0.00  0.00    +0.000 C 
ATOM     14  C   UNL     1      -1.229  11.193  19.674  0.00  0.00    +0.000 C 
ATOM     15  C   UNL     1       0.212  11.706  19.591  0.00  0.00    +0.000 C 
ATOM     16  C   UNL     1       0.821  11.924  20.977  0.00  0.00    +0.000 C 
ATOM     17  C   UNL     1      -0.045  12.913  21.787  0.00  0.00    +0.000 C 
ENDBRANCH   7  15
ENDBRANCH   1   8
BRANCH   5  18
ATOM     18  S   UNL     1       3.777   5.108  18.573  0.00  0.00    +0.000 S 
ATOM     19  O   UNL     1       3.888   4.155  19.661  0.00  0.00    +0.000 OA
ATOM     20  O   UNL     1       3.324   4.681  17.266  0.00  0.00    +0.000 OA
BRANCH  18  21
ATOM     21  N   UNL     1       5.300   5.801  18.386  0.00  0.00    +0.000 NA
ATOM     22  C   UNL     1       6.515   4.954  18.355  0.00  0.00    +0.000 C 
ATOM     23  C   UNL     1       6.722   4.340  16.969  0.00  0.00    +0.000 C 
ATOM     24  N   UNL     1       6.616   5.338  15.881  0.00  0.00    +0.000 N 
ATOM     25  C   UNL     1       5.682   6.491  16.041  0.00  0.00    +0.000 C 
ATOM     26  C   UNL     1       5.476   6.955  17.485  0.00  0.00    +0.000 C 
BRANCH  24  27
ATOM     27  C   UNL     1       6.599   4.883  14.546  0.00  0.00    +0.000 A 
ATOM     28  C   UNL     1       7.569   5.189  13.582  0.00  0.00    +0.000 A 
ATOM     29  C   UNL     1       7.555   4.571  12.322  0.00  0.00    +0.000 A 
ATOM     30  C   UNL     1       6.558   3.656  11.995  0.00  0.00    +0.000 A 
ATOM     31  C   UNL     1       5.555   3.382  12.913  0.00  0.00    +0.000 A 
ATOM     32  C   UNL     1       5.574   3.999  14.162  0.00  0.00    +0.000 A 
ENDBRANCH  24  27
ENDBRANCH  18  21
ENDBRANCH   5  18
TORSDOF 5
ENDMDL
MODEL 7
REMARK VINA RESULT:      -8.3      2.602      3.639
REMARK  Name = 
REMARK  6 active torsions:
REMARK  status: ('A' for Active; 'I' for Inactive)
REMARK    1  A    between atoms: C_1  and  C_2
REMARK    2  A    between atoms: C_5  and  N_6
REMARK    3  A    between atoms: C_7  and  C_9
REMARK    4  A    between atoms: C_13  and  S_14
REMARK    5  A    between atoms: S_14  and  N_17
REMARK    6  A    between atoms: N_20  and  C_21
REMARK                            x       y       z     vdW  Elec       q    Type
REMARK                         _______ _______ _______ _____ _____    ______ ____
ROOT
ATOM      1  C   UNL     1       2.054   7.127  18.857  0.00  0.00    +0.000 A 
ATOM      2  C   UNL     1       1.923   7.225  20.264  0.00  0.00    +0.000 A 
ATOM      3  C   UNL     1       1.648   6.108  21.054  0.00  0.00    +0.000 A 
ATOM      4  C   UNL     1       1.511   4.852  20.458  0.00  0.00    +0.000 A 
ATOM      5  C   UNL     1       1.580   4.746  19.063  0.00  0.00    +0.000 A 
ATOM      6  C   UNL     1       1.841   5.885  18.273  0.00  0.00    +0.000 A 
ENDROOT
BRANCH   1   8
ATOM      7  N   UNL     1       1.908   9.567  18.059  0.00  0.00    +0.000 N 
ATOM      8  C   UNL     1       2.495   8.338  18.111  0.00  0.00    +0.000 C 
ATOM      9  O   UNL     1       3.521   8.230  17.425  0.00  0.00    +0.000 OA
ATOM     10  H   UNL     1       2.469  10.082  17.389  0.00  0.00    +0.000 HD
BRANCH   7  15
ATOM     11  C   UNL     1      -2.405  12.907  20.191  0.00  0.00    +0.000 C 
ATOM     12  C   UNL     1      -1.523  11.676  19.925  0.00  0.00    +0.000 C 
ATOM     13  C   UNL     1      -1.586  11.250  18.448  0.00  0.00    +0.000 C 
ATOM     14  C   UNL     1      -0.610  10.104  18.097  0.00  0.00    +0.000 C 
ATOM     15  C   UNL     1       0.812  10.425  18.568  0.00  0.00    +0.000 C 
ATOM     16  C   UNL     1       0.857  10.762  20.060  0.00  0.00    +0.000 C 
ATOM     17  C   UNL     1      -0.079  11.951  20.362  0.00  0.00    +0.000 C 
ENDBRANCH   7  15
ENDBRANCH   1   8
BRANCH   5  18
ATOM     18  S   UNL     1       1.705   3.138  18.273  0.00  0.00    +0.000 S 
ATOM     19  O   UNL     1       0.613   2.356  18.821  0.00  0.00    +0.000 OA
ATOM     20  O   UNL     1       1.793   3.380  16.850  0.00  0.00    +0.000 OA
BRANCH  18  21
ATOM     21  N   UNL     1       3.128   2.374  18.752  0.00  0.00    +0.000 NA
ATOM     22  C   UNL     1       4.140   1.969  17.748  0.00  0.00    +0.000 C 
ATOM     23  C   UNL     1       5.018   3.156  17.343  0.00  0.00    +0.000 C 
ATOM     24  N   UNL     1       5.542   3.902  18.509  0.00  0.00    +0.000 N 
ATOM     25  C   UNL     1       4.714   3.990  19.748  0.00  0.00    +0.000 C 
ATOM     26  C   UNL     1       3.800   2.787  19.997  0.00  0.00    +0.000 C 
BRANCH  24  27
ATOM     27  C   UNL     1       6.210   5.124  18.285  0.00  0.00    +0.000 A 
ATOM     28  C   UNL     1       7.262   5.620  19.066  0.00  0.00    +0.000 A 
ATOM     29  C   UNL     1       7.968   6.769  18.682  0.00  0.00    +0.000 A 
ATOM     30  C   UNL     1       7.619   7.459  17.523  0.00  0.00    +0.000 A 
ATOM     31  C   UNL     1       6.543   7.019  16.765  0.00  0.00    +0.000 A 
ATOM     32  C   UNL     1       5.846   5.877  17.153  0.00  0.00    +0.000 A 
ENDBRANCH  24  27
ENDBRANCH  18  21
ENDBRANCH   5  18
TORSDOF 5
ENDMDL
MODEL 8
REMARK VINA RESULT:      -8.3      2.135      2.898
REMARK  Name = 
REMARK  6 active torsions:
REMARK  status: ('A' for Active; 'I' for Inactive)
REMARK    1  A    between atoms: C_1  and  C_2
REMARK    2  A    between atoms: C_5  and  N_6
REMARK    3  A    between atoms: C_7  and  C_9
REMARK    4  A    between atoms: C_13  and  S_14
REMARK    5  A    between atoms: S_14  and  N_17
REMARK    6  A    between atoms: N_20  and  C_21
REMARK                            x       y       z     vdW  Elec       q    Type
REMARK                         _______ _______ _______ _____ _____    ______ ____
ROOT
ATOM      1  C   UNL     1       1.693   8.053  19.928  0.00  0.00    +0.000 A 
ATOM      2  C   UNL     1       2.313   8.439  18.714  0.00  0.00    +0.000 A 
ATOM      3  C   UNL     1       2.783   7.497  17.798  0.00  0.00    +0.000 A 
ATOM      4  C   UNL     1       2.632   6.134  18.065  0.00  0.00    +0.000 A 
ATOM      5  C   UNL     1       2.075   5.733  19.286  0.00  0.00    +0.000 A 
ATOM      6  C   UNL     1       1.618   6.695  20.212  0.00  0.00    +0.000 A 
ENDROOT
BRANCH   1   8
ATOM      7  N   UNL     1       0.045   9.947  20.482  0.00  0.00    +0.000 N 
ATOM      8  C   UNL     1       1.088   9.119  20.772  0.00  0.00    +0.000 C 
ATOM      9  O   UNL     1       1.599   9.309  21.885  0.00  0.00    +0.000 OA
ATOM     10  H   UNL     1      -0.005  10.572  21.278  0.00  0.00    +0.000 HD
BRANCH   7  15
ATOM     11  C   UNL     1      -4.036  11.315  16.510  0.00  0.00    +0.000 C 
ATOM     12  C   UNL     1      -2.716  11.340  17.298  0.00  0.00    +0.000 C 
ATOM     13  C   UNL     1      -2.946  11.760  18.760  0.00  0.00    +0.000 C 
ATOM     14  C   UNL     1      -1.673  11.667  19.632  0.00  0.00    +0.000 C 
ATOM     15  C   UNL     1      -1.011  10.291  19.501  0.00  0.00    +0.000 C 
ATOM     16  C   UNL     1      -0.717   9.936  18.042  0.00  0.00    +0.000 C 
ATOM     17  C   UNL     1      -2.020   9.976  17.215  0.00  0.00    +0.000 C 
ENDBRANCH   7  15
ENDBRANCH   1   8
BRANCH   5  18
ATOM     18  S   UNL     1       1.592   4.025  19.554  0.00  0.00    +0.000 S 
ATOM     19  O   UNL     1       0.839   4.030  20.794  0.00  0.00    +0.000 OA
ATOM     20  O   UNL     1       0.979   3.568  18.325  0.00  0.00    +0.000 OA
BRANCH  18  21
ATOM     21  N   UNL     1       2.958   3.079  19.828  0.00  0.00    +0.000 NA
ATOM     22  C   UNL     1       3.232   1.889  18.989  0.00  0.00    +0.000 C 
ATOM     23  C   UNL     1       3.882   2.289  17.663  0.00  0.00    +0.000 C 
ATOM     24  N   UNL     1       5.023   3.215  17.844  0.00  0.00    +0.000 N 
ATOM     25  C   UNL     1       4.995   4.192  18.973  0.00  0.00    +0.000 C 
ATOM     26  C   UNL     1       4.229   3.720  20.211  0.00  0.00    +0.000 C 
BRANCH  24  27
ATOM     27  C   UNL     1       5.598   3.811  16.701  0.00  0.00    +0.000 A 
ATOM     28  C   UNL     1       4.956   3.959  15.465  0.00  0.00    +0.000 A 
ATOM     29  C   UNL     1       5.546   4.698  14.428  0.00  0.00    +0.000 A 
ATOM     30  C   UNL     1       6.799   5.281  14.601  0.00  0.00    +0.000 A 
ATOM     31  C   UNL     1       7.478   5.098  15.797  0.00  0.00    +0.000 A 
ATOM     32  C   UNL     1       6.886   4.363  16.822  0.00  0.00    +0.000 A 
ENDBRANCH  24  27
ENDBRANCH  18  21
ENDBRANCH   5  18
TORSDOF 5
ENDMDL
MODEL 9
REMARK VINA RESULT:      -8.3      3.347      4.488
REMARK  Name = 
REMARK  6 active torsions:
REMARK  status: ('A' for Active; 'I' for Inactive)
REMARK    1  A    between atoms: C_1  and  C_2
REMARK    2  A    between atoms: C_5  and  N_6
REMARK    3  A    between atoms: C_7  and  C_9
REMARK    4  A    between atoms: C_13  and  S_14
REMARK    5  A    between atoms: S_14  and  N_17
REMARK    6  A    between atoms: N_20  and  C_21
REMARK                            x       y       z     vdW  Elec       q    Type
REMARK                         _______ _______ _______ _____ _____    ______ ____
ROOT
ATOM      1  C   UNL     1       1.638   7.714  20.056  0.00  0.00    +0.000 A 
ATOM      2  C   UNL     1       2.330   8.328  18.983  0.00  0.00    +0.000 A 
ATOM      3  C   UNL     1       2.850   7.582  17.924  0.00  0.00    +0.000 A 
ATOM      4  C   UNL     1       2.679   6.196  17.901  0.00  0.00    +0.000 A 
ATOM      5  C   UNL     1       2.049   5.566  18.982  0.00  0.00    +0.000 A 
ATOM      6  C   UNL     1       1.542   6.329  20.055  0.00  0.00    +0.000 A 
ENDROOT
BRANCH   1   8
ATOM      7  N   UNL     1       0.960   9.960  21.110  0.00  0.00    +0.000 N 
ATOM      8  C   UNL     1       0.988   8.598  21.063  0.00  0.00    +0.000 C 
ATOM      9  O   UNL     1       0.405   8.040  22.003  0.00  0.00    +0.000 OA
ATOM     10  H   UNL     1       0.489  10.169  21.983  0.00  0.00    +0.000 HD
BRANCH   7  15
ATOM     11  C   UNL     1       2.327  14.991  18.442  0.00  0.00    +0.000 C 
ATOM     12  C   UNL     1       1.495  13.809  18.966  0.00  0.00    +0.000 C 
ATOM     13  C   UNL     1       1.919  12.488  18.302  0.00  0.00    +0.000 C 
ATOM     14  C   UNL     1       1.211  11.249  18.895  0.00  0.00    +0.000 C 
ATOM     15  C   UNL     1       1.333  11.218  20.422  0.00  0.00    +0.000 C 
ATOM     16  C   UNL     1       0.825  12.512  21.061  0.00  0.00    +0.000 C 
ATOM     17  C   UNL     1       1.598  13.721  20.494  0.00  0.00    +0.000 C 
ENDBRANCH   7  15
ENDBRANCH   1   8
BRANCH   5  18
ATOM     18  S   UNL     1       1.545   3.846  18.872  0.00  0.00    +0.000 S 
ATOM     19  O   UNL     1       0.744   3.605  20.057  0.00  0.00    +0.000 OA
ATOM     20  O   UNL     1       0.979   3.663  17.552  0.00  0.00    +0.000 OA
BRANCH  18  21
ATOM     21  N   UNL     1       2.894   2.845  18.995  0.00  0.00    +0.000 NA
ATOM     22  C   UNL     1       3.601   2.381  17.778  0.00  0.00    +0.000 C 
ATOM     23  C   UNL     1       4.556   3.455  17.253  0.00  0.00    +0.000 C 
ATOM     24  N   UNL     1       5.420   4.018  18.316  0.00  0.00    +0.000 N 
ATOM     25  C   UNL     1       4.889   4.124  19.706  0.00  0.00    +0.000 C 
ATOM     26  C   UNL     1       3.864   3.052  20.085  0.00  0.00    +0.000 C 
BRANCH  24  27
ATOM     27  C   UNL     1       6.216   5.144  18.013  0.00  0.00    +0.000 A 
ATOM     28  C   UNL     1       6.009   6.005  16.927  0.00  0.00    +0.000 A 
ATOM     29  C   UNL     1       6.755   7.185  16.788  0.00  0.00    +0.000 A 
ATOM     30  C   UNL     1       7.738   7.513  17.719  0.00  0.00    +0.000 A 
ATOM     31  C   UNL     1       7.999   6.646  18.770  0.00  0.00    +0.000 A 
ATOM     32  C   UNL     1       7.255   5.476  18.902  0.00  0.00    +0.000 A 
ENDBRANCH  24  27
ENDBRANCH  18  21
ENDBRANCH   5  18
TORSDOF 5
ENDMDL
