MODEL 1
REMARK VINA RESULT:      -8.0      0.000      0.000
REMARK  Name = 
REMARK  6 active torsions:
REMARK  status: ('A' for Active; 'I' for Inactive)
REMARK    1  A    between atoms: C_2  and  C_3
REMARK    2  A    between atoms: N_6  and  C_7
REMARK    3  A    between atoms: C_10  and  N_11
REMARK    4  A    between atoms: C_15  and  N_16
REMARK    5  A    between atoms: C_19  and  N_20
REMARK    6  A    between atoms: C_21  and  C_23
REMARK                            x       y       z     vdW  Elec       q    Type
REMARK                         _______ _______ _______ _____ _____    ______ ____
ROOT
ATOM      1  C   UNL     1       2.723   2.884  18.991  0.00  0.00    +0.000 A 
ATOM      2  C   UNL     1       3.326   1.693  18.557  0.00  0.00    +0.000 A 
ATOM      3  N   UNL     1       4.110   1.876  17.501  0.00  0.00    +0.000 NA
ATOM      4  N   UNL     1       4.110   3.223  17.303  0.00  0.00    +0.000 N 
ATOM      5  C   UNL     1       3.177   3.864  18.125  0.00  0.00    +0.000 A 
ENDROOT
BRANCH   4   6
ATOM      6  C   UNL     1       5.076   3.747  16.402  0.00  0.00    +0.000 A 
ATOM      7  C   UNL     1       5.023   3.271  15.075  0.00  0.00    +0.000 A 
ATOM      8  C   UNL     1       5.882   3.773  14.098  0.00  0.00    +0.000 A 
ATOM      9  C   UNL     1       6.829   4.745  14.448  0.00  0.00    +0.000 A 
ATOM     10  C   UNL     1       6.942   5.192  15.771  0.00  0.00    +0.000 A 
ATOM     11  C   UNL     1       6.062   4.685  16.741  0.00  0.00    +0.000 A 
BRANCH   9  12
ATOM     12  N   UNL     1       7.715   5.292  13.419  0.00  0.00    +0.000 N 
ATOM     13  O   UNL     1       7.437   5.063  12.232  0.00  0.00    +0.000 OA
ATOM     14  O   UNL     1       8.689   5.956  13.799  0.00  0.00    +0.000 OA
ENDBRANCH   9  12
BRANCH  11  15
ATOM     15  N   UNL     1       6.341   5.069  18.115  0.00  0.00    +0.000 N 
ATOM     16  O   UNL     1       6.392   4.167  18.959  0.00  0.00    +0.000 OA
ATOM     17  O   UNL     1       6.508   6.272  18.341  0.00  0.00    +0.000 OA
ENDBRANCH  11  15
ENDBRANCH   4   6
BRANCH   5  18
ATOM     18  N   UNL     1       2.814   5.209  18.011  0.00  0.00    +0.000 N 
ATOM     19  C   UNL     1       3.018   6.087  19.071  0.00  0.00    +0.000 C 
ATOM     20  O   UNL     1       3.581   5.770  20.114  0.00  0.00    +0.000 OA
ATOM     21  H   UNL     1       2.367   5.518  17.151  0.00  0.00    +0.000 HD
BRANCH  19  22
ATOM     22  C   UNL     1       2.466   7.468  18.929  0.00  0.00    +0.000 A 
ATOM     23  C   UNL     1       1.757   7.996  20.024  0.00  0.00    +0.000 A 
ATOM     24  C   UNL     1       1.116   9.231  19.924  0.00  0.00    +0.000 A 
ATOM     25  C   UNL     1       1.204   9.949  18.739  0.00  0.00    +0.000 A 
ATOM     26  F   UNL     1       0.560  11.118  18.626  0.00  0.00    +0.000 F 
ATOM     27  C   UNL     1       1.934   9.462  17.658  0.00  0.00    +0.000 A 
ATOM     28  C   UNL     1       2.569   8.219  17.749  0.00  0.00    +0.000 A 
ENDBRANCH  19  22
ENDBRANCH   5  18
BRANCH   1  30
ATOM     29  N   UNL     1       1.009   3.040  20.917  0.00  0.00    +0.000 NA
ATOM     30  C   UNL     1       1.746   2.920  20.017  0.00  0.00    +0.000 C 
ENDBRANCH   1  30
TORSDOF 6
ENDMDL
MODEL 2
REMARK VINA RESULT:      -7.6      0.201      1.227
REMARK  Name = 
REMARK  6 active torsions:
REMARK  status: ('A' for Active; 'I' for Inactive)
REMARK    1  A    between atoms: C_2  and  C_3
REMARK    2  A    between atoms: N_6  and  C_7
REMARK    3  A    between atoms: C_10  and  N_11
REMARK    4  A    between atoms: C_15  and  N_16
REMARK    5  A    between atoms: C_19  and  N_20
REMARK    6  A    between atoms: C_21  and  C_23
REMARK                            x       y       z     vdW  Elec       q    Type
REMARK                         _______ _______ _______ _____ _____    ______ ____
ROOT
ATOM      1  C   UNL     1       2.742   2.896  19.068  0.00  0.00    +0.000 A 
ATOM      2  C   UNL     1       3.365   1.708  18.656  0.00  0.00    +0.000 A 
ATOM      3  N   UNL     1       4.139   1.882  17.592  0.00  0.00    +0.000 NA
ATOM      4  N   UNL     1       4.113   3.224  17.365  0.00  0.00    +0.000 N 
ATOM      5  C   UNL     1       3.173   3.865  18.179  0.00  0.00    +0.000 A 
ENDROOT
BRANCH   4   6
ATOM      6  C   UNL     1       5.064   3.746  16.446  0.00  0.00    +0.000 A 
ATOM      7  C   UNL     1       5.015   3.237  15.131  0.00  0.00    +0.000 A 
ATOM      8  C   UNL     1       5.858   3.732  14.139  0.00  0.00    +0.000 A 
ATOM      9  C   UNL     1       6.786   4.732  14.460  0.00  0.00    +0.000 A 
ATOM     10  C   UNL     1       6.896   5.215  15.771  0.00  0.00    +0.000 A 
ATOM     11  C   UNL     1       6.031   4.713  16.757  0.00  0.00    +0.000 A 
BRANCH   9  12
ATOM     12  N   UNL     1       7.656   5.273  13.413  0.00  0.00    +0.000 N 
ATOM     13  O   UNL     1       8.598   6.002  13.761  0.00  0.00    +0.000 OA
ATOM     14  O   UNL     1       7.398   4.964  12.242  0.00  0.00    +0.000 OA
ENDBRANCH   9  12
BRANCH  11  15
ATOM     15  N   UNL     1       6.307   5.137  18.120  0.00  0.00    +0.000 N 
ATOM     16  O   UNL     1       6.335   6.351  18.345  0.00  0.00    +0.000 OA
ATOM     17  O   UNL     1       6.495   4.248  18.958  0.00  0.00    +0.000 OA
ENDBRANCH  11  15
ENDBRANCH   4   6
BRANCH   5  18
ATOM     18  N   UNL     1       2.785   5.201  18.037  0.00  0.00    +0.000 N 
ATOM     19  C   UNL     1       2.955   6.099  19.086  0.00  0.00    +0.000 C 
ATOM     20  O   UNL     1       3.509   5.810  20.142  0.00  0.00    +0.000 OA
ATOM     21  H   UNL     1       2.344   5.486  17.166  0.00  0.00    +0.000 HD
BRANCH  19  22
ATOM     22  C   UNL     1       2.377   7.466  18.914  0.00  0.00    +0.000 A 
ATOM     23  C   UNL     1       2.668   8.144  17.715  0.00  0.00    +0.000 A 
ATOM     24  C   UNL     1       2.261   9.466  17.532  0.00  0.00    +0.000 A 
ATOM     25  C   UNL     1       1.541  10.101  18.536  0.00  0.00    +0.000 A 
ATOM     26  F   UNL     1       1.180  11.381  18.379  0.00  0.00    +0.000 F 
ATOM     27  C   UNL     1       1.210   9.434  19.712  0.00  0.00    +0.000 A 
ATOM     28  C   UNL     1       1.625   8.113  19.906  0.00  0.00    +0.000 A 
ENDBRANCH  19  22
ENDBRANCH   5  18
BRANCH   1  30
ATOM     29  N   UNL     1       1.033   2.873  21.004  0.00  0.00    +0.000 NA
ATOM     30  C   UNL     1       1.771   2.936  20.100  0.00  0.00    +0.000 C 
ENDBRANCH   1  30
TORSDOF 6
ENDMDL
MODEL 3
REMARK VINA RESULT:      -7.3      3.691      6.669
REMARK  Name = 
REMARK  6 active torsions:
REMARK  status: ('A' for Active; 'I' for Inactive)
REMARK    1  A    between atoms: C_2  and  C_3
REMARK    2  A    between atoms: N_6  and  C_7
REMARK    3  A    between atoms: C_10  and  N_11
REMARK    4  A    between atoms: C_15  and  N_16
REMARK    5  A    between atoms: C_19  and  N_20
REMARK    6  A    between atoms: C_21  and  C_23
REMARK                            x       y       z     vdW  Elec       q    Type
REMARK                         _______ _______ _______ _____ _____    ______ ____
ROOT
ATOM      1  C   UNL     1       6.317   5.322  15.244  0.00  0.00    +0.000 A 
ATOM      2  C   UNL     1       5.430   4.252  15.440  0.00  0.00    +0.000 A 
ATOM      3  N   UNL     1       4.626   4.442  16.479  0.00  0.00    +0.000 NA
ATOM      4  N   UNL     1       4.912   5.702  16.908  0.00  0.00    +0.000 N 
ATOM      5  C   UNL     1       6.028   6.230  16.247  0.00  0.00    +0.000 A 
ENDROOT
BRANCH   4   6
ATOM      6  C   UNL     1       4.020   6.288  17.847  0.00  0.00    +0.000 A 
ATOM      7  C   UNL     1       3.447   7.526  17.484  0.00  0.00    +0.000 A 
ATOM      8  C   UNL     1       2.509   8.149  18.303  0.00  0.00    +0.000 A 
ATOM      9  C   UNL     1       2.150   7.550  19.518  0.00  0.00    +0.000 A 
ATOM     10  C   UNL     1       2.747   6.351  19.931  0.00  0.00    +0.000 A 
ATOM     11  C   UNL     1       3.682   5.729  19.088  0.00  0.00    +0.000 A 
BRANCH   9  12
ATOM     12  N   UNL     1       1.145   8.190  20.370  0.00  0.00    +0.000 N 
ATOM     13  O   UNL     1       0.724   9.307  20.031  0.00  0.00    +0.000 OA
ATOM     14  O   UNL     1       0.774   7.572  21.377  0.00  0.00    +0.000 OA
ENDBRANCH   9  12
BRANCH  11  15
ATOM     15  N   UNL     1       4.378   4.582  19.647  0.00  0.00    +0.000 N 
ATOM     16  O   UNL     1       3.710   3.570  19.884  0.00  0.00    +0.000 OA
ATOM     17  O   UNL     1       5.592   4.703  19.846  0.00  0.00    +0.000 OA
ENDBRANCH  11  15
ENDBRANCH   4   6
BRANCH   5  18
ATOM     18  N   UNL     1       6.672   7.416  16.608  0.00  0.00    +0.000 N 
ATOM     19  C   UNL     1       7.575   7.435  17.666  0.00  0.00    +0.000 C 
ATOM     20  O   UNL     1       7.914   6.430  18.285  0.00  0.00    +0.000 OA
ATOM     21  H   UNL     1       6.437   8.268  16.103  0.00  0.00    +0.000 HD
BRANCH  19  22
ATOM     22  C   UNL     1       8.105   8.766  18.089  0.00  0.00    +0.000 A 
ATOM     23  C   UNL     1       7.716   9.886  17.330  0.00  0.00    +0.000 A 
ATOM     24  C   UNL     1       8.261  11.143  17.593  0.00  0.00    +0.000 A 
ATOM     25  C   UNL     1       9.175  11.286  18.628  0.00  0.00    +0.000 A 
ATOM     26  F   UNL     1       9.728  12.483  18.860  0.00  0.00    +0.000 F 
ATOM     27  C   UNL     1       9.542  10.197  19.415  0.00  0.00    +0.000 A 
ATOM     28  C   UNL     1       9.008   8.933  19.149  0.00  0.00    +0.000 A 
ENDBRANCH  19  22
ENDBRANCH   5  18
BRANCH   1  30
ATOM     29  N   UNL     1       8.208   5.392  13.486  0.00  0.00    +0.000 NA
ATOM     30  C   UNL     1       7.355   5.291  14.279  0.00  0.00    +0.000 C 
ENDBRANCH   1  30
TORSDOF 6
ENDMDL
MODEL 4
REMARK VINA RESULT:      -7.2      0.964      1.188
REMARK  Name = 
REMARK  6 active torsions:
REMARK  status: ('A' for Active; 'I' for Inactive)
REMARK    1  A    between atoms: C_2  and  C_3
REMARK    2  A    between atoms: N_6  and  C_7
REMARK    3  A    between atoms: C_10  and  N_11
REMARK    4  A    between atoms: C_15  and  N_16
REMARK    5  A    between atoms: C_19  and  N_20
REMARK    6  A    between atoms: C_21  and  C_23
REMARK                            x       y       z     vdW  Elec       q    Type
REMARK                         _______ _______ _______ _____ _____    ______ ____
ROOT
ATOM      1  C   UNL     1       3.539   3.185  19.955  0.00  0.00    +0.000 A 
ATOM      2  C   UNL     1       3.913   1.950  19.404  0.00  0.00    +0.000 A 
ATOM      3  N   UNL     1       4.492   2.078  18.216  0.00  0.00    +0.000 NA
ATOM      4  N   UNL     1       4.600   3.422  18.029  0.00  0.00    +0.000 N 
ATOM      5  C   UNL     1       3.919   4.135  19.023  0.00  0.00    +0.000 A 
ENDROOT
BRANCH   4   6
ATOM      6  C   UNL     1       5.423   3.866  16.960  0.00  0.00    +0.000 A 
ATOM      7  C   UNL     1       5.059   3.438  15.665  0.00  0.00    +0.000 A 
ATOM      8  C   UNL     1       5.761   3.873  14.542  0.00  0.00    +0.000 A 
ATOM      9  C   UNL     1       6.860   4.727  14.706  0.00  0.00    +0.000 A 
ATOM     10  C   UNL     1       7.279   5.120  15.984  0.00  0.00    +0.000 A 
ATOM     11  C   UNL     1       6.555   4.682  17.104  0.00  0.00    +0.000 A 
BRANCH   9  12
ATOM     12  N   UNL     1       7.583   5.206  13.526  0.00  0.00    +0.000 N 
ATOM     13  O   UNL     1       8.566   5.941  13.707  0.00  0.00    +0.000 OA
ATOM     14  O   UNL     1       7.169   4.843  12.416  0.00  0.00    +0.000 OA
ENDBRANCH   9  12
BRANCH  11  15
ATOM     15  N   UNL     1       7.138   4.993  18.399  0.00  0.00    +0.000 N 
ATOM     16  O   UNL     1       6.512   5.762  19.136  0.00  0.00    +0.000 OA
ATOM     17  O   UNL     1       8.221   4.463  18.670  0.00  0.00    +0.000 OA
ENDBRANCH  11  15
ENDBRANCH   4   6
BRANCH   5  18
ATOM     18  N   UNL     1       3.689   5.513  18.989  0.00  0.00    +0.000 N 
ATOM     19  C   UNL     1       2.399   6.017  19.126  0.00  0.00    +0.000 C 
ATOM     20  O   UNL     1       1.419   5.314  19.355  0.00  0.00    +0.000 OA
ATOM     21  H   UNL     1       4.480   6.132  18.826  0.00  0.00    +0.000 HD
BRANCH  19  22
ATOM     22  C   UNL     1       2.215   7.486  18.926  0.00  0.00    +0.000 A 
ATOM     23  C   UNL     1       1.555   8.198  19.946  0.00  0.00    +0.000 A 
ATOM     24  C   UNL     1       1.245   9.548  19.780  0.00  0.00    +0.000 A 
ATOM     25  C   UNL     1       1.615  10.192  18.607  0.00  0.00    +0.000 A 
ATOM     26  F   UNL     1       1.287  11.478  18.428  0.00  0.00    +0.000 F 
ATOM     27  C   UNL     1       2.303   9.515  17.604  0.00  0.00    +0.000 A 
ATOM     28  C   UNL     1       2.607   8.158  17.760  0.00  0.00    +0.000 A 
ENDBRANCH  19  22
ENDBRANCH   5  18
BRANCH   1  30
ATOM     29  N   UNL     1       2.095   3.299  22.094  0.00  0.00    +0.000 NA
ATOM     30  C   UNL     1       2.790   3.296  21.153  0.00  0.00    +0.000 C 
ENDBRANCH   1  30
TORSDOF 6
ENDMDL
MODEL 5
REMARK VINA RESULT:      -7.2      3.761      6.707
REMARK  Name = 
REMARK  6 active torsions:
REMARK  status: ('A' for Active; 'I' for Inactive)
REMARK    1  A    between atoms: C_2  and  C_3
REMARK    2  A    between atoms: N_6  and  C_7
REMARK    3  A    between atoms: C_10  and  N_11
REMARK    4  A    between atoms: C_15  and  N_16
REMARK    5  A    between atoms: C_19  and  N_20
REMARK    6  A    between atoms: C_21  and  C_23
REMARK                            x       y       z     vdW  Elec       q    Type
REMARK                         _______ _______ _______ _____ _____    ______ ____
ROOT
ATOM      1  C   UNL     1       5.968   5.363  15.480  0.00  0.00    +0.000 A 
ATOM      2  C   UNL     1       5.016   4.365  15.742  0.00  0.00    +0.000 A 
ATOM      3  N   UNL     1       4.203   4.686  16.741  0.00  0.00    +0.000 NA
ATOM      4  N   UNL     1       4.553   5.960  17.071  0.00  0.00    +0.000 N 
ATOM      5  C   UNL     1       5.710   6.367  16.397  0.00  0.00    +0.000 A 
ENDROOT
BRANCH   4   6
ATOM      6  C   UNL     1       3.677   6.671  17.935  0.00  0.00    +0.000 A 
ATOM      7  C   UNL     1       3.198   7.912  17.465  0.00  0.00    +0.000 A 
ATOM      8  C   UNL     1       2.282   8.656  18.206  0.00  0.00    +0.000 A 
ATOM      9  C   UNL     1       1.852   8.174  19.450  0.00  0.00    +0.000 A 
ATOM     10  C   UNL     1       2.355   6.973  19.968  0.00  0.00    +0.000 A 
ATOM     11  C   UNL     1       3.270   6.231  19.203  0.00  0.00    +0.000 A 
BRANCH   9  12
ATOM     12  N   UNL     1       0.869   8.940  20.220  0.00  0.00    +0.000 N 
ATOM     13  O   UNL     1       0.600  10.089  19.836  0.00  0.00    +0.000 OA
ATOM     14  O   UNL     1       0.364   8.390  21.208  0.00  0.00    +0.000 OA
ENDBRANCH   9  12
BRANCH  11  15
ATOM     15  N   UNL     1       3.872   5.086  19.867  0.00  0.00    +0.000 N 
ATOM     16  O   UNL     1       5.105   5.052  19.937  0.00  0.00    +0.000 OA
ATOM     17  O   UNL     1       3.104   4.227  20.314  0.00  0.00    +0.000 OA
ENDBRANCH  11  15
ENDBRANCH   4   6
BRANCH   5  18
ATOM     18  N   UNL     1       6.415   7.541  16.675  0.00  0.00    +0.000 N 
ATOM     19  C   UNL     1       7.450   7.540  17.605  0.00  0.00    +0.000 C 
ATOM     20  O   UNL     1       7.851   6.527  18.169  0.00  0.00    +0.000 OA
ATOM     21  H   UNL     1       6.129   8.399  16.209  0.00  0.00    +0.000 HD
BRANCH  19  22
ATOM     22  C   UNL     1       8.051   8.861  17.959  0.00  0.00    +0.000 A 
ATOM     23  C   UNL     1       8.909   8.901  19.075  0.00  0.00    +0.000 A 
ATOM     24  C   UNL     1       9.416  10.117  19.534  0.00  0.00    +0.000 A 
ATOM     25  C   UNL     1       9.087  11.288  18.865  0.00  0.00    +0.000 A 
ATOM     26  F   UNL     1       9.542  12.461  19.324  0.00  0.00    +0.000 F 
ATOM     27  C   UNL     1       8.272  11.264  17.736  0.00  0.00    +0.000 A 
ATOM     28  C   UNL     1       7.751  10.050  17.278  0.00  0.00    +0.000 A 
ENDBRANCH  19  22
ENDBRANCH   5  18
BRANCH   1  30
ATOM     29  N   UNL     1       7.879   5.176  13.753  0.00  0.00    +0.000 NA
ATOM     30  C   UNL     1       7.022   5.193  14.548  0.00  0.00    +0.000 C 
ENDBRANCH   1  30
TORSDOF 6
ENDMDL
MODEL 6
REMARK VINA RESULT:      -7.1      2.770      4.007
REMARK  Name = 
REMARK  6 active torsions:
REMARK  status: ('A' for Active; 'I' for Inactive)
REMARK    1  A    between atoms: C_2  and  C_3
REMARK    2  A    between atoms: N_6  and  C_7
REMARK    3  A    between atoms: C_10  and  N_11
REMARK    4  A    between atoms: C_15  and  N_16
REMARK    5  A    between atoms: C_19  and  N_20
REMARK    6  A    between atoms: C_21  and  C_23
REMARK                            x       y       z     vdW  Elec       q    Type
REMARK                         _______ _______ _______ _____ _____    ______ ____
ROOT
ATOM      1  C   UNL     1       4.207   4.319  17.110  0.00  0.00    +0.000 A 
ATOM      2  C   UNL     1       5.392   3.816  16.550  0.00  0.00    +0.000 A 
ATOM      3  N   UNL     1       6.378   4.704  16.566  0.00  0.00    +0.000 NA
ATOM      4  N   UNL     1       5.871   5.769  17.245  0.00  0.00    +0.000 N 
ATOM      5  C   UNL     1       4.502   5.616  17.493  0.00  0.00    +0.000 A 
ENDROOT
BRANCH   4   6
ATOM      6  C   UNL     1       6.787   6.775  17.655  0.00  0.00    +0.000 A 
ATOM      7  C   UNL     1       6.723   8.004  16.963  0.00  0.00    +0.000 A 
ATOM      8  C   UNL     1       7.531   9.077  17.332  0.00  0.00    +0.000 A 
ATOM      9  C   UNL     1       8.438   8.924  18.390  0.00  0.00    +0.000 A 
ATOM     10  C   UNL     1       8.563   7.698  19.056  0.00  0.00    +0.000 A 
ATOM     11  C   UNL     1       7.734   6.629  18.679  0.00  0.00    +0.000 A 
BRANCH   9  12
ATOM     12  N   UNL     1       9.270  10.059  18.797  0.00  0.00    +0.000 N 
ATOM     13  O   UNL     1       9.864  10.691  17.910  0.00  0.00    +0.000 OA
ATOM     14  O   UNL     1       9.326  10.320  20.007  0.00  0.00    +0.000 OA
ENDBRANCH   9  12
BRANCH  11  15
ATOM     15  N   UNL     1       8.028   5.347  19.298  0.00  0.00    +0.000 N 
ATOM     16  O   UNL     1       7.847   5.247  20.516  0.00  0.00    +0.000 OA
ATOM     17  O   UNL     1       8.440   4.447  18.558  0.00  0.00    +0.000 OA
ENDBRANCH  11  15
ENDBRANCH   4   6
BRANCH   5  18
ATOM     18  N   UNL     1       3.672   6.622  17.995  0.00  0.00    +0.000 N 
ATOM     19  C   UNL     1       3.081   6.490  19.247  0.00  0.00    +0.000 C 
ATOM     20  O   UNL     1       3.302   5.549  20.004  0.00  0.00    +0.000 OA
ATOM     21  H   UNL     1       3.484   7.432  17.408  0.00  0.00    +0.000 HD
BRANCH  19  22
ATOM     22  C   UNL     1       2.089   7.533  19.648  0.00  0.00    +0.000 A 
ATOM     23  C   UNL     1       1.807   8.548  18.715  0.00  0.00    +0.000 A 
ATOM     24  C   UNL     1       0.980   9.617  19.060  0.00  0.00    +0.000 A 
ATOM     25  C   UNL     1       0.416   9.659  20.328  0.00  0.00    +0.000 A 
ATOM     26  F   UNL     1      -0.349  10.702  20.676  0.00  0.00    +0.000 F 
ATOM     27  C   UNL     1       0.652   8.644  21.251  0.00  0.00    +0.000 A 
ATOM     28  C   UNL     1       1.489   7.576  20.915  0.00  0.00    +0.000 A 
ENDBRANCH  19  22
ENDBRANCH   5  18
BRANCH   1  30
ATOM     29  N   UNL     1       2.028   2.933  17.151  0.00  0.00    +0.000 NA
ATOM     30  C   UNL     1       2.984   3.604  17.088  0.00  0.00    +0.000 C 
ENDBRANCH   1  30
TORSDOF 6
ENDMDL
MODEL 7
REMARK VINA RESULT:      -7.0      2.778      3.892
REMARK  Name = 
REMARK  6 active torsions:
REMARK  status: ('A' for Active; 'I' for Inactive)
REMARK    1  A    between atoms: C_2  and  C_3
REMARK    2  A    between atoms: N_6  and  C_7
REMARK    3  A    between atoms: C_10  and  N_11
REMARK    4  A    between atoms: C_15  and  N_16
REMARK    5  A    between atoms: C_19  and  N_20
REMARK    6  A    between atoms: C_21  and  C_23
REMARK                            x       y       z     vdW  Elec       q    Type
REMARK                         _______ _______ _______ _____ _____    ______ ____
ROOT
ATOM      1  C   UNL     1       4.112   4.353  17.139  0.00  0.00    +0.000 A 
ATOM      2  C   UNL     1       5.290   3.813  16.599  0.00  0.00    +0.000 A 
ATOM      3  N   UNL     1       6.295   4.679  16.604  0.00  0.00    +0.000 NA
ATOM      4  N   UNL     1       5.806   5.770  17.256  0.00  0.00    +0.000 N 
ATOM      5  C   UNL     1       4.432   5.651  17.496  0.00  0.00    +0.000 A 
ENDROOT
BRANCH   4   6
ATOM      6  C   UNL     1       6.740   6.765  17.651  0.00  0.00    +0.000 A 
ATOM      7  C   UNL     1       6.678   7.995  16.962  0.00  0.00    +0.000 A 
ATOM      8  C   UNL     1       7.504   9.059  17.318  0.00  0.00    +0.000 A 
ATOM      9  C   UNL     1       8.427   8.894  18.360  0.00  0.00    +0.000 A 
ATOM     10  C   UNL     1       8.550   7.666  19.022  0.00  0.00    +0.000 A 
ATOM     11  C   UNL     1       7.702   6.607  18.658  0.00  0.00    +0.000 A 
BRANCH   9  12
ATOM     12  N   UNL     1       9.279  10.019  18.754  0.00  0.00    +0.000 N 
ATOM     13  O   UNL     1       9.811  10.687  17.854  0.00  0.00    +0.000 OA
ATOM     14  O   UNL     1       9.412  10.236  19.967  0.00  0.00    +0.000 OA
ENDBRANCH   9  12
BRANCH  11  15
ATOM     15  N   UNL     1       7.993   5.320  19.270  0.00  0.00    +0.000 N 
ATOM     16  O   UNL     1       8.468   4.439  18.545  0.00  0.00    +0.000 OA
ATOM     17  O   UNL     1       7.743   5.201  20.474  0.00  0.00    +0.000 OA
ENDBRANCH  11  15
ENDBRANCH   4   6
BRANCH   5  18
ATOM     18  N   UNL     1       3.620   6.686  17.969  0.00  0.00    +0.000 N 
ATOM     19  C   UNL     1       3.081   6.630  19.250  0.00  0.00    +0.000 C 
ATOM     20  O   UNL     1       3.336   5.737  20.053  0.00  0.00    +0.000 OA
ATOM     21  H   UNL     1       3.405   7.458  17.341  0.00  0.00    +0.000 HD
BRANCH  19  22
ATOM     22  C   UNL     1       2.103   7.694  19.627  0.00  0.00    +0.000 A 
ATOM     23  C   UNL     1       1.467   7.573  20.877  0.00  0.00    +0.000 A 
ATOM     24  C   UNL     1       0.459   8.464  21.247  0.00  0.00    +0.000 A 
ATOM     25  C   UNL     1       0.104   9.489  20.381  0.00  0.00    +0.000 A 
ATOM     26  F   UNL     1      -0.888  10.324  20.717  0.00  0.00    +0.000 F 
ATOM     27  C   UNL     1       0.749   9.649  19.157  0.00  0.00    +0.000 A 
ATOM     28  C   UNL     1       1.752   8.752  18.775  0.00  0.00    +0.000 A 
ENDBRANCH  19  22
ENDBRANCH   5  18
BRANCH   1  30
ATOM     29  N   UNL     1       1.814   3.174  17.200  0.00  0.00    +0.000 NA
ATOM     30  C   UNL     1       2.874   3.664  17.122  0.00  0.00    +0.000 C 
ENDBRANCH   1  30
TORSDOF 6
ENDMDL
MODEL 8
REMARK VINA RESULT:      -6.9      3.871      6.863
REMARK  Name = 
REMARK  6 active torsions:
REMARK  status: ('A' for Active; 'I' for Inactive)
REMARK    1  A    between atoms: C_2  and  C_3
REMARK    2  A    between atoms: N_6  and  C_7
REMARK    3  A    between atoms: C_10  and  N_11
REMARK    4  A    between atoms: C_15  and  N_16
REMARK    5  A    between atoms: C_19  and  N_20
REMARK    6  A    between atoms: C_21  and  C_23
REMARK                            x       y       z     vdW  Elec       q    Type
REMARK                         _______ _______ _______ _____ _____    ______ ____
ROOT
ATOM      1  C   UNL     1       5.906   5.526  15.629  0.00  0.00    +0.000 A 
ATOM      2  C   UNL     1       4.919   4.553  15.851  0.00  0.00    +0.000 A 
ATOM      3  N   UNL     1       4.071   4.898  16.812  0.00  0.00    +0.000 NA
ATOM      4  N   UNL     1       4.438   6.164  17.154  0.00  0.00    +0.000 N 
ATOM      5  C   UNL     1       5.634   6.539  16.532  0.00  0.00    +0.000 A 
ENDROOT
BRANCH   4   6
ATOM      6  C   UNL     1       3.543   6.900  17.977  0.00  0.00    +0.000 A 
ATOM      7  C   UNL     1       3.106   8.145  17.476  0.00  0.00    +0.000 A 
ATOM      8  C   UNL     1       2.176   8.912  18.174  0.00  0.00    +0.000 A 
ATOM      9  C   UNL     1       1.688   8.451  19.404  0.00  0.00    +0.000 A 
ATOM     10  C   UNL     1       2.148   7.247  19.953  0.00  0.00    +0.000 A 
ATOM     11  C   UNL     1       3.077   6.480  19.232  0.00  0.00    +0.000 A 
BRANCH   9  12
ATOM     12  N   UNL     1       0.691   9.243  20.128  0.00  0.00    +0.000 N 
ATOM     13  O   UNL     1       0.849   9.399  21.349  0.00  0.00    +0.000 OA
ATOM     14  O   UNL     1      -0.249   9.714  19.473  0.00  0.00    +0.000 OA
ENDBRANCH   9  12
BRANCH  11  15
ATOM     15  N   UNL     1       3.632   5.331  19.929  0.00  0.00    +0.000 N 
ATOM     16  O   UNL     1       4.861   5.207  19.936  0.00  0.00    +0.000 OA
ATOM     17  O   UNL     1       2.830   4.558  20.466  0.00  0.00    +0.000 OA
ENDBRANCH  11  15
ENDBRANCH   4   6
BRANCH   5  18
ATOM     18  N   UNL     1       6.355   7.697  16.838  0.00  0.00    +0.000 N 
ATOM     19  C   UNL     1       7.437   7.643  17.710  0.00  0.00    +0.000 C 
ATOM     20  O   UNL     1       7.867   6.600  18.193  0.00  0.00    +0.000 OA
ATOM     21  H   UNL     1       6.046   8.579  16.437  0.00  0.00    +0.000 HD
BRANCH  19  22
ATOM     22  C   UNL     1       8.060   8.942  18.106  0.00  0.00    +0.000 A 
ATOM     23  C   UNL     1       7.719  10.079  17.349  0.00  0.00    +0.000 A 
ATOM     24  C   UNL     1       8.347  11.302  17.586  0.00  0.00    +0.000 A 
ATOM     25  C   UNL     1       9.297  11.395  18.594  0.00  0.00    +0.000 A 
ATOM     26  F   UNL     1       9.928  12.558  18.801  0.00  0.00    +0.000 F 
ATOM     27  C   UNL     1       9.619  10.292  19.380  0.00  0.00    +0.000 A 
ATOM     28  C   UNL     1       9.001   9.060  19.139  0.00  0.00    +0.000 A 
ENDBRANCH  19  22
ENDBRANCH   5  18
BRANCH   1  30
ATOM     29  N   UNL     1       7.838   5.244  13.938  0.00  0.00    +0.000 NA
ATOM     30  C   UNL     1       6.996   5.326  14.746  0.00  0.00    +0.000 C 
ENDBRANCH   1  30
TORSDOF 6
ENDMDL
MODEL 9
REMARK VINA RESULT:      -6.8      5.182      8.519
REMARK  Name = 
REMARK  6 active torsions:
REMARK  status: ('A' for Active; 'I' for Inactive)
REMARK    1  A    between atoms: C_2  and  C_3
REMARK    2  A    between atoms: N_6  and  C_7
REMARK    3  A    between atoms: C_10  and  N_11
REMARK    4  A    between atoms: C_15  and  N_16
REMARK    5  A    between atoms: C_19  and  N_20
REMARK    6  A    between atoms: C_21  and  C_23
REMARK                            x       y       z     vdW  Elec       q    Type
REMARK                         _______ _______ _______ _____ _____    ______ ____
ROOT
ATOM      1  C   UNL     1       0.547  13.598  19.694  0.00  0.00    +0.000 A 
ATOM      2  C   UNL     1       1.351  13.377  20.823  0.00  0.00    +0.000 A 
ATOM      3  N   UNL     1       1.596  12.089  21.030  0.00  0.00    +0.000 NA
ATOM      4  N   UNL     1       1.038  11.458  19.960  0.00  0.00    +0.000 N 
ATOM      5  C   UNL     1       0.284  12.341  19.178  0.00  0.00    +0.000 A 
ENDROOT
BRANCH   4   6
ATOM      6  C   UNL     1       1.370  10.090  19.766  0.00  0.00    +0.000 A 
ATOM      7  C   UNL     1       1.797   9.723  18.472  0.00  0.00    +0.000 A 
ATOM      8  C   UNL     1       2.210   8.421  18.196  0.00  0.00    +0.000 A 
ATOM      9  C   UNL     1       2.175   7.458  19.213  0.00  0.00    +0.000 A 
ATOM     10  C   UNL     1       1.701   7.781  20.492  0.00  0.00    +0.000 A 
ATOM     11  C   UNL     1       1.299   9.100  20.757  0.00  0.00    +0.000 A 
BRANCH   9  12
ATOM     12  N   UNL     1       2.633   6.095  18.933  0.00  0.00    +0.000 N 
ATOM     13  O   UNL     1       1.889   5.155  19.254  0.00  0.00    +0.000 OA
ATOM     14  O   UNL     1       3.737   5.965  18.387  0.00  0.00    +0.000 OA
ENDBRANCH   9  12
BRANCH  11  15
ATOM     15  N   UNL     1       0.669   9.325  22.048  0.00  0.00    +0.000 N 
ATOM     16  O   UNL     1       1.410   9.516  23.018  0.00  0.00    +0.000 OA
ATOM     17  O   UNL     1      -0.566   9.309  22.081  0.00  0.00    +0.000 OA
ENDBRANCH  11  15
ENDBRANCH   4   6
BRANCH   5  18
ATOM     18  N   UNL     1      -0.558  11.949  18.133  0.00  0.00    +0.000 N 
ATOM     19  C   UNL     1      -1.899  11.668  18.376  0.00  0.00    +0.000 C 
ATOM     20  O   UNL     1      -2.434  11.814  19.470  0.00  0.00    +0.000 OA
ATOM     21  H   UNL     1      -0.157  11.840  17.205  0.00  0.00    +0.000 HD
BRANCH  19  22
ATOM     22  C   UNL     1      -2.695  11.110  17.241  0.00  0.00    +0.000 A 
ATOM     23  C   UNL     1      -2.068  10.154  16.421  0.00  0.00    +0.000 A 
ATOM     24  C   UNL     1      -2.706   9.674  15.277  0.00  0.00    +0.000 A 
ATOM     25  C   UNL     1      -3.980  10.130  14.967  0.00  0.00    +0.000 A 
ATOM     26  F   UNL     1      -4.582   9.700  13.851  0.00  0.00    +0.000 F 
ATOM     27  C   UNL     1      -4.633  11.046  15.788  0.00  0.00    +0.000 A 
ATOM     28  C   UNL     1      -3.993  11.539  16.929  0.00  0.00    +0.000 A 
ENDBRANCH  19  22
ENDBRANCH   5  18
BRANCH   1  30
ATOM     29  N   UNL     1      -0.345  15.966  19.179  0.00  0.00    +0.000 NA
ATOM     30  C   UNL     1       0.046  14.877  19.346  0.00  0.00    +0.000 C 
ENDBRANCH   1  30
TORSDOF 6
ENDMDL
