MODEL 1
REMARK VINA RESULT:      -6.7      0.000      0.000
REMARK  Name = 
REMARK  4 active torsions:
REMARK  status: ('A' for Active; 'I' for Inactive)
REMARK    1  A    between atoms: S_2  and  C_4
REMARK    2  A    between atoms: S_2  and  N_13
REMARK    3  A    between atoms: C_4  and  C_5
REMARK    4  A    between atoms: N_13  and  C_14
REMARK                            x       y       z     vdW  Elec       q    Type
REMARK                         _______ _______ _______ _____ _____    ______ ____
ROOT
ATOM      1  O   UNL     1       2.513   1.741  18.918  0.00  0.00    +0.000 OA
ATOM      2  S   UNL     1       3.727   2.505  19.115  0.00  0.00    +0.000 S 
ATOM      3  O   UNL     1       4.769   2.080  20.025  0.00  0.00    +0.000 OA
ENDROOT
BRANCH   2   4
ATOM      4  N   UNL     1       3.246   4.058  19.589  0.00  0.00    +0.000 NA
ATOM      5  H   UNL     1       3.913   4.797  19.345  0.00  0.00    +0.000 HD
BRANCH   4   6
ATOM      6  C   UNL     1       1.859   4.526  19.278  0.00  0.00    +0.000 C 
ATOM      7  C   UNL     1       1.831   5.496  18.090  0.00  0.00    +0.000 C 
ATOM      8  C   UNL     1       2.527   6.828  18.395  0.00  0.00    +0.000 C 
ATOM      9  C   UNL     1       2.092   7.434  19.729  0.00  0.00    +0.000 C 
ATOM     10  N   UNL     1       2.178   6.465  20.824  0.00  0.00    +0.000 NA
ATOM     11  C   UNL     1       1.341   5.281  20.530  0.00  0.00    +0.000 C 
ATOM     12  H   UNL     1       1.832   6.903  21.679  0.00  0.00    +0.000 HD
ENDBRANCH   4   6
ENDBRANCH   2   4
BRANCH   2  13
ATOM     13  C   UNL     1       4.448   2.884  17.516  0.00  0.00    +0.000 C 
BRANCH  13  14
ATOM     14  C   UNL     1       5.150   4.224  17.450  0.00  0.00    +0.000 A 
ATOM     15  C   UNL     1       4.995   5.108  16.371  0.00  0.00    +0.000 A 
ATOM     16  C   UNL     1       5.817   6.237  16.251  0.00  0.00    +0.000 A 
ATOM     17  C   UNL     1       6.802   6.491  17.203  0.00  0.00    +0.000 A 
ATOM     18  F   UNL     1       7.614   7.545  17.034  0.00  0.00    +0.000 F 
ATOM     19  C   UNL     1       6.952   5.643  18.294  0.00  0.00    +0.000 A 
ATOM     20 CL   UNL     1       8.187   5.925  19.463  0.00  0.00    +0.000 Cl
ATOM     21  C   UNL     1       6.128   4.523  18.422  0.00  0.00    +0.000 A 
ENDBRANCH  13  14
ENDBRANCH   2  13
TORSDOF 4
ENDMDL
MODEL 2
REMARK VINA RESULT:      -6.7      4.005      4.970
REMARK  Name = 
REMARK  4 active torsions:
REMARK  status: ('A' for Active; 'I' for Inactive)
REMARK    1  A    between atoms: S_2  and  C_4
REMARK    2  A    between atoms: S_2  and  N_13
REMARK    3  A    between atoms: C_4  and  C_5
REMARK    4  A    between atoms: N_13  and  C_14
REMARK                            x       y       z     vdW  Elec       q    Type
REMARK                         _______ _______ _______ _____ _____    ______ ____
ROOT
ATOM      1  O   UNL     1       7.915   4.378  17.115  0.00  0.00    +0.000 OA
ATOM      2  S   UNL     1       6.631   4.947  17.468  0.00  0.00    +0.000 S 
ATOM      3  O   UNL     1       6.487   5.944  18.507  0.00  0.00    +0.000 OA
ENDROOT
BRANCH   2   4
ATOM      4  N   UNL     1       5.624   3.646  17.874  0.00  0.00    +0.000 NA
ATOM      5  H   UNL     1       6.116   2.755  17.991  0.00  0.00    +0.000 HD
BRANCH   4   6
ATOM      6  C   UNL     1       4.625   3.806  18.976  0.00  0.00    +0.000 C 
ATOM      7  C   UNL     1       4.215   2.456  19.581  0.00  0.00    +0.000 C 
ATOM      8  C   UNL     1       3.430   1.579  18.598  0.00  0.00    +0.000 C 
ATOM      9  C   UNL     1       2.303   2.336  17.896  0.00  0.00    +0.000 C 
ATOM     10  N   UNL     1       2.772   3.594  17.311  0.00  0.00    +0.000 NA
ATOM     11  C   UNL     1       3.363   4.459  18.356  0.00  0.00    +0.000 C 
ATOM     12  H   UNL     1       1.975   4.082  16.898  0.00  0.00    +0.000 HD
ENDBRANCH   4   6
ENDBRANCH   2   4
BRANCH   2  13
ATOM     13  C   UNL     1       5.811   5.514  15.976  0.00  0.00    +0.000 C 
BRANCH  13  14
ATOM     14  C   UNL     1       6.405   4.972  14.693  0.00  0.00    +0.000 A 
ATOM     15  C   UNL     1       7.566   5.504  14.112  0.00  0.00    +0.000 A 
ATOM     16  C   UNL     1       7.962   5.113  12.825  0.00  0.00    +0.000 A 
ATOM     17  C   UNL     1       7.202   4.192  12.107  0.00  0.00    +0.000 A 
ATOM     18  F   UNL     1       7.571   3.880  10.856  0.00  0.00    +0.000 F 
ATOM     19  C   UNL     1       6.065   3.633  12.676  0.00  0.00    +0.000 A 
ATOM     20 CL   UNL     1       5.095   2.517  11.790  0.00  0.00    +0.000 Cl
ATOM     21  C   UNL     1       5.673   4.012  13.962  0.00  0.00    +0.000 A 
ENDBRANCH  13  14
ENDBRANCH   2  13
TORSDOF 4
ENDMDL
MODEL 3
REMARK VINA RESULT:      -6.6      3.468      4.161
REMARK  Name = 
REMARK  4 active torsions:
REMARK  status: ('A' for Active; 'I' for Inactive)
REMARK    1  A    between atoms: S_2  and  C_4
REMARK    2  A    between atoms: S_2  and  N_13
REMARK    3  A    between atoms: C_4  and  C_5
REMARK    4  A    between atoms: N_13  and  C_14
REMARK                            x       y       z     vdW  Elec       q    Type
REMARK                         _______ _______ _______ _____ _____    ______ ____
ROOT
ATOM      1  O   UNL     1       6.779   4.426  18.560  0.00  0.00    +0.000 OA
ATOM      2  S   UNL     1       5.510   4.960  18.114  0.00  0.00    +0.000 S 
ATOM      3  O   UNL     1       5.318   6.368  17.835  0.00  0.00    +0.000 OA
ENDROOT
BRANCH   2   4
ATOM      4  N   UNL     1       4.365   4.517  19.282  0.00  0.00    +0.000 NA
ATOM      5  H   UNL     1       4.105   5.274  19.923  0.00  0.00    +0.000 HD
BRANCH   4   6
ATOM      6  C   UNL     1       3.130   3.784  18.861  0.00  0.00    +0.000 C 
ATOM      7  C   UNL     1       1.852   4.535  19.255  0.00  0.00    +0.000 C 
ATOM      8  C   UNL     1       1.648   4.604  20.773  0.00  0.00    +0.000 C 
ATOM      9  C   UNL     1       1.836   3.252  21.460  0.00  0.00    +0.000 C 
ATOM     10  N   UNL     1       3.091   2.609  21.068  0.00  0.00    +0.000 NA
ATOM     11  C   UNL     1       3.136   2.421  19.601  0.00  0.00    +0.000 C 
ATOM     12  H   UNL     1       3.144   1.692  21.514  0.00  0.00    +0.000 HD
ENDBRANCH   4   6
ENDBRANCH   2   4
BRANCH   2  13
ATOM     13  C   UNL     1       4.919   3.989  16.725  0.00  0.00    +0.000 C 
BRANCH  13  14
ATOM     14  C   UNL     1       5.775   4.097  15.481  0.00  0.00    +0.000 A 
ATOM     15  C   UNL     1       6.897   4.937  15.403  0.00  0.00    +0.000 A 
ATOM     16  C   UNL     1       7.534   5.163  14.175  0.00  0.00    +0.000 A 
ATOM     17  C   UNL     1       7.055   4.558  13.015  0.00  0.00    +0.000 A 
ATOM     18  F   UNL     1       7.647   4.837  11.844  0.00  0.00    +0.000 F 
ATOM     19  C   UNL     1       5.963   3.701  13.076  0.00  0.00    +0.000 A 
ATOM     20 CL   UNL     1       5.338   2.970  11.645  0.00  0.00    +0.000 Cl
ATOM     21  C   UNL     1       5.332   3.465  14.299  0.00  0.00    +0.000 A 
ENDBRANCH  13  14
ENDBRANCH   2  13
TORSDOF 4
ENDMDL
MODEL 4
REMARK VINA RESULT:      -6.6      1.393      1.629
REMARK  Name = 
REMARK  4 active torsions:
REMARK  status: ('A' for Active; 'I' for Inactive)
REMARK    1  A    between atoms: S_2  and  C_4
REMARK    2  A    between atoms: S_2  and  N_13
REMARK    3  A    between atoms: C_4  and  C_5
REMARK    4  A    between atoms: N_13  and  C_14
REMARK                            x       y       z     vdW  Elec       q    Type
REMARK                         _______ _______ _______ _____ _____    ______ ____
ROOT
ATOM      1  O   UNL     1       1.839   2.152  19.748  0.00  0.00    +0.000 OA
ATOM      2  S   UNL     1       2.854   2.725  20.607  0.00  0.00    +0.000 S 
ATOM      3  O   UNL     1       2.940   2.413  22.018  0.00  0.00    +0.000 OA
ENDROOT
BRANCH   2   4
ATOM      4  N   UNL     1       2.705   4.407  20.471  0.00  0.00    +0.000 NA
ATOM      5  H   UNL     1       3.520   4.868  20.054  0.00  0.00    +0.000 HD
BRANCH   4   6
ATOM      6  C   UNL     1       1.458   4.990  19.885  0.00  0.00    +0.000 C 
ATOM      7  C   UNL     1       1.641   5.381  18.412  0.00  0.00    +0.000 C 
ATOM      8  C   UNL     1       2.624   6.543  18.225  0.00  0.00    +0.000 C 
ATOM      9  C   UNL     1       2.349   7.712  19.170  0.00  0.00    +0.000 C 
ATOM     10  N   UNL     1       2.221   7.273  20.561  0.00  0.00    +0.000 NA
ATOM     11  C   UNL     1       1.135   6.276  20.689  0.00  0.00    +0.000 C 
ATOM     12  H   UNL     1       1.991   8.081  21.141  0.00  0.00    +0.000 HD
ENDBRANCH   4   6
ENDBRANCH   2   4
BRANCH   2  13
ATOM     13  C   UNL     1       4.463   2.499  19.846  0.00  0.00    +0.000 C 
BRANCH  13  14
ATOM     14  C   UNL     1       4.757   3.459  18.712  0.00  0.00    +0.000 A 
ATOM     15  C   UNL     1       4.262   3.271  17.412  0.00  0.00    +0.000 A 
ATOM     16  C   UNL     1       4.725   4.063  16.352  0.00  0.00    +0.000 A 
ATOM     17  C   UNL     1       5.686   5.045  16.579  0.00  0.00    +0.000 A 
ATOM     18  F   UNL     1       6.155   5.750  15.538  0.00  0.00    +0.000 F 
ATOM     19  C   UNL     1       6.168   5.266  17.863  0.00  0.00    +0.000 A 
ATOM     20 CL   UNL     1       7.381   6.455  18.156  0.00  0.00    +0.000 Cl
ATOM     21  C   UNL     1       5.702   4.486  18.924  0.00  0.00    +0.000 A 
ENDBRANCH  13  14
ENDBRANCH   2  13
TORSDOF 4
ENDMDL
MODEL 5
REMARK VINA RESULT:      -6.6      3.379      4.307
REMARK  Name = 
REMARK  4 active torsions:
REMARK  status: ('A' for Active; 'I' for Inactive)
REMARK    1  A    between atoms: S_2  and  C_4
REMARK    2  A    between atoms: S_2  and  N_13
REMARK    3  A    between atoms: C_4  and  C_5
REMARK    4  A    between atoms: N_13  and  C_14
REMARK                            x       y       z     vdW  Elec       q    Type
REMARK                         _______ _______ _______ _____ _____    ______ ____
ROOT
ATOM      1  O   UNL     1       7.991   4.315  17.983  0.00  0.00    +0.000 OA
ATOM      2  S   UNL     1       6.746   4.843  18.500  0.00  0.00    +0.000 S 
ATOM      3  O   UNL     1       6.654   5.480  19.796  0.00  0.00    +0.000 OA
ENDROOT
BRANCH   2   4
ATOM      4  N   UNL     1       5.638   3.561  18.489  0.00  0.00    +0.000 NA
ATOM      5  H   UNL     1       6.068   2.636  18.383  0.00  0.00    +0.000 HD
BRANCH   4   6
ATOM      6  C   UNL     1       4.580   3.493  19.544  0.00  0.00    +0.000 C 
ATOM      7  C   UNL     1       4.065   2.063  19.753  0.00  0.00    +0.000 C 
ATOM      8  C   UNL     1       3.301   1.524  18.538  0.00  0.00    +0.000 C 
ATOM      9  C   UNL     1       2.261   2.510  18.005  0.00  0.00    +0.000 C 
ATOM     10  N   UNL     1       2.829   3.843  17.795  0.00  0.00    +0.000 NA
ATOM     11  C   UNL     1       3.395   4.366  19.058  0.00  0.00    +0.000 C 
ATOM     12  H   UNL     1       2.086   4.472  17.487  0.00  0.00    +0.000 HD
ENDBRANCH   4   6
ENDBRANCH   2   4
BRANCH   2  13
ATOM     13  C   UNL     1       5.998   5.901  17.258  0.00  0.00    +0.000 C 
BRANCH  13  14
ATOM     14  C   UNL     1       6.061   5.350  15.849  0.00  0.00    +0.000 A 
ATOM     15  C   UNL     1       5.242   4.297  15.410  0.00  0.00    +0.000 A 
ATOM     16  C   UNL     1       5.475   3.683  14.172  0.00  0.00    +0.000 A 
ATOM     17  C   UNL     1       6.527   4.109  13.364  0.00  0.00    +0.000 A 
ATOM     18  F   UNL     1       6.764   3.466  12.212  0.00  0.00    +0.000 F 
ATOM     19  C   UNL     1       7.331   5.168  13.768  0.00  0.00    +0.000 A 
ATOM     20 CL   UNL     1       8.657   5.687  12.796  0.00  0.00    +0.000 Cl
ATOM     21  C   UNL     1       7.096   5.790  14.997  0.00  0.00    +0.000 A 
ENDBRANCH  13  14
ENDBRANCH   2  13
TORSDOF 4
ENDMDL
MODEL 6
REMARK VINA RESULT:      -6.5      3.699      5.013
REMARK  Name = 
REMARK  4 active torsions:
REMARK  status: ('A' for Active; 'I' for Inactive)
REMARK    1  A    between atoms: S_2  and  C_4
REMARK    2  A    between atoms: S_2  and  N_13
REMARK    3  A    between atoms: C_4  and  C_5
REMARK    4  A    between atoms: N_13  and  C_14
REMARK                            x       y       z     vdW  Elec       q    Type
REMARK                         _______ _______ _______ _____ _____    ______ ____
ROOT
ATOM      1  O   UNL     1       1.694   4.910  17.613  0.00  0.00    +0.000 OA
ATOM      2  S   UNL     1       3.131   4.878  17.778  0.00  0.00    +0.000 S 
ATOM      3  O   UNL     1       4.006   4.230  16.824  0.00  0.00    +0.000 OA
ENDROOT
BRANCH   2   4
ATOM      4  N   UNL     1       3.426   4.174  19.291  0.00  0.00    +0.000 NA
ATOM      5  H   UNL     1       2.970   4.654  20.074  0.00  0.00    +0.000 HD
BRANCH   4   6
ATOM      6  C   UNL     1       3.263   2.696  19.459  0.00  0.00    +0.000 C 
ATOM      7  C   UNL     1       1.820   2.243  19.203  0.00  0.00    +0.000 C 
ATOM      8  C   UNL     1       0.837   2.767  20.257  0.00  0.00    +0.000 C 
ATOM      9  C   UNL     1       1.332   2.556  21.688  0.00  0.00    +0.000 C 
ATOM     10  N   UNL     1       2.701   3.044  21.870  0.00  0.00    +0.000 NA
ATOM     11  C   UNL     1       3.619   2.363  20.931  0.00  0.00    +0.000 C 
ATOM     12  H   UNL     1       3.000   2.836  22.824  0.00  0.00    +0.000 HD
ENDBRANCH   4   6
ENDBRANCH   2   4
BRANCH   2  13
ATOM     13  C   UNL     1       3.722   6.542  18.097  0.00  0.00    +0.000 C 
BRANCH  13  14
ATOM     14  C   UNL     1       2.636   7.527  18.477  0.00  0.00    +0.000 A 
ATOM     15  C   UNL     1       2.181   8.528  17.604  0.00  0.00    +0.000 A 
ATOM     16  C   UNL     1       1.330   9.542  18.064  0.00  0.00    +0.000 A 
ATOM     17  C   UNL     1       0.928   9.568  19.398  0.00  0.00    +0.000 A 
ATOM     18  F   UNL     1       0.161  10.581  19.826  0.00  0.00    +0.000 F 
ATOM     19  C   UNL     1       1.345   8.571  20.271  0.00  0.00    +0.000 A 
ATOM     20 CL   UNL     1       0.885   8.607  21.932  0.00  0.00    +0.000 Cl
ATOM     21  C   UNL     1       2.186   7.553  19.814  0.00  0.00    +0.000 A 
ENDBRANCH  13  14
ENDBRANCH   2  13
TORSDOF 4
ENDMDL
MODEL 7
REMARK VINA RESULT:      -6.5      2.991      3.682
REMARK  Name = 
REMARK  4 active torsions:
REMARK  status: ('A' for Active; 'I' for Inactive)
REMARK    1  A    between atoms: S_2  and  C_4
REMARK    2  A    between atoms: S_2  and  N_13
REMARK    3  A    between atoms: C_4  and  C_5
REMARK    4  A    between atoms: N_13  and  C_14
REMARK                            x       y       z     vdW  Elec       q    Type
REMARK                         _______ _______ _______ _____ _____    ______ ____
ROOT
ATOM      1  O   UNL     1       5.650   3.311  19.162  0.00  0.00    +0.000 OA
ATOM      2  S   UNL     1       4.902   4.550  19.123  0.00  0.00    +0.000 S 
ATOM      3  O   UNL     1       5.434   5.792  19.642  0.00  0.00    +0.000 OA
ENDROOT
BRANCH   2   4
ATOM      4  N   UNL     1       3.439   4.254  19.925  0.00  0.00    +0.000 NA
ATOM      5  H   UNL     1       2.623   4.689  19.483  0.00  0.00    +0.000 HD
BRANCH   4   6
ATOM      6  C   UNL     1       3.092   2.856  20.331  0.00  0.00    +0.000 C 
ATOM      7  C   UNL     1       2.899   1.935  19.119  0.00  0.00    +0.000 C 
ATOM      8  C   UNL     1       1.671   2.309  18.280  0.00  0.00    +0.000 C 
ATOM      9  C   UNL     1       0.417   2.529  19.126  0.00  0.00    +0.000 C 
ATOM     10  N   UNL     1       0.664   3.445  20.242  0.00  0.00    +0.000 NA
ATOM     11  C   UNL     1       1.749   2.926  21.103  0.00  0.00    +0.000 C 
ATOM     12  H   UNL     1      -0.187   3.519  20.801  0.00  0.00    +0.000 HD
ENDBRANCH   4   6
ENDBRANCH   2   4
BRANCH   2  13
ATOM     13  C   UNL     1       4.288   4.812  17.457  0.00  0.00    +0.000 C 
BRANCH  13  14
ATOM     14  C   UNL     1       5.355   4.754  16.383  0.00  0.00    +0.000 A 
ATOM     15  C   UNL     1       6.555   5.477  16.468  0.00  0.00    +0.000 A 
ATOM     16  C   UNL     1       7.417   5.559  15.366  0.00  0.00    +0.000 A 
ATOM     17  C   UNL     1       7.088   4.924  14.170  0.00  0.00    +0.000 A 
ATOM     18  F   UNL     1       7.901   5.066  13.113  0.00  0.00    +0.000 F 
ATOM     19  C   UNL     1       5.918   4.180  14.075  0.00  0.00    +0.000 A 
ATOM     20 CL   UNL     1       5.480   3.416  12.593  0.00  0.00    +0.000 Cl
ATOM     21  C   UNL     1       5.062   4.088  15.175  0.00  0.00    +0.000 A 
ENDBRANCH  13  14
ENDBRANCH   2  13
TORSDOF 4
ENDMDL
MODEL 8
REMARK VINA RESULT:      -6.4      3.741      5.551
REMARK  Name = 
REMARK  4 active torsions:
REMARK  status: ('A' for Active; 'I' for Inactive)
REMARK    1  A    between atoms: S_2  and  C_4
REMARK    2  A    between atoms: S_2  and  N_13
REMARK    3  A    between atoms: C_4  and  C_5
REMARK    4  A    between atoms: N_13  and  C_14
REMARK                            x       y       z     vdW  Elec       q    Type
REMARK                         _______ _______ _______ _____ _____    ______ ____
ROOT
ATOM      1  O   UNL     1       2.739   7.954  17.187  0.00  0.00    +0.000 OA
ATOM      2  S   UNL     1       2.920   6.977  18.240  0.00  0.00    +0.000 S 
ATOM      3  O   UNL     1       2.621   7.269  19.626  0.00  0.00    +0.000 OA
ENDROOT
BRANCH   2   4
ATOM      4  N   UNL     1       4.540   6.486  18.166  0.00  0.00    +0.000 NA
ATOM      5  H   UNL     1       4.699   5.517  18.461  0.00  0.00    +0.000 HD
BRANCH   4   6
ATOM      6  C   UNL     1       5.336   6.760  16.930  0.00  0.00    +0.000 C 
ATOM      7  C   UNL     1       5.236   5.614  15.914  0.00  0.00    +0.000 C 
ATOM      8  C   UNL     1       5.899   4.323  16.409  0.00  0.00    +0.000 C 
ATOM      9  C   UNL     1       7.298   4.554  16.980  0.00  0.00    +0.000 C 
ATOM     10  N   UNL     1       7.313   5.636  17.967  0.00  0.00    +0.000 NA
ATOM     11  C   UNL     1       6.819   6.892  17.362  0.00  0.00    +0.000 C 
ATOM     12  H   UNL     1       8.275   5.782  18.280  0.00  0.00    +0.000 HD
ENDBRANCH   4   6
ENDBRANCH   2   4
BRANCH   2  13
ATOM     13  C   UNL     1       2.115   5.445  17.765  0.00  0.00    +0.000 C 
BRANCH  13  14
ATOM     14  C   UNL     1       2.092   4.390  18.850  0.00  0.00    +0.000 A 
ATOM     15  C   UNL     1       1.041   4.276  19.774  0.00  0.00    +0.000 A 
ATOM     16  C   UNL     1       1.157   3.427  20.883  0.00  0.00    +0.000 A 
ATOM     17  C   UNL     1       2.321   2.687  21.082  0.00  0.00    +0.000 A 
ATOM     18  F   UNL     1       2.429   1.927  22.181  0.00  0.00    +0.000 F 
ATOM     19  C   UNL     1       3.361   2.765  20.164  0.00  0.00    +0.000 A 
ATOM     20 CL   UNL     1       4.821   1.883  20.411  0.00  0.00    +0.000 Cl
ATOM     21  C   UNL     1       3.245   3.603  19.052  0.00  0.00    +0.000 A 
ENDBRANCH  13  14
ENDBRANCH   2  13
TORSDOF 4
ENDMDL
MODEL 9
REMARK VINA RESULT:      -6.4      3.934      4.536
REMARK  Name = 
REMARK  4 active torsions:
REMARK  status: ('A' for Active; 'I' for Inactive)
REMARK    1  A    between atoms: S_2  and  C_4
REMARK    2  A    between atoms: S_2  and  N_13
REMARK    3  A    between atoms: C_4  and  C_5
REMARK    4  A    between atoms: N_13  and  C_14
REMARK                            x       y       z     vdW  Elec       q    Type
REMARK                         _______ _______ _______ _____ _____    ______ ____
ROOT
ATOM      1  O   UNL     1       6.553   6.534  17.901  0.00  0.00    +0.000 OA
ATOM      2  S   UNL     1       5.558   5.810  17.138  0.00  0.00    +0.000 S 
ATOM      3  O   UNL     1       4.801   6.428  16.070  0.00  0.00    +0.000 OA
ENDROOT
BRANCH   2   4
ATOM      4  N   UNL     1       4.444   5.199  18.259  0.00  0.00    +0.000 NA
ATOM      5  H   UNL     1       3.615   5.788  18.390  0.00  0.00    +0.000 HD
BRANCH   4   6
ATOM      6  C   UNL     1       4.020   3.767  18.170  0.00  0.00    +0.000 C 
ATOM      7  C   UNL     1       2.775   3.588  17.292  0.00  0.00    +0.000 C 
ATOM      8  C   UNL     1       1.522   4.226  17.903  0.00  0.00    +0.000 C 
ATOM      9  C   UNL     1       1.327   3.863  19.375  0.00  0.00    +0.000 C 
ATOM     10  N   UNL     1       2.542   4.093  20.160  0.00  0.00    +0.000 NA
ATOM     11  C   UNL     1       3.667   3.307  19.608  0.00  0.00    +0.000 C 
ATOM     12  H   UNL     1       2.374   3.790  21.120  0.00  0.00    +0.000 HD
ENDBRANCH   4   6
ENDBRANCH   2   4
BRANCH   2  13
ATOM     13  C   UNL     1       6.274   4.272  16.552  0.00  0.00    +0.000 C 
BRANCH  13  14
ATOM     14  C   UNL     1       6.682   4.291  15.094  0.00  0.00    +0.000 A 
ATOM     15  C   UNL     1       7.727   5.093  14.610  0.00  0.00    +0.000 A 
ATOM     16  C   UNL     1       7.935   5.237  13.231  0.00  0.00    +0.000 A 
ATOM     17  C   UNL     1       7.101   4.586  12.325  0.00  0.00    +0.000 A 
ATOM     18  F   UNL     1       7.285   4.787  11.011  0.00  0.00    +0.000 F 
ATOM     19  C   UNL     1       6.079   3.765  12.784  0.00  0.00    +0.000 A 
ATOM     20 CL   UNL     1       5.018   2.978  11.676  0.00  0.00    +0.000 Cl
ATOM     21  C   UNL     1       5.875   3.611  14.157  0.00  0.00    +0.000 A 
ENDBRANCH  13  14
ENDBRANCH   2  13
TORSDOF 4
ENDMDL
