MODEL 1
REMARK VINA RESULT:      -7.3      0.000      0.000
REMARK  Name = 
REMARK  9 active torsions:
REMARK  status: ('A' for Active; 'I' for Inactive)
REMARK    1  A    between atoms: C_1  and  O_2
REMARK    2  A    between atoms: O_2  and  C_3
REMARK    3  A    between atoms: C_6  and  N_7
REMARK    4  A    between atoms: N_7  and  C_8
REMARK    5  A    between atoms: C_8  and  N_10
REMARK    6  A    between atoms: N_13  and  C_14
REMARK    7  A    between atoms: C_17  and  N_18
REMARK    8  A    between atoms: C_26  and  O_27
REMARK    9  A    between atoms: O_27  and  C_28
REMARK                            x       y       z     vdW  Elec       q    Type
REMARK                         _______ _______ _______ _____ _____    ______ ____
ROOT
ATOM      1  N   UNL     1       2.566   6.294  19.506  0.00  0.00    +0.000 N 
ATOM      2  C   UNL     1       1.720   6.550  20.694  0.00  0.00    +0.000 C 
ATOM      3  C   UNL     1       1.632   8.044  21.055  0.00  0.00    +0.000 C 
ATOM      4  N   UNL     1       1.236   8.811  19.866  0.00  0.00    +0.000 N 
ATOM      5  C   UNL     1       2.114   8.617  18.699  0.00  0.00    +0.000 C 
ATOM      6  C   UNL     1       2.190   7.124  18.343  0.00  0.00    +0.000 C 
ENDROOT
BRANCH   4   7
ATOM      7  C   UNL     1       0.328   9.846  19.916  0.00  0.00    +0.000 A 
ATOM      8  C   UNL     1       0.134  10.617  21.074  0.00  0.00    +0.000 A 
ATOM      9  C   UNL     1      -0.834  11.628  21.134  0.00  0.00    +0.000 A 
ATOM     10  C   UNL     1      -1.636  11.879  20.019  0.00  0.00    +0.000 A 
ATOM     11  C   UNL     1      -1.468  11.134  18.850  0.00  0.00    +0.000 A 
ATOM     12  C   UNL     1      -0.491  10.133  18.811  0.00  0.00    +0.000 A 
BRANCH  10  13
ATOM     13  N   UNL     1      -2.666  12.920  20.076  0.00  0.00    +0.000 N 
ATOM     14  O   UNL     1      -3.807  12.626  19.691  0.00  0.00    +0.000 OA
ATOM     15  O   UNL     1      -2.334  14.034  20.502  0.00  0.00    +0.000 OA
ENDBRANCH  10  13
ENDBRANCH   4   7
BRANCH   1  16
ATOM     16  C   UNL     1       3.117   5.005  19.334  0.00  0.00    +0.000 C 
ATOM     17  S   UNL     1       2.193   3.614  19.154  0.00  0.00    +0.000 S 
BRANCH  16  18
ATOM     18  N   UNL     1       4.501   5.077  19.234  0.00  0.00    +0.000 N 
ATOM     19  H   UNL     1       4.952   5.217  20.128  0.00  0.00    +0.000 HD
BRANCH  18  23
ATOM     20  C   UNL     1       6.798   5.165  15.687  0.00  0.00    +0.000 A 
ATOM     21  C   UNL     1       5.917   4.109  15.967  0.00  0.00    +0.000 A 
ATOM     22  C   UNL     1       5.187   4.082  17.161  0.00  0.00    +0.000 A 
ATOM     23  C   UNL     1       5.351   5.090  18.111  0.00  0.00    +0.000 A 
ATOM     24  C   UNL     1       6.270   6.102  17.852  0.00  0.00    +0.000 A 
ATOM     25  C   UNL     1       7.014   6.145  16.663  0.00  0.00    +0.000 A 
BRANCH  20  27
ATOM     26  C   UNL     1       6.936   4.437  13.440  0.00  0.00    +0.000 C 
ATOM     27  O   UNL     1       7.463   5.240  14.493  0.00  0.00    +0.000 OA
ENDBRANCH  20  27
BRANCH  25  28
ATOM     28  O   UNL     1       7.861   7.218  16.650  0.00  0.00    +0.000 OA
ATOM     29  C   UNL     1       7.829   8.151  17.713  0.00  0.00    +0.000 C 
ENDBRANCH  25  28
ENDBRANCH  18  23
ENDBRANCH  16  18
ENDBRANCH   1  16
TORSDOF 7
ENDMDL
MODEL 2
REMARK VINA RESULT:      -7.3      3.889      9.808
REMARK  Name = 
REMARK  9 active torsions:
REMARK  status: ('A' for Active; 'I' for Inactive)
REMARK    1  A    between atoms: C_1  and  O_2
REMARK    2  A    between atoms: O_2  and  C_3
REMARK    3  A    between atoms: C_6  and  N_7
REMARK    4  A    between atoms: N_7  and  C_8
REMARK    5  A    between atoms: C_8  and  N_10
REMARK    6  A    between atoms: N_13  and  C_14
REMARK    7  A    between atoms: C_17  and  N_18
REMARK    8  A    between atoms: C_26  and  O_27
REMARK    9  A    between atoms: O_27  and  C_28
REMARK                            x       y       z     vdW  Elec       q    Type
REMARK                         _______ _______ _______ _____ _____    ______ ____
ROOT
ATOM      1  N   UNL     1       0.716  10.386  19.828  0.00  0.00    +0.000 N 
ATOM      2  C   UNL     1       1.078   9.824  18.507  0.00  0.00    +0.000 C 
ATOM      3  C   UNL     1       2.208   8.782  18.589  0.00  0.00    +0.000 C 
ATOM      4  N   UNL     1       1.865   7.768  19.595  0.00  0.00    +0.000 N 
ATOM      5  C   UNL     1       1.574   8.312  20.932  0.00  0.00    +0.000 C 
ATOM      6  C   UNL     1       0.440   9.346  20.841  0.00  0.00    +0.000 C 
ENDROOT
BRANCH   4   7
ATOM      7  C   UNL     1       2.095   6.422  19.402  0.00  0.00    +0.000 A 
ATOM      8  C   UNL     1       2.455   5.894  18.151  0.00  0.00    +0.000 A 
ATOM      9  C   UNL     1       2.628   4.519  17.953  0.00  0.00    +0.000 A 
ATOM     10  C   UNL     1       2.433   3.640  19.020  0.00  0.00    +0.000 A 
ATOM     11  C   UNL     1       2.077   4.131  20.278  0.00  0.00    +0.000 A 
ATOM     12  C   UNL     1       1.916   5.509  20.455  0.00  0.00    +0.000 A 
BRANCH  10  13
ATOM     13  N   UNL     1       2.590   2.197  18.820  0.00  0.00    +0.000 N 
ATOM     14  O   UNL     1       1.756   1.445  19.346  0.00  0.00    +0.000 OA
ATOM     15  O   UNL     1       3.551   1.813  18.140  0.00  0.00    +0.000 OA
ENDBRANCH  10  13
ENDBRANCH   4   7
BRANCH   1  16
ATOM     16  C   UNL     1       0.067  11.640  19.875  0.00  0.00    +0.000 C 
ATOM     17  S   UNL     1       0.252  12.737  21.134  0.00  0.00    +0.000 S 
BRANCH  16  18
ATOM     18  N   UNL     1      -0.645  11.863  18.703  0.00  0.00    +0.000 N 
ATOM     19  H   UNL     1      -0.085  12.298  17.982  0.00  0.00    +0.000 HD
BRANCH  18  23
ATOM     20  C   UNL     1      -4.766  11.643  17.791  0.00  0.00    +0.000 A 
ATOM     21  C   UNL     1      -4.312  12.056  19.053  0.00  0.00    +0.000 A 
ATOM     22  C   UNL     1      -2.945  12.095  19.347  0.00  0.00    +0.000 A 
ATOM     23  C   UNL     1      -2.008  11.686  18.397  0.00  0.00    +0.000 A 
ATOM     24  C   UNL     1      -2.468  11.220  17.169  0.00  0.00    +0.000 A 
ATOM     25  C   UNL     1      -3.835  11.172  16.857  0.00  0.00    +0.000 A 
BRANCH  20  27
ATOM     26  C   UNL     1      -6.989  11.219  18.484  0.00  0.00    +0.000 C 
ATOM     27  O   UNL     1      -6.096  11.669  17.467  0.00  0.00    +0.000 OA
ENDBRANCH  20  27
BRANCH  25  28
ATOM     28  O   UNL     1      -4.037  10.660  15.605  0.00  0.00    +0.000 OA
ATOM     29  C   UNL     1      -2.927  10.283  14.813  0.00  0.00    +0.000 C 
ENDBRANCH  25  28
ENDBRANCH  18  23
ENDBRANCH  16  18
ENDBRANCH   1  16
TORSDOF 7
ENDMDL
MODEL 3
REMARK VINA RESULT:      -7.3      0.645      1.218
REMARK  Name = 
REMARK  9 active torsions:
REMARK  status: ('A' for Active; 'I' for Inactive)
REMARK    1  A    between atoms: C_1  and  O_2
REMARK    2  A    between atoms: O_2  and  C_3
REMARK    3  A    between atoms: C_6  and  N_7
REMARK    4  A    between atoms: N_7  and  C_8
REMARK    5  A    between atoms: C_8  and  N_10
REMARK    6  A    between atoms: N_13  and  C_14
REMARK    7  A    between atoms: C_17  and  N_18
REMARK    8  A    between atoms: C_26  and  O_27
REMARK    9  A    between atoms: O_27  and  C_28
REMARK                            x       y       z     vdW  Elec       q    Type
REMARK                         _______ _______ _______ _____ _____    ______ ____
ROOT
ATOM      1  N   UNL     1       2.632   5.800  19.238  0.00  0.00    +0.000 N 
ATOM      2  C   UNL     1       1.778   6.094  20.411  0.00  0.00    +0.000 C 
ATOM      3  C   UNL     1       1.802   7.581  20.812  0.00  0.00    +0.000 C 
ATOM      4  N   UNL     1       1.505   8.408  19.635  0.00  0.00    +0.000 N 
ATOM      5  C   UNL     1       2.396   8.173  18.486  0.00  0.00    +0.000 C 
ATOM      6  C   UNL     1       2.359   6.688  18.090  0.00  0.00    +0.000 C 
ENDROOT
BRANCH   4   7
ATOM      7  C   UNL     1       0.683   9.514  19.691  0.00  0.00    +0.000 A 
ATOM      8  C   UNL     1       0.227  10.168  18.536  0.00  0.00    +0.000 A 
ATOM      9  C   UNL     1      -0.559  11.326  18.605  0.00  0.00    +0.000 A 
ATOM     10  C   UNL     1      -0.897  11.854  19.852  0.00  0.00    +0.000 A 
ATOM     11  C   UNL     1      -0.463  11.226  21.022  0.00  0.00    +0.000 A 
ATOM     12  C   UNL     1       0.316  10.068  20.929  0.00  0.00    +0.000 A 
BRANCH  10  13
ATOM     13  N   UNL     1      -1.701  13.076  19.938  0.00  0.00    +0.000 N 
ATOM     14  O   UNL     1      -1.127  14.160  19.762  0.00  0.00    +0.000 OA
ATOM     15  O   UNL     1      -2.908  12.953  20.186  0.00  0.00    +0.000 OA
ENDBRANCH  10  13
ENDBRANCH   4   7
BRANCH   1  16
ATOM     16  C   UNL     1       3.081   4.474  19.045  0.00  0.00    +0.000 C 
ATOM     17  S   UNL     1       2.049   3.164  18.835  0.00  0.00    +0.000 S 
BRANCH  16  18
ATOM     18  N   UNL     1       4.466   4.438  18.950  0.00  0.00    +0.000 N 
ATOM     19  H   UNL     1       4.917   4.329  19.850  0.00  0.00    +0.000 HD
BRANCH  18  23
ATOM     20  C   UNL     1       6.796   5.056  15.479  0.00  0.00    +0.000 A 
ATOM     21  C   UNL     1       5.972   3.929  15.621  0.00  0.00    +0.000 A 
ATOM     22  C   UNL     1       5.230   3.726  16.790  0.00  0.00    +0.000 A 
ATOM     23  C   UNL     1       5.327   4.626  17.852  0.00  0.00    +0.000 A 
ATOM     24  C   UNL     1       6.192   5.708  17.727  0.00  0.00    +0.000 A 
ATOM     25  C   UNL     1       6.946   5.927  16.565  0.00  0.00    +0.000 A 
BRANCH  20  27
ATOM     26  C   UNL     1       7.083   4.510  13.195  0.00  0.00    +0.000 C 
ATOM     27  O   UNL     1       7.471   5.303  14.314  0.00  0.00    +0.000 OA
ENDBRANCH  20  27
BRANCH  25  28
ATOM     28  O   UNL     1       7.733   7.038  16.690  0.00  0.00    +0.000 OA
ATOM     29  C   UNL     1       7.882   7.655  17.954  0.00  0.00    +0.000 C 
ENDBRANCH  25  28
ENDBRANCH  18  23
ENDBRANCH  16  18
ENDBRANCH   1  16
TORSDOF 7
ENDMDL
MODEL 4
REMARK VINA RESULT:      -7.1      1.162      1.391
REMARK  Name = 
REMARK  9 active torsions:
REMARK  status: ('A' for Active; 'I' for Inactive)
REMARK    1  A    between atoms: C_1  and  O_2
REMARK    2  A    between atoms: O_2  and  C_3
REMARK    3  A    between atoms: C_6  and  N_7
REMARK    4  A    between atoms: N_7  and  C_8
REMARK    5  A    between atoms: C_8  and  N_10
REMARK    6  A    between atoms: N_13  and  C_14
REMARK    7  A    between atoms: C_17  and  N_18
REMARK    8  A    between atoms: C_26  and  O_27
REMARK    9  A    between atoms: O_27  and  C_28
REMARK                            x       y       z     vdW  Elec       q    Type
REMARK                         _______ _______ _______ _____ _____    ______ ____
ROOT
ATOM      1  N   UNL     1       2.452   5.035  19.325  0.00  0.00    +0.000 N 
ATOM      2  C   UNL     1       1.653   5.441  20.504  0.00  0.00    +0.000 C 
ATOM      3  C   UNL     1       1.903   6.901  20.923  0.00  0.00    +0.000 C 
ATOM      4  N   UNL     1       1.734   7.779  19.757  0.00  0.00    +0.000 N 
ATOM      5  C   UNL     1       2.579   7.426  18.603  0.00  0.00    +0.000 C 
ATOM      6  C   UNL     1       2.316   5.970  18.189  0.00  0.00    +0.000 C 
ENDROOT
BRANCH   4   7
ATOM      7  C   UNL     1       1.090   8.996  19.830  0.00  0.00    +0.000 A 
ATOM      8  C   UNL     1       0.596   9.512  21.039  0.00  0.00    +0.000 A 
ATOM      9  C   UNL     1      -0.109  10.721  21.092  0.00  0.00    +0.000 A 
ATOM     10  C   UNL     1      -0.336  11.437  19.916  0.00  0.00    +0.000 A 
ATOM     11  C   UNL     1       0.144  10.955  18.696  0.00  0.00    +0.000 A 
ATOM     12  C   UNL     1       0.851   9.748  18.668  0.00  0.00    +0.000 A 
BRANCH  10  13
ATOM     13  N   UNL     1      -1.090  12.692  19.955  0.00  0.00    +0.000 N 
ATOM     14  O   UNL     1      -0.523  13.695  20.413  0.00  0.00    +0.000 OA
ATOM     15  O   UNL     1      -2.254  12.677  19.531  0.00  0.00    +0.000 OA
ENDBRANCH  10  13
ENDBRANCH   4   7
BRANCH   1  16
ATOM     16  C   UNL     1       2.693   3.660  19.113  0.00  0.00    +0.000 C 
ATOM     17  S   UNL     1       1.474   2.519  18.927  0.00  0.00    +0.000 S 
BRANCH  16  18
ATOM     18  N   UNL     1       4.055   3.419  18.981  0.00  0.00    +0.000 N 
ATOM     19  H   UNL     1       4.430   2.864  19.739  0.00  0.00    +0.000 HD
BRANCH  18  23
ATOM     20  C   UNL     1       6.644   5.008  16.042  0.00  0.00    +0.000 A 
ATOM     21  C   UNL     1       5.637   4.086  15.716  0.00  0.00    +0.000 A 
ATOM     22  C   UNL     1       4.809   3.548  16.706  0.00  0.00    +0.000 A 
ATOM     23  C   UNL     1       4.995   3.893  18.046  0.00  0.00    +0.000 A 
ATOM     24  C   UNL     1       6.034   4.761  18.368  0.00  0.00    +0.000 A 
ATOM     25  C   UNL     1       6.877   5.309  17.390  0.00  0.00    +0.000 A 
BRANCH  20  27
ATOM     26  C   UNL     1       7.370   4.978  13.790  0.00  0.00    +0.000 C 
ATOM     27  O   UNL     1       7.414   5.595  15.075  0.00  0.00    +0.000 OA
ENDBRANCH  20  27
BRANCH  25  28
ATOM     28  O   UNL     1       7.829   6.111  17.953  0.00  0.00    +0.000 OA
ATOM     29  C   UNL     1       7.743   7.516  17.804  0.00  0.00    +0.000 C 
ENDBRANCH  25  28
ENDBRANCH  18  23
ENDBRANCH  16  18
ENDBRANCH   1  16
TORSDOF 7
ENDMDL
MODEL 5
REMARK VINA RESULT:      -7.0      1.673      2.250
REMARK  Name = 
REMARK  9 active torsions:
REMARK  status: ('A' for Active; 'I' for Inactive)
REMARK    1  A    between atoms: C_1  and  O_2
REMARK    2  A    between atoms: O_2  and  C_3
REMARK    3  A    between atoms: C_6  and  N_7
REMARK    4  A    between atoms: N_7  and  C_8
REMARK    5  A    between atoms: C_8  and  N_10
REMARK    6  A    between atoms: N_13  and  C_14
REMARK    7  A    between atoms: C_17  and  N_18
REMARK    8  A    between atoms: C_26  and  O_27
REMARK    9  A    between atoms: O_27  and  C_28
REMARK                            x       y       z     vdW  Elec       q    Type
REMARK                         _______ _______ _______ _____ _____    ______ ____
ROOT
ATOM      1  N   UNL     1       3.176   4.876  19.209  0.00  0.00    +0.000 N 
ATOM      2  C   UNL     1       3.461   6.181  18.570  0.00  0.00    +0.000 C 
ATOM      3  C   UNL     1       2.242   7.122  18.561  0.00  0.00    +0.000 C 
ATOM      4  N   UNL     1       1.698   7.229  19.922  0.00  0.00    +0.000 N 
ATOM      5  C   UNL     1       1.345   5.939  20.539  0.00  0.00    +0.000 C 
ATOM      6  C   UNL     1       2.569   5.011  20.549  0.00  0.00    +0.000 C 
ENDROOT
BRANCH   4   7
ATOM      7  C   UNL     1       1.265   8.423  20.457  0.00  0.00    +0.000 A 
ATOM      8  C   UNL     1       0.906   8.553  21.809  0.00  0.00    +0.000 A 
ATOM      9  C   UNL     1       0.411   9.755  22.329  0.00  0.00    +0.000 A 
ATOM     10  C   UNL     1       0.261  10.859  21.488  0.00  0.00    +0.000 A 
ATOM     11  C   UNL     1       0.612  10.767  20.139  0.00  0.00    +0.000 A 
ATOM     12  C   UNL     1       1.110   9.557  19.643  0.00  0.00    +0.000 A 
BRANCH  10  13
ATOM     13  N   UNL     1      -0.275  12.116  22.015  0.00  0.00    +0.000 N 
ATOM     14  O   UNL     1      -0.676  12.128  23.188  0.00  0.00    +0.000 OA
ATOM     15  O   UNL     1      -0.299  13.094  21.255  0.00  0.00    +0.000 OA
ENDBRANCH  10  13
ENDBRANCH   4   7
BRANCH   1  16
ATOM     16  C   UNL     1       3.998   3.773  18.888  0.00  0.00    +0.000 C 
ATOM     17  S   UNL     1       4.562   2.671  20.025  0.00  0.00    +0.000 S 
BRANCH  16  18
ATOM     18  N   UNL     1       4.177   3.681  17.514  0.00  0.00    +0.000 N 
ATOM     19  H   UNL     1       3.447   3.150  17.059  0.00  0.00    +0.000 HD
BRANCH  18  23
ATOM     20  C   UNL     1       7.129   5.063  14.823  0.00  0.00    +0.000 A 
ATOM     21  C   UNL     1       6.303   3.972  14.513  0.00  0.00    +0.000 A 
ATOM     22  C   UNL     1       5.351   3.510  15.428  0.00  0.00    +0.000 A 
ATOM     23  C   UNL     1       5.233   4.106  16.684  0.00  0.00    +0.000 A 
ATOM     24  C   UNL     1       6.095   5.149  17.007  0.00  0.00    +0.000 A 
ATOM     25  C   UNL     1       7.058   5.625  16.104  0.00  0.00    +0.000 A 
BRANCH  20  27
ATOM     26  C   UNL     1       7.787   5.194  12.554  0.00  0.00    +0.000 C 
ATOM     27  O   UNL     1       8.014   5.570  13.910  0.00  0.00    +0.000 OA
ENDBRANCH  20  27
BRANCH  25  28
ATOM     28  O   UNL     1       7.796   6.634  16.657  0.00  0.00    +0.000 OA
ATOM     29  C   UNL     1       7.630   6.958  18.024  0.00  0.00    +0.000 C 
ENDBRANCH  25  28
ENDBRANCH  18  23
ENDBRANCH  16  18
ENDBRANCH   1  16
TORSDOF 7
ENDMDL
MODEL 6
REMARK VINA RESULT:      -7.0      1.560      1.928
REMARK  Name = 
REMARK  9 active torsions:
REMARK  status: ('A' for Active; 'I' for Inactive)
REMARK    1  A    between atoms: C_1  and  O_2
REMARK    2  A    between atoms: O_2  and  C_3
REMARK    3  A    between atoms: C_6  and  N_7
REMARK    4  A    between atoms: N_7  and  C_8
REMARK    5  A    between atoms: C_8  and  N_10
REMARK    6  A    between atoms: N_13  and  C_14
REMARK    7  A    between atoms: C_17  and  N_18
REMARK    8  A    between atoms: C_26  and  O_27
REMARK    9  A    between atoms: O_27  and  C_28
REMARK                            x       y       z     vdW  Elec       q    Type
REMARK                         _______ _______ _______ _____ _____    ______ ____
ROOT
ATOM      1  N   UNL     1       1.882   7.854  20.030  0.00  0.00    +0.000 N 
ATOM      2  C   UNL     1       1.182   7.799  21.334  0.00  0.00    +0.000 C 
ATOM      3  C   UNL     1       1.017   9.185  21.984  0.00  0.00    +0.000 C 
ATOM      4  N   UNL     1       0.406  10.108  21.017  0.00  0.00    +0.000 N 
ATOM      5  C   UNL     1       1.136  10.223  19.743  0.00  0.00    +0.000 C 
ATOM      6  C   UNL     1       1.289   8.836  19.099  0.00  0.00    +0.000 C 
ENDROOT
BRANCH   4   7
ATOM      7  C   UNL     1      -0.571  11.014  21.370  0.00  0.00    +0.000 A 
ATOM      8  C   UNL     1      -1.052  11.125  22.685  0.00  0.00    +0.000 A 
ATOM      9  C   UNL     1      -2.086  12.007  23.020  0.00  0.00    +0.000 A 
ATOM     10  C   UNL     1      -2.666  12.798  22.026  0.00  0.00    +0.000 A 
ATOM     11  C   UNL     1      -2.210  12.715  20.709  0.00  0.00    +0.000 A 
ATOM     12  C   UNL     1      -1.172  11.831  20.398  0.00  0.00    +0.000 A 
BRANCH  10  13
ATOM     13  N   UNL     1      -3.763  13.709  22.360  0.00  0.00    +0.000 N 
ATOM     14  O   UNL     1      -4.076  14.570  21.525  0.00  0.00    +0.000 OA
ATOM     15  O   UNL     1      -4.312  13.567  23.461  0.00  0.00    +0.000 OA
ENDBRANCH  10  13
ENDBRANCH   4   7
BRANCH   1  16
ATOM     16  C   UNL     1       2.512   6.684  19.551  0.00  0.00    +0.000 C 
ATOM     17  S   UNL     1       2.390   5.187  20.305  0.00  0.00    +0.000 S 
BRANCH  16  18
ATOM     18  N   UNL     1       3.141   6.931  18.338  0.00  0.00    +0.000 N 
ATOM     19  H   UNL     1       2.704   7.678  17.815  0.00  0.00    +0.000 HD
BRANCH  18  23
ATOM     20  C   UNL     1       6.138   4.945  16.116  0.00  0.00    +0.000 A 
ATOM     21  C   UNL     1       4.897   4.345  16.378  0.00  0.00    +0.000 A 
ATOM     22  C   UNL     1       3.928   5.006  17.141  0.00  0.00    +0.000 A 
ATOM     23  C   UNL     1       4.195   6.262  17.686  0.00  0.00    +0.000 A 
ATOM     24  C   UNL     1       5.450   6.824  17.472  0.00  0.00    +0.000 A 
ATOM     25  C   UNL     1       6.435   6.176  16.712  0.00  0.00    +0.000 A 
BRANCH  20  27
ATOM     26  C   UNL     1       6.992   4.668  13.927  0.00  0.00    +0.000 C 
ATOM     27  O   UNL     1       7.067   4.340  15.312  0.00  0.00    +0.000 OA
ENDBRANCH  20  27
BRANCH  25  28
ATOM     28  O   UNL     1       7.585   6.915  16.663  0.00  0.00    +0.000 OA
ATOM     29  C   UNL     1       7.767   7.992  17.562  0.00  0.00    +0.000 C 
ENDBRANCH  25  28
ENDBRANCH  18  23
ENDBRANCH  16  18
ENDBRANCH   1  16
TORSDOF 7
ENDMDL
MODEL 7
REMARK VINA RESULT:      -6.9      2.236      2.707
REMARK  Name = 
REMARK  9 active torsions:
REMARK  status: ('A' for Active; 'I' for Inactive)
REMARK    1  A    between atoms: C_1  and  O_2
REMARK    2  A    between atoms: O_2  and  C_3
REMARK    3  A    between atoms: C_6  and  N_7
REMARK    4  A    between atoms: N_7  and  C_8
REMARK    5  A    between atoms: C_8  and  N_10
REMARK    6  A    between atoms: N_13  and  C_14
REMARK    7  A    between atoms: C_17  and  N_18
REMARK    8  A    between atoms: C_26  and  O_27
REMARK    9  A    between atoms: O_27  and  C_28
REMARK                            x       y       z     vdW  Elec       q    Type
REMARK                         _______ _______ _______ _____ _____    ______ ____
ROOT
ATOM      1  N   UNL     1       2.014   7.058  19.608  0.00  0.00    +0.000 N 
ATOM      2  C   UNL     1       2.543   7.803  18.443  0.00  0.00    +0.000 C 
ATOM      3  C   UNL     1       1.637   8.975  18.020  0.00  0.00    +0.000 C 
ATOM      4  N   UNL     1       1.354   9.818  19.188  0.00  0.00    +0.000 N 
ATOM      5  C   UNL     1       0.760   9.098  20.328  0.00  0.00    +0.000 C 
ATOM      6  C   UNL     1       1.674   7.936  20.746  0.00  0.00    +0.000 C 
ENDROOT
BRANCH   4   7
ATOM      7  C   UNL     1       1.346  11.196  19.127  0.00  0.00    +0.000 A 
ATOM      8  C   UNL     1       2.116  11.909  18.193  0.00  0.00    +0.000 A 
ATOM      9  C   UNL     1       2.147  13.309  18.178  0.00  0.00    +0.000 A 
ATOM     10  C   UNL     1       1.401  14.024  19.116  0.00  0.00    +0.000 A 
ATOM     11  C   UNL     1       0.621  13.347  20.057  0.00  0.00    +0.000 A 
ATOM     12  C   UNL     1       0.601  11.948  20.050  0.00  0.00    +0.000 A 
BRANCH  10  13
ATOM     13  N   UNL     1       1.441  15.488  19.125  0.00  0.00    +0.000 N 
ATOM     14  O   UNL     1       2.340  16.039  19.777  0.00  0.00    +0.000 OA
ATOM     15  O   UNL     1       0.571  16.090  18.480  0.00  0.00    +0.000 OA
ENDBRANCH  10  13
ENDBRANCH   4   7
BRANCH   1  16
ATOM     16  C   UNL     1       2.448   5.730  19.815  0.00  0.00    +0.000 C 
ATOM     17  S   UNL     1       1.403   4.431  20.022  0.00  0.00    +0.000 S 
BRANCH  16  18
ATOM     18  N   UNL     1       3.832   5.650  19.718  0.00  0.00    +0.000 N 
ATOM     19  H   UNL     1       4.302   5.986  20.548  0.00  0.00    +0.000 HD
BRANCH  18  23
ATOM     20  C   UNL     1       6.116   4.655  16.304  0.00  0.00    +0.000 A 
ATOM     21  C   UNL     1       4.952   3.948  16.643  0.00  0.00    +0.000 A 
ATOM     22  C   UNL     1       4.225   4.272  17.794  0.00  0.00    +0.000 A 
ATOM     23  C   UNL     1       4.668   5.285  18.646  0.00  0.00    +0.000 A 
ATOM     24  C   UNL     1       5.854   5.941  18.335  0.00  0.00    +0.000 A 
ATOM     25  C   UNL     1       6.599   5.628  17.187  0.00  0.00    +0.000 A 
BRANCH  20  27
ATOM     26  C   UNL     1       5.997   3.992  14.036  0.00  0.00    +0.000 C 
ATOM     27  O   UNL     1       6.796   4.395  15.145  0.00  0.00    +0.000 OA
ENDBRANCH  20  27
BRANCH  25  28
ATOM     28  O   UNL     1       7.731   6.391  17.111  0.00  0.00    +0.000 OA
ATOM     29  C   UNL     1       7.713   7.724  17.585  0.00  0.00    +0.000 C 
ENDBRANCH  25  28
ENDBRANCH  18  23
ENDBRANCH  16  18
ENDBRANCH   1  16
TORSDOF 7
ENDMDL
MODEL 8
REMARK VINA RESULT:      -6.9      2.364      2.831
REMARK  Name = 
REMARK  9 active torsions:
REMARK  status: ('A' for Active; 'I' for Inactive)
REMARK    1  A    between atoms: C_1  and  O_2
REMARK    2  A    between atoms: O_2  and  C_3
REMARK    3  A    between atoms: C_6  and  N_7
REMARK    4  A    between atoms: N_7  and  C_8
REMARK    5  A    between atoms: C_8  and  N_10
REMARK    6  A    between atoms: N_13  and  C_14
REMARK    7  A    between atoms: C_17  and  N_18
REMARK    8  A    between atoms: C_26  and  O_27
REMARK    9  A    between atoms: O_27  and  C_28
REMARK                            x       y       z     vdW  Elec       q    Type
REMARK                         _______ _______ _______ _____ _____    ______ ____
ROOT
ATOM      1  N   UNL     1       1.727   7.319  19.833  0.00  0.00    +0.000 N 
ATOM      2  C   UNL     1       2.258   8.042  18.655  0.00  0.00    +0.000 C 
ATOM      3  C   UNL     1       1.343   9.192  18.195  0.00  0.00    +0.000 C 
ATOM      4  N   UNL     1       1.039  10.061  19.340  0.00  0.00    +0.000 N 
ATOM      5  C   UNL     1       0.443   9.362  20.492  0.00  0.00    +0.000 C 
ATOM      6  C   UNL     1       1.367   8.221  20.947  0.00  0.00    +0.000 C 
ENDROOT
BRANCH   4   7
ATOM      7  C   UNL     1       1.016  11.436  19.245  0.00  0.00    +0.000 A 
ATOM      8  C   UNL     1      -0.012  12.210  19.810  0.00  0.00    +0.000 A 
ATOM      9  C   UNL     1      -0.057  13.601  19.656  0.00  0.00    +0.000 A 
ATOM     10  C   UNL     1       0.938  14.245  18.918  0.00  0.00    +0.000 A 
ATOM     11  C   UNL     1       1.976  13.506  18.346  0.00  0.00    +0.000 A 
ATOM     12  C   UNL     1       2.005  12.118  18.517  0.00  0.00    +0.000 A 
BRANCH  10  13
ATOM     13  N   UNL     1       0.891  15.697  18.733  0.00  0.00    +0.000 N 
ATOM     14  O   UNL     1       1.938  16.338  18.906  0.00  0.00    +0.000 OA
ATOM     15  O   UNL     1      -0.196  16.200  18.416  0.00  0.00    +0.000 OA
ENDBRANCH  10  13
ENDBRANCH   4   7
BRANCH   1  16
ATOM     16  C   UNL     1       2.175   6.002  20.077  0.00  0.00    +0.000 C 
ATOM     17  S   UNL     1       1.146   4.713  20.392  0.00  0.00    +0.000 S 
BRANCH  16  18
ATOM     18  N   UNL     1       3.552   5.919  19.916  0.00  0.00    +0.000 N 
ATOM     19  H   UNL     1       4.060   6.478  20.588  0.00  0.00    +0.000 HD
BRANCH  18  23
ATOM     20  C   UNL     1       5.827   4.247  16.770  0.00  0.00    +0.000 A 
ATOM     21  C   UNL     1       4.425   4.291  16.722  0.00  0.00    +0.000 A 
ATOM     22  C   UNL     1       3.687   4.821  17.786  0.00  0.00    +0.000 A 
ATOM     23  C   UNL     1       4.335   5.284  18.932  0.00  0.00    +0.000 A 
ATOM     24  C   UNL     1       5.721   5.182  18.997  0.00  0.00    +0.000 A 
ATOM     25  C   UNL     1       6.478   4.651  17.941  0.00  0.00    +0.000 A 
BRANCH  20  27
ATOM     26  C   UNL     1       6.323   4.457  14.466  0.00  0.00    +0.000 C 
ATOM     27  O   UNL     1       6.563   3.798  15.707  0.00  0.00    +0.000 OA
ENDBRANCH  20  27
BRANCH  25  28
ATOM     28  O   UNL     1       7.811   4.638  18.249  0.00  0.00    +0.000 OA
ATOM     29  C   UNL     1       8.308   5.496  19.257  0.00  0.00    +0.000 C 
ENDBRANCH  25  28
ENDBRANCH  18  23
ENDBRANCH  16  18
ENDBRANCH   1  16
TORSDOF 7
ENDMDL
MODEL 9
REMARK VINA RESULT:      -6.9      3.529      9.616
REMARK  Name = 
REMARK  9 active torsions:
REMARK  status: ('A' for Active; 'I' for Inactive)
REMARK    1  A    between atoms: C_1  and  O_2
REMARK    2  A    between atoms: O_2  and  C_3
REMARK    3  A    between atoms: C_6  and  N_7
REMARK    4  A    between atoms: N_7  and  C_8
REMARK    5  A    between atoms: C_8  and  N_10
REMARK    6  A    between atoms: N_13  and  C_14
REMARK    7  A    between atoms: C_17  and  N_18
REMARK    8  A    between atoms: C_26  and  O_27
REMARK    9  A    between atoms: O_27  and  C_28
REMARK                            x       y       z     vdW  Elec       q    Type
REMARK                         _______ _______ _______ _____ _____    ______ ____
ROOT
ATOM      1  N   UNL     1       0.879  11.288  19.500  0.00  0.00    +0.000 N 
ATOM      2  C   UNL     1       0.980  10.418  20.694  0.00  0.00    +0.000 C 
ATOM      3  C   UNL     1       0.750   8.930  20.372  0.00  0.00    +0.000 C 
ATOM      4  N   UNL     1       1.629   8.529  19.265  0.00  0.00    +0.000 N 
ATOM      5  C   UNL     1       1.484   9.345  18.048  0.00  0.00    +0.000 C 
ATOM      6  C   UNL     1       1.722  10.826  18.378  0.00  0.00    +0.000 C 
ENDROOT
BRANCH   4   7
ATOM      7  C   UNL     1       2.298   7.324  19.246  0.00  0.00    +0.000 A 
ATOM      8  C   UNL     1       3.169   6.966  18.204  0.00  0.00    +0.000 A 
ATOM      9  C   UNL     1       3.797   5.715  18.165  0.00  0.00    +0.000 A 
ATOM     10  C   UNL     1       3.552   4.789  19.180  0.00  0.00    +0.000 A 
ATOM     11  C   UNL     1       2.694   5.113  20.233  0.00  0.00    +0.000 A 
ATOM     12  C   UNL     1       2.082   6.371  20.256  0.00  0.00    +0.000 A 
BRANCH  10  13
ATOM     13  N   UNL     1       4.187   3.469  19.139  0.00  0.00    +0.000 N 
ATOM     14  O   UNL     1       3.490   2.502  18.799  0.00  0.00    +0.000 OA
ATOM     15  O   UNL     1       5.383   3.397  19.451  0.00  0.00    +0.000 OA
ENDBRANCH  10  13
ENDBRANCH   4   7
BRANCH   1  16
ATOM     16  C   UNL     1       0.599  12.660  19.686  0.00  0.00    +0.000 C 
ATOM     17  S   UNL     1       1.603  13.709  20.531  0.00  0.00    +0.000 S 
BRANCH  16  18
ATOM     18  N   UNL     1      -0.549  13.021  18.992  0.00  0.00    +0.000 N 
ATOM     19  H   UNL     1      -0.521  13.976  18.658  0.00  0.00    +0.000 HD
BRANCH  18  23
ATOM     20  C   UNL     1      -4.303  11.224  18.254  0.00  0.00    +0.000 A 
ATOM     21  C   UNL     1      -4.095  12.072  19.353  0.00  0.00    +0.000 A 
ATOM     22  C   UNL     1      -2.838  12.634  19.599  0.00  0.00    +0.000 A 
ATOM     23  C   UNL     1      -1.756  12.331  18.771  0.00  0.00    +0.000 A 
ATOM     24  C   UNL     1      -1.955  11.443  17.719  0.00  0.00    +0.000 A 
ATOM     25  C   UNL     1      -3.208  10.866  17.458  0.00  0.00    +0.000 A 
BRANCH  20  27
ATOM     26  C   UNL     1      -6.629  11.637  18.117  0.00  0.00    +0.000 C 
ATOM     27  O   UNL     1      -5.544  10.725  17.962  0.00  0.00    +0.000 OA
ENDBRANCH  20  27
BRANCH  25  28
ATOM     28  O   UNL     1      -3.146  10.015  16.390  0.00  0.00    +0.000 OA
ATOM     29  C   UNL     1      -2.983  10.537  15.085  0.00  0.00    +0.000 C 
ENDBRANCH  25  28
ENDBRANCH  18  23
ENDBRANCH  16  18
ENDBRANCH   1  16
TORSDOF 7
ENDMDL
