MODEL 1
REMARK VINA RESULT:      -8.0      0.000      0.000
REMARK  Name = 
REMARK  4 active torsions:
REMARK  status: ('A' for Active; 'I' for Inactive)
REMARK    1  A    between atoms: C_1  and  C_2
REMARK    2  A    between atoms: C_5  and  C_6
REMARK    3  A    between atoms: C_6  and  O_7
REMARK    4  A    between atoms: C_6  and  C_8
REMARK                            x       y       z     vdW  Elec       q    Type
REMARK                         _______ _______ _______ _____ _____    ______ ____
ROOT
ATOM      1  C   UNL     1       5.178   4.743  17.815  0.00  0.00    +0.000 A 
ATOM      2  C   UNL     1       4.144   5.559  17.364  0.00  0.00    +0.000 A 
ATOM      3  C   UNL     1       2.838   5.248  17.731  0.00  0.00    +0.000 A 
ATOM      4  C   UNL     1       2.587   4.150  18.553  0.00  0.00    +0.000 A 
ATOM      5  C   UNL     1       3.675   3.404  19.009  0.00  0.00    +0.000 A 
ATOM      6  N   UNL     1       4.953   3.679  18.639  0.00  0.00    +0.000 NA
ATOM      7  C   UNL     1       3.484   2.241  19.952  0.00  0.00    +0.000 C 
ATOM      8  C   UNL     1       2.909   2.642  21.316  0.00  0.00    +0.000 C 
ATOM      9  C   UNL     1       1.406   2.936  21.331  0.00  0.00    +0.000 C 
ATOM     10  C   UNL     1       0.960   4.096  20.442  0.00  0.00    +0.000 C 
ATOM     11  C   UNL     1       1.176   3.825  18.957  0.00  0.00    +0.000 C 
ENDROOT
BRANCH   1  12
ATOM     12  C   UNL     1       6.608   5.019  17.350  0.00  0.00    +0.000 C 
BRANCH  12  17
ATOM     13  C   UNL     1       9.040  10.127  18.834  0.00  0.00    +0.000 C 
ATOM     14  C   UNL     1       8.408   8.817  18.470  0.00  0.00    +0.000 A 
ATOM     15  C   UNL     1       8.656   7.658  19.201  0.00  0.00    +0.000 A 
ATOM     16  C   UNL     1       8.068   6.446  18.826  0.00  0.00    +0.000 A 
ATOM     17  C   UNL     1       7.217   6.368  17.706  0.00  0.00    +0.000 A 
ATOM     18  C   UNL     1       6.971   7.540  16.985  0.00  0.00    +0.000 A 
ATOM     19  C   UNL     1       7.558   8.751  17.360  0.00  0.00    +0.000 A 
ENDBRANCH  12  17
BRANCH  12  20
ATOM     20  O   UNL     1       7.458   3.982  17.858  0.00  0.00    +0.000 OA
ATOM     21  H   UNL     1       7.338   4.014  18.823  0.00  0.00    +0.000 HD
ENDBRANCH  12  20
ENDBRANCH   1  12
TORSDOF 3
ENDMDL
MODEL 2
REMARK VINA RESULT:      -7.9      0.105      1.081
REMARK  Name = 
REMARK  4 active torsions:
REMARK  status: ('A' for Active; 'I' for Inactive)
REMARK    1  A    between atoms: C_1  and  C_2
REMARK    2  A    between atoms: C_5  and  C_6
REMARK    3  A    between atoms: C_6  and  O_7
REMARK    4  A    between atoms: C_6  and  C_8
REMARK                            x       y       z     vdW  Elec       q    Type
REMARK                         _______ _______ _______ _____ _____    ______ ____
ROOT
ATOM      1  C   UNL     1       5.213   4.833  17.843  0.00  0.00    +0.000 A 
ATOM      2  C   UNL     1       4.183   5.676  17.435  0.00  0.00    +0.000 A 
ATOM      3  C   UNL     1       2.879   5.370  17.812  0.00  0.00    +0.000 A 
ATOM      4  C   UNL     1       2.626   4.249  18.602  0.00  0.00    +0.000 A 
ATOM      5  C   UNL     1       3.710   3.474  19.016  0.00  0.00    +0.000 A 
ATOM      6  N   UNL     1       4.986   3.745  18.635  0.00  0.00    +0.000 NA
ATOM      7  C   UNL     1       3.518   2.284  19.924  0.00  0.00    +0.000 C 
ATOM      8  C   UNL     1       2.970   2.647  21.309  0.00  0.00    +0.000 C 
ATOM      9  C   UNL     1       1.471   2.960  21.356  0.00  0.00    +0.000 C 
ATOM     10  C   UNL     1       1.027   4.154  20.513  0.00  0.00    +0.000 C 
ATOM     11  C   UNL     1       1.216   3.929  19.017  0.00  0.00    +0.000 C 
ENDROOT
BRANCH   1  12
ATOM     12  C   UNL     1       6.639   5.105  17.365  0.00  0.00    +0.000 C 
BRANCH  12  17
ATOM     13  C   UNL     1       9.054  10.205  18.905  0.00  0.00    +0.000 C 
ATOM     14  C   UNL     1       8.444   8.898  18.495  0.00  0.00    +0.000 A 
ATOM     15  C   UNL     1       7.626   8.794  17.372  0.00  0.00    +0.000 A 
ATOM     16  C   UNL     1       7.055   7.566  17.024  0.00  0.00    +0.000 A 
ATOM     17  C   UNL     1       7.290   6.412  17.797  0.00  0.00    +0.000 A 
ATOM     18  C   UNL     1       8.118   6.528  18.917  0.00  0.00    +0.000 A 
ATOM     19  C   UNL     1       8.689   7.755  19.264  0.00  0.00    +0.000 A 
ENDBRANCH  12  17
BRANCH  12  20
ATOM     20  O   UNL     1       7.473   4.016  17.781  0.00  0.00    +0.000 OA
ATOM     21  H   UNL     1       7.739   4.241  18.689  0.00  0.00    +0.000 HD
ENDBRANCH  12  20
ENDBRANCH   1  12
TORSDOF 3
ENDMDL
MODEL 3
REMARK VINA RESULT:      -7.6      2.537      3.940
REMARK  Name = 
REMARK  4 active torsions:
REMARK  status: ('A' for Active; 'I' for Inactive)
REMARK    1  A    between atoms: C_1  and  C_2
REMARK    2  A    between atoms: C_5  and  C_6
REMARK    3  A    between atoms: C_6  and  O_7
REMARK    4  A    between atoms: C_6  and  C_8
REMARK                            x       y       z     vdW  Elec       q    Type
REMARK                         _______ _______ _______ _____ _____    ______ ____
ROOT
ATOM      1  C   UNL     1       4.807   5.244  17.549  0.00  0.00    +0.000 A 
ATOM      2  C   UNL     1       3.687   6.069  17.481  0.00  0.00    +0.000 A 
ATOM      3  C   UNL     1       2.502   5.638  18.068  0.00  0.00    +0.000 A 
ATOM      4  C   UNL     1       2.456   4.409  18.726  0.00  0.00    +0.000 A 
ATOM      5  C   UNL     1       3.627   3.654  18.798  0.00  0.00    +0.000 A 
ATOM      6  N   UNL     1       4.786   4.050  18.208  0.00  0.00    +0.000 NA
ATOM      7  C   UNL     1       3.668   2.345  19.548  0.00  0.00    +0.000 C 
ATOM      8  C   UNL     1       3.411   2.489  21.053  0.00  0.00    +0.000 C 
ATOM      9  C   UNL     1       1.946   2.701  21.447  0.00  0.00    +0.000 C 
ATOM     10  C   UNL     1       1.297   3.966  20.890  0.00  0.00    +0.000 C 
ATOM     11  C   UNL     1       1.176   3.952  19.370  0.00  0.00    +0.000 C 
ENDROOT
BRANCH   1  12
ATOM     12  C   UNL     1       6.092   5.663  16.834  0.00  0.00    +0.000 C 
BRANCH  12  17
ATOM     13  C   UNL     1       6.879   3.458  11.475  0.00  0.00    +0.000 C 
ATOM     14  C   UNL     1       6.677   4.007  12.855  0.00  0.00    +0.000 A 
ATOM     15  C   UNL     1       5.549   3.691  13.610  0.00  0.00    +0.000 A 
ATOM     16  C   UNL     1       5.379   4.233  14.888  0.00  0.00    +0.000 A 
ATOM     17  C   UNL     1       6.336   5.107  15.439  0.00  0.00    +0.000 A 
ATOM     18  C   UNL     1       7.467   5.410  14.674  0.00  0.00    +0.000 A 
ATOM     19  C   UNL     1       7.637   4.868  13.398  0.00  0.00    +0.000 A 
ENDBRANCH  12  17
BRANCH  12  20
ATOM     20  O   UNL     1       6.131   7.095  16.773  0.00  0.00    +0.000 OA
ATOM     21  H   UNL     1       6.419   7.372  17.660  0.00  0.00    +0.000 HD
ENDBRANCH  12  20
ENDBRANCH   1  12
TORSDOF 3
ENDMDL
MODEL 4
REMARK VINA RESULT:      -7.6      2.606      3.984
REMARK  Name = 
REMARK  4 active torsions:
REMARK  status: ('A' for Active; 'I' for Inactive)
REMARK    1  A    between atoms: C_1  and  C_2
REMARK    2  A    between atoms: C_5  and  C_6
REMARK    3  A    between atoms: C_6  and  O_7
REMARK    4  A    between atoms: C_6  and  C_8
REMARK                            x       y       z     vdW  Elec       q    Type
REMARK                         _______ _______ _______ _____ _____    ______ ____
ROOT
ATOM      1  C   UNL     1       4.770   5.296  17.496  0.00  0.00    +0.000 A 
ATOM      2  C   UNL     1       3.691   6.174  17.546  0.00  0.00    +0.000 A 
ATOM      3  C   UNL     1       2.527   5.768  18.192  0.00  0.00    +0.000 A 
ATOM      4  C   UNL     1       2.465   4.511  18.791  0.00  0.00    +0.000 A 
ATOM      5  C   UNL     1       3.600   3.700  18.746  0.00  0.00    +0.000 A 
ATOM      6  N   UNL     1       4.735   4.072  18.097  0.00  0.00    +0.000 NA
ATOM      7  C   UNL     1       3.626   2.353  19.428  0.00  0.00    +0.000 C 
ATOM      8  C   UNL     1       3.477   2.431  20.952  0.00  0.00    +0.000 C 
ATOM      9  C   UNL     1       2.054   2.690  21.456  0.00  0.00    +0.000 C 
ATOM     10  C   UNL     1       1.432   4.011  21.006  0.00  0.00    +0.000 C 
ATOM     11  C   UNL     1       1.210   4.080  19.499  0.00  0.00    +0.000 C 
ENDROOT
BRANCH   1  12
ATOM     12  C   UNL     1       6.024   5.692  16.716  0.00  0.00    +0.000 C 
BRANCH  12  17
ATOM     13  C   UNL     1       6.946   3.373  11.427  0.00  0.00    +0.000 C 
ATOM     14  C   UNL     1       6.710   3.984  12.775  0.00  0.00    +0.000 A 
ATOM     15  C   UNL     1       7.637   4.844  13.360  0.00  0.00    +0.000 A 
ATOM     16  C   UNL     1       7.399   5.384  14.628  0.00  0.00    +0.000 A 
ATOM     17  C   UNL     1       6.224   5.072  15.341  0.00  0.00    +0.000 A 
ATOM     18  C   UNL     1       5.299   4.213  14.740  0.00  0.00    +0.000 A 
ATOM     19  C   UNL     1       5.537   3.674  13.473  0.00  0.00    +0.000 A 
ENDBRANCH  12  17
BRANCH  12  20
ATOM     20  O   UNL     1       6.045   7.120  16.585  0.00  0.00    +0.000 OA
ATOM     21  H   UNL     1       5.147   7.354  16.292  0.00  0.00    +0.000 HD
ENDBRANCH  12  20
ENDBRANCH   1  12
TORSDOF 3
ENDMDL
MODEL 5
REMARK VINA RESULT:      -7.3      5.649      7.545
REMARK  Name = 
REMARK  4 active torsions:
REMARK  status: ('A' for Active; 'I' for Inactive)
REMARK    1  A    between atoms: C_1  and  C_2
REMARK    2  A    between atoms: C_5  and  C_6
REMARK    3  A    between atoms: C_6  and  O_7
REMARK    4  A    between atoms: C_6  and  C_8
REMARK                            x       y       z     vdW  Elec       q    Type
REMARK                         _______ _______ _______ _____ _____    ______ ____
ROOT
ATOM      1  C   UNL     1       1.582   9.000  19.115  0.00  0.00    +0.000 A 
ATOM      2  C   UNL     1       2.264   8.902  17.906  0.00  0.00    +0.000 A 
ATOM      3  C   UNL     1       2.933   7.718  17.608  0.00  0.00    +0.000 A 
ATOM      4  C   UNL     1       2.893   6.651  18.505  0.00  0.00    +0.000 A 
ATOM      5  C   UNL     1       2.150   6.800  19.677  0.00  0.00    +0.000 A 
ATOM      6  N   UNL     1       1.513   7.958  19.994  0.00  0.00    +0.000 NA
ATOM      7  C   UNL     1       2.011   5.666  20.663  0.00  0.00    +0.000 C 
ATOM      8  C   UNL     1       1.279   4.443  20.096  0.00  0.00    +0.000 C 
ATOM      9  C   UNL     1       2.109   3.562  19.159  0.00  0.00    +0.000 C 
ATOM     10  C   UNL     1       2.610   4.251  17.890  0.00  0.00    +0.000 C 
ATOM     11  C   UNL     1       3.607   5.369  18.175  0.00  0.00    +0.000 C 
ENDROOT
BRANCH   1  12
ATOM     12  C   UNL     1       0.916  10.323  19.496  0.00  0.00    +0.000 C 
BRANCH  12  17
ATOM     13  C   UNL     1      -4.415  11.534  17.418  0.00  0.00    +0.000 C 
ATOM     14  C   UNL     1      -3.056  11.219  17.966  0.00  0.00    +0.000 A 
ATOM     15  C   UNL     1      -2.541  11.889  19.073  0.00  0.00    +0.000 A 
ATOM     16  C   UNL     1      -1.262  11.587  19.551  0.00  0.00    +0.000 A 
ATOM     17  C   UNL     1      -0.467  10.605  18.927  0.00  0.00    +0.000 A 
ATOM     18  C   UNL     1      -0.999   9.934  17.821  0.00  0.00    +0.000 A 
ATOM     19  C   UNL     1      -2.277  10.236  17.344  0.00  0.00    +0.000 A 
ENDBRANCH  12  17
BRANCH  12  20
ATOM     20  O   UNL     1       0.851  10.403  20.926  0.00  0.00    +0.000 OA
ATOM     21  H   UNL     1       0.541  11.307  21.108  0.00  0.00    +0.000 HD
ENDBRANCH  12  20
ENDBRANCH   1  12
TORSDOF 3
ENDMDL
MODEL 6
REMARK VINA RESULT:      -7.3      5.710      7.638
REMARK  Name = 
REMARK  4 active torsions:
REMARK  status: ('A' for Active; 'I' for Inactive)
REMARK    1  A    between atoms: C_1  and  C_2
REMARK    2  A    between atoms: C_5  and  C_6
REMARK    3  A    between atoms: C_6  and  O_7
REMARK    4  A    between atoms: C_6  and  C_8
REMARK                            x       y       z     vdW  Elec       q    Type
REMARK                         _______ _______ _______ _____ _____    ______ ____
ROOT
ATOM      1  C   UNL     1       1.512   9.127  19.133  0.00  0.00    +0.000 A 
ATOM      2  C   UNL     1       2.169   9.033  17.909  0.00  0.00    +0.000 A 
ATOM      3  C   UNL     1       2.841   7.855  17.597  0.00  0.00    +0.000 A 
ATOM      4  C   UNL     1       2.829   6.788  18.495  0.00  0.00    +0.000 A 
ATOM      5  C   UNL     1       2.110   6.931  19.683  0.00  0.00    +0.000 A 
ATOM      6  N   UNL     1       1.471   8.084  20.013  0.00  0.00    +0.000 NA
ATOM      7  C   UNL     1       2.001   5.796  20.672  0.00  0.00    +0.000 C 
ATOM      8  C   UNL     1       1.267   4.568  20.122  0.00  0.00    +0.000 C 
ATOM      9  C   UNL     1       2.084   3.693  19.167  0.00  0.00    +0.000 C 
ATOM     10  C   UNL     1       2.552   4.385  17.887  0.00  0.00    +0.000 C 
ATOM     11  C   UNL     1       3.546   5.512  18.151  0.00  0.00    +0.000 C 
ENDROOT
BRANCH   1  12
ATOM     12  C   UNL     1       0.844  10.444  19.527  0.00  0.00    +0.000 C 
BRANCH  12  17
ATOM     13  C   UNL     1      -4.493  11.371  17.322  0.00  0.00    +0.000 C 
ATOM     14  C   UNL     1      -3.118  11.139  17.871  0.00  0.00    +0.000 A 
ATOM     15  C   UNL     1      -2.259  10.194  17.315  0.00  0.00    +0.000 A 
ATOM     16  C   UNL     1      -0.988   9.984  17.861  0.00  0.00    +0.000 A 
ATOM     17  C   UNL     1      -0.550  10.719  18.981  0.00  0.00    +0.000 A 
ATOM     18  C   UNL     1      -1.419  11.669  19.525  0.00  0.00    +0.000 A 
ATOM     19  C   UNL     1      -2.688  11.878  18.979  0.00  0.00    +0.000 A 
ENDBRANCH  12  17
BRANCH  12  20
ATOM     20  O   UNL     1       0.801  10.520  20.958  0.00  0.00    +0.000 OA
ATOM     21  H   UNL     1       0.089  11.155  21.150  0.00  0.00    +0.000 HD
ENDBRANCH  12  20
ENDBRANCH   1  12
TORSDOF 3
ENDMDL
MODEL 7
REMARK VINA RESULT:      -7.1      3.882      5.271
REMARK  Name = 
REMARK  4 active torsions:
REMARK  status: ('A' for Active; 'I' for Inactive)
REMARK    1  A    between atoms: C_1  and  C_2
REMARK    2  A    between atoms: C_5  and  C_6
REMARK    3  A    between atoms: C_6  and  O_7
REMARK    4  A    between atoms: C_6  and  C_8
REMARK                            x       y       z     vdW  Elec       q    Type
REMARK                         _______ _______ _______ _____ _____    ______ ____
ROOT
ATOM      1  C   UNL     1       2.961   6.848  18.847  0.00  0.00    +0.000 A 
ATOM      2  C   UNL     1       2.961   7.716  17.759  0.00  0.00    +0.000 A 
ATOM      3  C   UNL     1       2.128   8.830  17.791  0.00  0.00    +0.000 A 
ATOM      4  C   UNL     1       1.329   9.071  18.908  0.00  0.00    +0.000 A 
ATOM      5  C   UNL     1       1.413   8.186  19.984  0.00  0.00    +0.000 A 
ATOM      6  N   UNL     1       2.203   7.080  19.958  0.00  0.00    +0.000 NA
ATOM      7  C   UNL     1       0.625   8.419  21.251  0.00  0.00    +0.000 C 
ATOM      8  C   UNL     1       1.018   9.702  21.994  0.00  0.00    +0.000 C 
ATOM      9  C   UNL     1       0.477  10.999  21.386  0.00  0.00    +0.000 C 
ATOM     10  C   UNL     1       0.946  11.298  19.963  0.00  0.00    +0.000 C 
ATOM     11  C   UNL     1       0.439  10.283  18.945  0.00  0.00    +0.000 C 
ENDROOT
BRANCH   1  12
ATOM     12  C   UNL     1       3.804   5.574  18.791  0.00  0.00    +0.000 C 
BRANCH  12  17
ATOM     13  C   UNL     1       7.268   4.796  14.143  0.00  0.00    +0.000 C 
ATOM     14  C   UNL     1       6.382   4.978  15.339  0.00  0.00    +0.000 A 
ATOM     15  C   UNL     1       5.185   4.279  15.474  0.00  0.00    +0.000 A 
ATOM     16  C   UNL     1       4.369   4.483  16.591  0.00  0.00    +0.000 A 
ATOM     17  C   UNL     1       4.735   5.397  17.600  0.00  0.00    +0.000 A 
ATOM     18  C   UNL     1       5.943   6.087  17.455  0.00  0.00    +0.000 A 
ATOM     19  C   UNL     1       6.758   5.882  16.339  0.00  0.00    +0.000 A 
ENDBRANCH  12  17
BRANCH  12  20
ATOM     20  O   UNL     1       4.575   5.486  19.996  0.00  0.00    +0.000 OA
ATOM     21  H   UNL     1       5.440   5.866  19.763  0.00  0.00    +0.000 HD
ENDBRANCH  12  20
ENDBRANCH   1  12
TORSDOF 3
ENDMDL
MODEL 8
REMARK VINA RESULT:      -7.1      4.094      6.634
REMARK  Name = 
REMARK  4 active torsions:
REMARK  status: ('A' for Active; 'I' for Inactive)
REMARK    1  A    between atoms: C_1  and  C_2
REMARK    2  A    between atoms: C_5  and  C_6
REMARK    3  A    between atoms: C_6  and  O_7
REMARK    4  A    between atoms: C_6  and  C_8
REMARK                            x       y       z     vdW  Elec       q    Type
REMARK                         _______ _______ _______ _____ _____    ______ ____
ROOT
ATOM      1  C   UNL     1       2.565   7.600  17.866  0.00  0.00    +0.000 A 
ATOM      2  C   UNL     1       2.109   6.331  18.212  0.00  0.00    +0.000 A 
ATOM      3  C   UNL     1       2.959   5.243  18.038  0.00  0.00    +0.000 A 
ATOM      4  C   UNL     1       4.248   5.438  17.544  0.00  0.00    +0.000 A 
ATOM      5  C   UNL     1       4.658   6.742  17.263  0.00  0.00    +0.000 A 
ATOM      6  N   UNL     1       3.832   7.812  17.403  0.00  0.00    +0.000 NA
ATOM      7  C   UNL     1       6.061   7.035  16.786  0.00  0.00    +0.000 C 
ATOM      8  C   UNL     1       7.145   6.683  17.811  0.00  0.00    +0.000 C 
ATOM      9  C   UNL     1       7.469   5.191  17.933  0.00  0.00    +0.000 C 
ATOM     10  C   UNL     1       6.307   4.307  18.382  0.00  0.00    +0.000 C 
ATOM     11  C   UNL     1       5.168   4.261  17.369  0.00  0.00    +0.000 C 
ENDROOT
BRANCH   1  12
ATOM     12  C   UNL     1       1.615   8.793  17.968  0.00  0.00    +0.000 C 
BRANCH  12  17
ATOM     13  C   UNL     1      -0.687  10.165  23.167  0.00  0.00    +0.000 C 
ATOM     14  C   UNL     1      -0.091   9.830  21.833  0.00  0.00    +0.000 A 
ATOM     15  C   UNL     1      -0.506  10.469  20.666  0.00  0.00    +0.000 A 
ATOM     16  C   UNL     1       0.055  10.122  19.432  0.00  0.00    +0.000 A 
ATOM     17  C   UNL     1       1.045   9.124  19.340  0.00  0.00    +0.000 A 
ATOM     18  C   UNL     1       1.457   8.496  20.520  0.00  0.00    +0.000 A 
ATOM     19  C   UNL     1       0.897   8.843  21.751  0.00  0.00    +0.000 A 
ENDBRANCH  12  17
BRANCH  12  20
ATOM     20  O   UNL     1       2.285   9.952  17.457  0.00  0.00    +0.000 OA
ATOM     21  H   UNL     1       2.382   9.781  16.503  0.00  0.00    +0.000 HD
ENDBRANCH  12  20
ENDBRANCH   1  12
TORSDOF 3
ENDMDL
MODEL 9
REMARK VINA RESULT:      -7.1      4.402      6.313
REMARK  Name = 
REMARK  4 active torsions:
REMARK  status: ('A' for Active; 'I' for Inactive)
REMARK    1  A    between atoms: C_1  and  C_2
REMARK    2  A    between atoms: C_5  and  C_6
REMARK    3  A    between atoms: C_6  and  O_7
REMARK    4  A    between atoms: C_6  and  C_8
REMARK                            x       y       z     vdW  Elec       q    Type
REMARK                         _______ _______ _______ _____ _____    ______ ____
ROOT
ATOM      1  C   UNL     1       2.306   7.787  17.997  0.00  0.00    +0.000 A 
ATOM      2  C   UNL     1       3.594   7.842  17.473  0.00  0.00    +0.000 A 
ATOM      3  C   UNL     1       4.389   6.701  17.529  0.00  0.00    +0.000 A 
ATOM      4  C   UNL     1       3.883   5.526  18.083  0.00  0.00    +0.000 A 
ATOM      5  C   UNL     1       2.566   5.527  18.546  0.00  0.00    +0.000 A 
ATOM      6  N   UNL     1       1.786   6.640  18.522  0.00  0.00    +0.000 NA
ATOM      7  C   UNL     1       1.932   4.274  19.100  0.00  0.00    +0.000 C 
ATOM      8  C   UNL     1       1.799   3.144  18.073  0.00  0.00    +0.000 C 
ATOM      9  C   UNL     1       3.094   2.386  17.766  0.00  0.00    +0.000 C 
ATOM     10  C   UNL     1       4.218   3.230  17.169  0.00  0.00    +0.000 C 
ATOM     11  C   UNL     1       4.740   4.291  18.131  0.00  0.00    +0.000 C 
ENDROOT
BRANCH   1  12
ATOM     12  C   UNL     1       1.451   9.055  18.022  0.00  0.00    +0.000 C 
BRANCH  12  17
ATOM     13  C   UNL     1      -0.981  10.752  23.063  0.00  0.00    +0.000 C 
ATOM     14  C   UNL     1      -0.351  10.334  21.768  0.00  0.00    +0.000 A 
ATOM     15  C   UNL     1      -0.707  10.924  20.558  0.00  0.00    +0.000 A 
ATOM     16  C   UNL     1      -0.117  10.500  19.363  0.00  0.00    +0.000 A 
ATOM     17  C   UNL     1       0.846   9.471  19.355  0.00  0.00    +0.000 A 
ATOM     18  C   UNL     1       1.200   8.892  20.578  0.00  0.00    +0.000 A 
ATOM     19  C   UNL     1       0.610   9.316  21.771  0.00  0.00    +0.000 A 
ENDBRANCH  12  17
BRANCH  12  20
ATOM     20  O   UNL     1       2.237  10.141  17.514  0.00  0.00    +0.000 OA
ATOM     21  H   UNL     1       3.023   9.718  17.128  0.00  0.00    +0.000 HD
ENDBRANCH  12  20
ENDBRANCH   1  12
TORSDOF 3
ENDMDL
