MODEL 1
REMARK VINA RESULT:      -8.2      0.000      0.000
REMARK  Name = 
REMARK  8 active torsions:
REMARK  status: ('A' for Active; 'I' for Inactive)
REMARK    1  A    between atoms: C_1  and  C_2
REMARK    2  A    between atoms: C_2  and  C_3
REMARK    3  A    between atoms: C_3  and  C_4
REMARK    4  A    between atoms: C_3  and  C_5
REMARK    5  A    between atoms: C_8  and  C_9
REMARK    6  A    between atoms: N_11  and  C_12
REMARK    7  A    between atoms: C_20  and  C_21
REMARK    8  A    between atoms: C_28  and  C_29
REMARK                            x       y       z     vdW  Elec       q    Type
REMARK                         _______ _______ _______ _____ _____    ______ ____
ROOT
ATOM      1  C   UNL     1       4.680   4.639  16.245  0.00  0.00    +0.000 A 
ATOM      2  N   UNL     1       4.202   3.696  17.067  0.00  0.00    +0.000 NA
ATOM      3  N   UNL     1       3.486   4.361  18.013  0.00  0.00    +0.000 N 
ATOM      4  C   UNL     1       3.516   5.754  17.799  0.00  0.00    +0.000 A 
ATOM      5  C   UNL     1       4.299   5.948  16.661  0.00  0.00    +0.000 A 
ATOM      6  C   UNL     1       4.680   7.224  16.001  0.00  0.00    +0.000 C 
ENDROOT
BRANCH   3   7
ATOM      7  C   UNL     1       2.810   3.646  19.061  0.00  0.00    +0.000 A 
ATOM      8  C   UNL     1       1.407   3.753  19.166  0.00  0.00    +0.000 A 
ATOM      9  C   UNL     1       0.733   3.323  20.312  0.00  0.00    +0.000 A 
ATOM     10  C   UNL     1       1.444   2.705  21.331  0.00  0.00    +0.000 A 
ATOM     11 CL   UNL     1       0.636   2.249  22.780  0.00  0.00    +0.000 Cl
ATOM     12  C   UNL     1       2.810   2.474  21.192  0.00  0.00    +0.000 A 
ATOM     13  C   UNL     1       3.501   2.939  20.058  0.00  0.00    +0.000 A 
ATOM     14 CL   UNL     1       5.215   2.698  20.095  0.00  0.00    +0.000 Cl
ENDBRANCH   3   7
BRANCH   4  15
ATOM     15  C   UNL     1       2.867   6.782  18.642  0.00  0.00    +0.000 A 
ATOM     16  C   UNL     1       2.652   6.591  20.015  0.00  0.00    +0.000 A 
ATOM     17  C   UNL     1       1.837   7.470  20.739  0.00  0.00    +0.000 A 
ATOM     18  C   UNL     1       1.319   8.604  20.120  0.00  0.00    +0.000 A 
ATOM     19 CL   UNL     1       0.276   9.657  20.990  0.00  0.00    +0.000 Cl
ATOM     20  C   UNL     1       1.622   8.873  18.789  0.00  0.00    +0.000 A 
ATOM     21  C   UNL     1       2.376   7.956  18.050  0.00  0.00    +0.000 A 
ENDBRANCH   4  15
BRANCH   1  25
ATOM     22  C   UNL     1       6.223   3.794  13.074  0.00  0.00    +0.000 A 
ATOM     23  N   UNL     1       7.276   4.207  13.746  0.00  0.00    +0.000 NA
ATOM     24  N   UNL     1       6.821   4.558  14.987  0.00  0.00    +0.000 NA
ATOM     25  C   UNL     1       5.514   4.342  15.017  0.00  0.00    +0.000 A 
ATOM     26  O   UNL     1       5.064   3.843  13.808  0.00  0.00    +0.000 OA
BRANCH  22  27
ATOM     27  C   UNL     1       6.186   3.325  11.660  0.00  0.00    +0.000 C 
ATOM     28  C   UNL     1       4.755   2.981  11.246  0.00  0.00    +0.000 C 
BRANCH  27  30
ATOM     29  C   UNL     1       6.417   0.843  11.077  0.00  0.00    +0.000 C 
ATOM     30  C   UNL     1       7.136   2.152  11.386  0.00  0.00    +0.000 C 
ENDBRANCH  27  30
ENDBRANCH  22  27
ENDBRANCH   1  25
TORSDOF 5
ENDMDL
MODEL 2
REMARK VINA RESULT:      -7.9      0.661      1.218
REMARK  Name = 
REMARK  8 active torsions:
REMARK  status: ('A' for Active; 'I' for Inactive)
REMARK    1  A    between atoms: C_1  and  C_2
REMARK    2  A    between atoms: C_2  and  C_3
REMARK    3  A    between atoms: C_3  and  C_4
REMARK    4  A    between atoms: C_3  and  C_5
REMARK    5  A    between atoms: C_8  and  C_9
REMARK    6  A    between atoms: N_11  and  C_12
REMARK    7  A    between atoms: C_20  and  C_21
REMARK    8  A    between atoms: C_28  and  C_29
REMARK                            x       y       z     vdW  Elec       q    Type
REMARK                         _______ _______ _______ _____ _____    ______ ____
ROOT
ATOM      1  C   UNL     1       4.819   5.071  16.587  0.00  0.00    +0.000 A 
ATOM      2  N   UNL     1       4.372   4.071  17.358  0.00  0.00    +0.000 NA
ATOM      3  N   UNL     1       3.490   4.641  18.222  0.00  0.00    +0.000 N 
ATOM      4  C   UNL     1       3.381   6.029  18.010  0.00  0.00    +0.000 A 
ATOM      5  C   UNL     1       4.249   6.323  16.958  0.00  0.00    +0.000 A 
ATOM      6  C   UNL     1       4.546   7.641  16.337  0.00  0.00    +0.000 C 
ENDROOT
BRANCH   3   7
ATOM      7  C   UNL     1       2.797   3.843  19.197  0.00  0.00    +0.000 A 
ATOM      8  C   UNL     1       1.398   3.975  19.319  0.00  0.00    +0.000 A 
ATOM      9  C   UNL     1       0.714   3.451  20.419  0.00  0.00    +0.000 A 
ATOM     10  C   UNL     1       1.410   2.717  21.369  0.00  0.00    +0.000 A 
ATOM     11 CL   UNL     1       0.593   2.140  22.768  0.00  0.00    +0.000 Cl
ATOM     12  C   UNL     1       2.770   2.465  21.201  0.00  0.00    +0.000 A 
ATOM     13  C   UNL     1       3.471   3.023  20.117  0.00  0.00    +0.000 A 
ATOM     14 CL   UNL     1       5.178   2.734  20.122  0.00  0.00    +0.000 Cl
ENDBRANCH   3   7
BRANCH   4  15
ATOM     15  C   UNL     1       2.534   6.968  18.779  0.00  0.00    +0.000 A 
ATOM     16  C   UNL     1       1.937   8.089  18.184  0.00  0.00    +0.000 A 
ATOM     17  C   UNL     1       1.337   9.079  18.970  0.00  0.00    +0.000 A 
ATOM     18  C   UNL     1       1.235   8.904  20.347  0.00  0.00    +0.000 A 
ATOM     19 CL   UNL     1       0.546  10.141  21.322  0.00  0.00    +0.000 Cl
ATOM     20  C   UNL     1       1.714   7.741  20.941  0.00  0.00    +0.000 A 
ATOM     21  C   UNL     1       2.377   6.788  20.162  0.00  0.00    +0.000 A 
ENDBRANCH   4  15
BRANCH   1  25
ATOM     22  C   UNL     1       6.796   4.345  13.635  0.00  0.00    +0.000 A 
ATOM     23  N   UNL     1       7.641   5.099  14.303  0.00  0.00    +0.000 NA
ATOM     24  N   UNL     1       7.004   5.443  15.464  0.00  0.00    +0.000 NA
ATOM     25  C   UNL     1       5.804   4.883  15.452  0.00  0.00    +0.000 A 
ATOM     26  O   UNL     1       5.607   4.153  14.294  0.00  0.00    +0.000 OA
BRANCH  22  27
ATOM     27  C   UNL     1       7.005   3.735  12.291  0.00  0.00    +0.000 C 
ATOM     28  C   UNL     1       7.302   4.814  11.251  0.00  0.00    +0.000 C 
BRANCH  27  30
ATOM     29  C   UNL     1       6.279   1.523  11.225  0.00  0.00    +0.000 C 
ATOM     30  C   UNL     1       5.837   2.845  11.842  0.00  0.00    +0.000 C 
ENDBRANCH  27  30
ENDBRANCH  22  27
ENDBRANCH   1  25
TORSDOF 5
ENDMDL
MODEL 3
REMARK VINA RESULT:      -7.9      5.642      9.215
REMARK  Name = 
REMARK  8 active torsions:
REMARK  status: ('A' for Active; 'I' for Inactive)
REMARK    1  A    between atoms: C_1  and  C_2
REMARK    2  A    between atoms: C_2  and  C_3
REMARK    3  A    between atoms: C_3  and  C_4
REMARK    4  A    between atoms: C_3  and  C_5
REMARK    5  A    between atoms: C_8  and  C_9
REMARK    6  A    between atoms: N_11  and  C_12
REMARK    7  A    between atoms: C_20  and  C_21
REMARK    8  A    between atoms: C_28  and  C_29
REMARK                            x       y       z     vdW  Elec       q    Type
REMARK                         _______ _______ _______ _____ _____    ______ ____
ROOT
ATOM      1  C   UNL     1       0.880  10.507  19.489  0.00  0.00    +0.000 A 
ATOM      2  N   UNL     1      -0.159  10.592  20.331  0.00  0.00    +0.000 NA
ATOM      3  N   UNL     1      -0.428  11.920  20.450  0.00  0.00    +0.000 N 
ATOM      4  C   UNL     1       0.461  12.698  19.682  0.00  0.00    +0.000 A 
ATOM      5  C   UNL     1       1.323  11.793  19.063  0.00  0.00    +0.000 A 
ATOM      6  C   UNL     1       2.468  12.070  18.156  0.00  0.00    +0.000 C 
ENDROOT
BRANCH   3   7
ATOM      7  C   UNL     1      -1.510  12.378  21.277  0.00  0.00    +0.000 A 
ATOM      8  C   UNL     1      -1.267  12.631  22.643  0.00  0.00    +0.000 A 
ATOM      9  C   UNL     1      -2.319  12.799  23.547  0.00  0.00    +0.000 A 
ATOM     10  C   UNL     1      -3.626  12.800  23.080  0.00  0.00    +0.000 A 
ATOM     11 CL   UNL     1      -4.930  12.923  24.196  0.00  0.00    +0.000 Cl
ATOM     12  C   UNL     1      -3.883  12.680  21.717  0.00  0.00    +0.000 A 
ATOM     13  C   UNL     1      -2.831  12.471  20.807  0.00  0.00    +0.000 A 
ATOM     14 CL   UNL     1      -3.321  12.204  19.168  0.00  0.00    +0.000 Cl
ENDBRANCH   3   7
BRANCH   4  15
ATOM     15  C   UNL     1       0.475  14.175  19.590  0.00  0.00    +0.000 A 
ATOM     16  C   UNL     1      -0.428  14.879  18.780  0.00  0.00    +0.000 A 
ATOM     17  C   UNL     1      -0.249  16.244  18.532  0.00  0.00    +0.000 A 
ATOM     18  C   UNL     1       0.770  16.939  19.178  0.00  0.00    +0.000 A 
ATOM     19 CL   UNL     1       1.026  18.604  18.837  0.00  0.00    +0.000 Cl
ATOM     20  C   UNL     1       1.600  16.281  20.080  0.00  0.00    +0.000 A 
ATOM     21  C   UNL     1       1.464  14.903  20.269  0.00  0.00    +0.000 A 
ENDBRANCH   4  15
BRANCH   1  25
ATOM     22  C   UNL     1       2.328   7.231  18.922  0.00  0.00    +0.000 A 
ATOM     23  N   UNL     1       2.288   7.687  17.689  0.00  0.00    +0.000 NA
ATOM     24  N   UNL     1       1.755   8.945  17.767  0.00  0.00    +0.000 NA
ATOM     25  C   UNL     1       1.496   9.198  19.041  0.00  0.00    +0.000 A 
ATOM     26  O   UNL     1       1.849   8.129  19.843  0.00  0.00    +0.000 OA
BRANCH  22  27
ATOM     27  C   UNL     1       2.805   5.892  19.370  0.00  0.00    +0.000 C 
ATOM     28  C   UNL     1       2.759   4.891  18.216  0.00  0.00    +0.000 C 
BRANCH  27  30
ATOM     29  C   UNL     1       1.120   4.189  20.274  0.00  0.00    +0.000 C 
ATOM     30  C   UNL     1       2.046   5.358  20.593  0.00  0.00    +0.000 C 
ENDBRANCH  27  30
ENDBRANCH  22  27
ENDBRANCH   1  25
TORSDOF 5
ENDMDL
MODEL 4
REMARK VINA RESULT:      -7.9      5.496      9.234
REMARK  Name = 
REMARK  8 active torsions:
REMARK  status: ('A' for Active; 'I' for Inactive)
REMARK    1  A    between atoms: C_1  and  C_2
REMARK    2  A    between atoms: C_2  and  C_3
REMARK    3  A    between atoms: C_3  and  C_4
REMARK    4  A    between atoms: C_3  and  C_5
REMARK    5  A    between atoms: C_8  and  C_9
REMARK    6  A    between atoms: N_11  and  C_12
REMARK    7  A    between atoms: C_20  and  C_21
REMARK    8  A    between atoms: C_28  and  C_29
REMARK                            x       y       z     vdW  Elec       q    Type
REMARK                         _______ _______ _______ _____ _____    ______ ____
ROOT
ATOM      1  C   UNL     1       1.089   9.393  20.048  0.00  0.00    +0.000 A 
ATOM      2  N   UNL     1       1.502  10.558  19.533  0.00  0.00    +0.000 NA
ATOM      3  N   UNL     1       0.677  11.504  20.057  0.00  0.00    +0.000 N 
ATOM      4  C   UNL     1      -0.286  10.934  20.912  0.00  0.00    +0.000 A 
ATOM      5  C   UNL     1      -0.037   9.562  20.905  0.00  0.00    +0.000 A 
ATOM      6  C   UNL     1      -0.768   8.479  21.617  0.00  0.00    +0.000 C 
ENDROOT
BRANCH   3   7
ATOM      7  C   UNL     1       0.848  12.893  19.726  0.00  0.00    +0.000 A 
ATOM      8  C   UNL     1       1.717  13.681  20.508  0.00  0.00    +0.000 A 
ATOM      9  C   UNL     1       1.708  15.075  20.419  0.00  0.00    +0.000 A 
ATOM     10  C   UNL     1       0.889  15.694  19.486  0.00  0.00    +0.000 A 
ATOM     11 CL   UNL     1       0.809  17.412  19.427  0.00  0.00    +0.000 Cl
ATOM     12  C   UNL     1       0.117  14.929  18.615  0.00  0.00    +0.000 A 
ATOM     13  C   UNL     1       0.092  13.527  18.726  0.00  0.00    +0.000 A 
ATOM     14 CL   UNL     1      -1.019  12.728  17.666  0.00  0.00    +0.000 Cl
ENDBRANCH   3   7
BRANCH   4  15
ATOM     15  C   UNL     1      -1.353  11.660  21.636  0.00  0.00    +0.000 A 
ATOM     16  C   UNL     1      -1.397  11.716  23.037  0.00  0.00    +0.000 A 
ATOM     17  C   UNL     1      -2.530  12.207  23.695  0.00  0.00    +0.000 A 
ATOM     18  C   UNL     1      -3.583  12.744  22.959  0.00  0.00    +0.000 A 
ATOM     19 CL   UNL     1      -4.997  13.300  23.762  0.00  0.00    +0.000 Cl
ATOM     20  C   UNL     1      -3.503  12.808  21.572  0.00  0.00    +0.000 A 
ATOM     21  C   UNL     1      -2.403  12.251  20.914  0.00  0.00    +0.000 A 
ENDBRANCH   4  15
BRANCH   1  25
ATOM     22  C   UNL     1       2.462   6.045  19.809  0.00  0.00    +0.000 A 
ATOM     23  N   UNL     1       2.892   6.557  18.676  0.00  0.00    +0.000 NA
ATOM     24  N   UNL     1       2.436   7.846  18.646  0.00  0.00    +0.000 NA
ATOM     25  C   UNL     1       1.752   8.062  19.759  0.00  0.00    +0.000 A 
ATOM     26  O   UNL     1       1.734   6.934  20.559  0.00  0.00    +0.000 OA
BRANCH  22  27
ATOM     27  C   UNL     1       2.671   4.655  20.304  0.00  0.00    +0.000 C 
ATOM     28  C   UNL     1       3.573   3.874  19.349  0.00  0.00    +0.000 C 
BRANCH  27  30
ATOM     29  C   UNL     1       1.503   2.747  21.550  0.00  0.00    +0.000 C 
ATOM     30  C   UNL     1       1.359   3.901  20.563  0.00  0.00    +0.000 C 
ENDBRANCH  27  30
ENDBRANCH  22  27
ENDBRANCH   1  25
TORSDOF 5
ENDMDL
MODEL 5
REMARK VINA RESULT:      -7.8      5.790      9.108
REMARK  Name = 
REMARK  8 active torsions:
REMARK  status: ('A' for Active; 'I' for Inactive)
REMARK    1  A    between atoms: C_1  and  C_2
REMARK    2  A    between atoms: C_2  and  C_3
REMARK    3  A    between atoms: C_3  and  C_4
REMARK    4  A    between atoms: C_3  and  C_5
REMARK    5  A    between atoms: C_8  and  C_9
REMARK    6  A    between atoms: N_11  and  C_12
REMARK    7  A    between atoms: C_20  and  C_21
REMARK    8  A    between atoms: C_28  and  C_29
REMARK                            x       y       z     vdW  Elec       q    Type
REMARK                         _______ _______ _______ _____ _____    ______ ____
ROOT
ATOM      1  C   UNL     1       0.679  10.656  19.151  0.00  0.00    +0.000 A 
ATOM      2  N   UNL     1      -0.539  10.552  19.700  0.00  0.00    +0.000 NA
ATOM      3  N   UNL     1      -0.930  11.827  19.967  0.00  0.00    +0.000 N 
ATOM      4  C   UNL     1       0.057  12.760  19.594  0.00  0.00    +0.000 A 
ATOM      5  C   UNL     1       1.112  12.011  19.074  0.00  0.00    +0.000 A 
ATOM      6  C   UNL     1       2.421  12.485  18.550  0.00  0.00    +0.000 C 
ENDROOT
BRANCH   3   7
ATOM      7  C   UNL     1      -2.215  12.093  20.555  0.00  0.00    +0.000 A 
ATOM      8  C   UNL     1      -3.308  12.377  19.709  0.00  0.00    +0.000 A 
ATOM      9  C   UNL     1      -4.493  12.916  20.215  0.00  0.00    +0.000 A 
ATOM     10  C   UNL     1      -4.631  13.100  21.583  0.00  0.00    +0.000 A 
ATOM     11 CL   UNL     1      -6.053  13.840  22.206  0.00  0.00    +0.000 Cl
ATOM     12  C   UNL     1      -3.613  12.707  22.448  0.00  0.00    +0.000 A 
ATOM     13  C   UNL     1      -2.401  12.200  21.943  0.00  0.00    +0.000 A 
ATOM     14 CL   UNL     1      -1.184  11.887  23.133  0.00  0.00    +0.000 Cl
ENDBRANCH   3   7
BRANCH   4  15
ATOM     15  C   UNL     1      -0.020  14.229  19.759  0.00  0.00    +0.000 A 
ATOM     16  C   UNL     1       0.079  14.843  21.016  0.00  0.00    +0.000 A 
ATOM     17  C   UNL     1      -0.225  16.200  21.173  0.00  0.00    +0.000 A 
ATOM     18  C   UNL     1      -0.528  16.977  20.058  0.00  0.00    +0.000 A 
ATOM     19 CL   UNL     1      -0.953  18.631  20.252  0.00  0.00    +0.000 Cl
ATOM     20  C   UNL     1      -0.512  16.411  18.787  0.00  0.00    +0.000 A 
ATOM     21  C   UNL     1      -0.279  15.040  18.642  0.00  0.00    +0.000 A 
ENDBRANCH   4  15
BRANCH   1  25
ATOM     22  C   UNL     1       2.535   7.618  18.462  0.00  0.00    +0.000 A 
ATOM     23  N   UNL     1       2.601   8.205  17.287  0.00  0.00    +0.000 NA
ATOM     24  N   UNL     1       1.929   9.389  17.417  0.00  0.00    +0.000 NA
ATOM     25  C   UNL     1       1.485   9.471  18.662  0.00  0.00    +0.000 A 
ATOM     26  O   UNL     1       1.848   8.355  19.394  0.00  0.00    +0.000 OA
BRANCH  22  27
ATOM     27  C   UNL     1       3.094   6.287  18.835  0.00  0.00    +0.000 C 
ATOM     28  C   UNL     1       4.134   5.835  17.810  0.00  0.00    +0.000 C 
BRANCH  27  30
ATOM     29  C   UNL     1       1.718   4.404  17.779  0.00  0.00    +0.000 C 
ATOM     30  C   UNL     1       2.016   5.213  19.036  0.00  0.00    +0.000 C 
ENDBRANCH  27  30
ENDBRANCH  22  27
ENDBRANCH   1  25
TORSDOF 5
ENDMDL
MODEL 6
REMARK VINA RESULT:      -7.8      5.818      9.254
REMARK  Name = 
REMARK  8 active torsions:
REMARK  status: ('A' for Active; 'I' for Inactive)
REMARK    1  A    between atoms: C_1  and  C_2
REMARK    2  A    between atoms: C_2  and  C_3
REMARK    3  A    between atoms: C_3  and  C_4
REMARK    4  A    between atoms: C_3  and  C_5
REMARK    5  A    between atoms: C_8  and  C_9
REMARK    6  A    between atoms: N_11  and  C_12
REMARK    7  A    between atoms: C_20  and  C_21
REMARK    8  A    between atoms: C_28  and  C_29
REMARK                            x       y       z     vdW  Elec       q    Type
REMARK                         _______ _______ _______ _____ _____    ______ ____
ROOT
ATOM      1  C   UNL     1       0.394  10.373  18.698  0.00  0.00    +0.000 A 
ATOM      2  N   UNL     1      -0.920  10.278  18.453  0.00  0.00    +0.000 NA
ATOM      3  N   UNL     1      -1.418  11.530  18.637  0.00  0.00    +0.000 N 
ATOM      4  C   UNL     1      -0.411  12.437  19.017  0.00  0.00    +0.000 A 
ATOM      5  C   UNL     1       0.769  11.696  19.073  0.00  0.00    +0.000 A 
ATOM      6  C   UNL     1       2.136  12.148  19.444  0.00  0.00    +0.000 C 
ENDROOT
BRANCH   3   7
ATOM      7  C   UNL     1      -2.817  11.800  18.438  0.00  0.00    +0.000 A 
ATOM      8  C   UNL     1      -3.590  12.238  19.533  0.00  0.00    +0.000 A 
ATOM      9  C   UNL     1      -4.986  12.242  19.477  0.00  0.00    +0.000 A 
ATOM     10  C   UNL     1      -5.624  11.886  18.297  0.00  0.00    +0.000 A 
ATOM     11 CL   UNL     1      -7.341  11.807  18.245  0.00  0.00    +0.000 Cl
ATOM     12  C   UNL     1      -4.876  11.574  17.164  0.00  0.00    +0.000 A 
ATOM     13  C   UNL     1      -3.471  11.530  17.225  0.00  0.00    +0.000 A 
ATOM     14 CL   UNL     1      -2.691  10.991  15.776  0.00  0.00    +0.000 Cl
ENDBRANCH   3   7
BRANCH   4  15
ATOM     15  C   UNL     1      -0.596  13.874  19.321  0.00  0.00    +0.000 A 
ATOM     16  C   UNL     1      -0.277  14.877  18.394  0.00  0.00    +0.000 A 
ATOM     17  C   UNL     1      -0.243  16.221  18.781  0.00  0.00    +0.000 A 
ATOM     18  C   UNL     1      -0.631  16.582  20.069  0.00  0.00    +0.000 A 
ATOM     19 CL   UNL     1      -0.540  18.226  20.565  0.00  0.00    +0.000 Cl
ATOM     20  C   UNL     1      -1.067  15.612  20.965  0.00  0.00    +0.000 A 
ATOM     21  C   UNL     1      -1.031  14.263  20.597  0.00  0.00    +0.000 A 
ENDBRANCH   4  15
BRANCH   1  25
ATOM     22  C   UNL     1       2.484   7.413  18.852  0.00  0.00    +0.000 A 
ATOM     23  N   UNL     1       2.909   7.943  17.726  0.00  0.00    +0.000 NA
ATOM     24  N   UNL     1       2.188   9.092  17.551  0.00  0.00    +0.000 NA
ATOM     25  C   UNL     1       1.359   9.212  18.577  0.00  0.00    +0.000 A 
ATOM     26  O   UNL     1       1.503   8.157  19.459  0.00  0.00    +0.000 OA
BRANCH  22  27
ATOM     27  C   UNL     1       2.939   6.137  19.474  0.00  0.00    +0.000 C 
ATOM     28  C   UNL     1       3.137   5.061  18.407  0.00  0.00    +0.000 C 
BRANCH  27  30
ATOM     29  C   UNL     1       1.257   4.363  20.236  0.00  0.00    +0.000 C 
ATOM     30  C   UNL     1       2.007   5.643  20.590  0.00  0.00    +0.000 C 
ENDBRANCH  27  30
ENDBRANCH  22  27
ENDBRANCH   1  25
TORSDOF 5
ENDMDL
MODEL 7
REMARK VINA RESULT:      -7.7      6.962     11.238
REMARK  Name = 
REMARK  8 active torsions:
REMARK  status: ('A' for Active; 'I' for Inactive)
REMARK    1  A    between atoms: C_1  and  C_2
REMARK    2  A    between atoms: C_2  and  C_3
REMARK    3  A    between atoms: C_3  and  C_4
REMARK    4  A    between atoms: C_3  and  C_5
REMARK    5  A    between atoms: C_8  and  C_9
REMARK    6  A    between atoms: N_11  and  C_12
REMARK    7  A    between atoms: C_20  and  C_21
REMARK    8  A    between atoms: C_28  and  C_29
REMARK                            x       y       z     vdW  Elec       q    Type
REMARK                         _______ _______ _______ _____ _____    ______ ____
ROOT
ATOM      1  C   UNL     1      -1.822  12.162  20.430  0.00  0.00    +0.000 A 
ATOM      2  N   UNL     1      -1.286  10.965  20.154  0.00  0.00    +0.000 NA
ATOM      3  N   UNL     1       0.021  11.206  19.868  0.00  0.00    +0.000 N 
ATOM      4  C   UNL     1       0.324  12.579  19.950  0.00  0.00    +0.000 A 
ATOM      5  C   UNL     1      -0.867  13.212  20.302  0.00  0.00    +0.000 A 
ATOM      6  C   UNL     1      -1.127  14.663  20.503  0.00  0.00    +0.000 C 
ENDROOT
BRANCH   3   7
ATOM      7  C   UNL     1       0.912  10.126  19.537  0.00  0.00    +0.000 A 
ATOM      8  C   UNL     1       1.374  10.003  18.211  0.00  0.00    +0.000 A 
ATOM      9  C   UNL     1       1.999   8.835  17.767  0.00  0.00    +0.000 A 
ATOM     10  C   UNL     1       2.243   7.808  18.668  0.00  0.00    +0.000 A 
ATOM     11 CL   UNL     1       2.936   6.334  18.113  0.00  0.00    +0.000 Cl
ATOM     12  C   UNL     1       1.910   7.960  20.011  0.00  0.00    +0.000 A 
ATOM     13  C   UNL     1       1.246   9.117  20.456  0.00  0.00    +0.000 A 
ATOM     14 CL   UNL     1       0.776   9.099  22.122  0.00  0.00    +0.000 Cl
ENDBRANCH   3   7
BRANCH   4  15
ATOM     15  C   UNL     1       1.640  13.202  19.683  0.00  0.00    +0.000 A 
ATOM     16  C   UNL     1       2.535  13.521  20.714  0.00  0.00    +0.000 A 
ATOM     17  C   UNL     1       3.662  14.311  20.462  0.00  0.00    +0.000 A 
ATOM     18  C   UNL     1       3.959  14.700  19.158  0.00  0.00    +0.000 A 
ATOM     19 CL   UNL     1       5.312  15.714  18.851  0.00  0.00    +0.000 Cl
ATOM     20  C   UNL     1       3.148  14.290  18.105  0.00  0.00    +0.000 A 
ATOM     21  C   UNL     1       1.984  13.562  18.370  0.00  0.00    +0.000 A 
ENDBRANCH   4  15
BRANCH   1  25
ATOM     22  C   UNL     1      -5.393  12.581  20.900  0.00  0.00    +0.000 A 
ATOM     23  N   UNL     1      -4.980  12.667  22.146  0.00  0.00    +0.000 NA
ATOM     24  N   UNL     1      -3.620  12.527  22.105  0.00  0.00    +0.000 NA
ATOM     25  C   UNL     1      -3.266  12.363  20.840  0.00  0.00    +0.000 A 
ATOM     26  O   UNL     1      -4.369  12.392  20.006  0.00  0.00    +0.000 OA
BRANCH  22  27
ATOM     27  C   UNL     1      -6.800  12.646  20.412  0.00  0.00    +0.000 C 
ATOM     28  C   UNL     1      -7.530  13.836  21.036  0.00  0.00    +0.000 C 
BRANCH  27  30
ATOM     29  C   UNL     1      -7.103  10.189  19.762  0.00  0.00    +0.000 C 
ATOM     30  C   UNL     1      -7.580  11.343  20.637  0.00  0.00    +0.000 C 
ENDBRANCH  27  30
ENDBRANCH  22  27
ENDBRANCH   1  25
TORSDOF 5
ENDMDL
MODEL 8
REMARK VINA RESULT:      -7.7      5.740      9.268
REMARK  Name = 
REMARK  8 active torsions:
REMARK  status: ('A' for Active; 'I' for Inactive)
REMARK    1  A    between atoms: C_1  and  C_2
REMARK    2  A    between atoms: C_2  and  C_3
REMARK    3  A    between atoms: C_3  and  C_4
REMARK    4  A    between atoms: C_3  and  C_5
REMARK    5  A    between atoms: C_8  and  C_9
REMARK    6  A    between atoms: N_11  and  C_12
REMARK    7  A    between atoms: C_20  and  C_21
REMARK    8  A    between atoms: C_28  and  C_29
REMARK                            x       y       z     vdW  Elec       q    Type
REMARK                         _______ _______ _______ _____ _____    ______ ____
ROOT
ATOM      1  C   UNL     1       0.650  10.526  19.252  0.00  0.00    +0.000 A 
ATOM      2  N   UNL     1      -0.575  10.480  19.793  0.00  0.00    +0.000 NA
ATOM      3  N   UNL     1      -0.935  11.776  19.995  0.00  0.00    +0.000 N 
ATOM      4  C   UNL     1       0.080  12.665  19.590  0.00  0.00    +0.000 A 
ATOM      5  C   UNL     1       1.120  11.865  19.117  0.00  0.00    +0.000 A 
ATOM      6  C   UNL     1       2.445  12.280  18.586  0.00  0.00    +0.000 C 
ENDROOT
BRANCH   3   7
ATOM      7  C   UNL     1      -2.219  12.102  20.556  0.00  0.00    +0.000 A 
ATOM      8  C   UNL     1      -3.309  12.318  19.688  0.00  0.00    +0.000 A 
ATOM      9  C   UNL     1      -4.491  12.909  20.142  0.00  0.00    +0.000 A 
ATOM     10  C   UNL     1      -4.627  13.214  21.489  0.00  0.00    +0.000 A 
ATOM     11 CL   UNL     1      -6.044  14.017  22.043  0.00  0.00    +0.000 Cl
ATOM     12  C   UNL     1      -3.612  12.892  22.386  0.00  0.00    +0.000 A 
ATOM     13  C   UNL     1      -2.404  12.333  21.929  0.00  0.00    +0.000 A 
ATOM     14 CL   UNL     1      -1.190  12.118  23.144  0.00  0.00    +0.000 Cl
ENDBRANCH   3   7
BRANCH   4  15
ATOM     15  C   UNL     1       0.039  14.141  19.685  0.00  0.00    +0.000 A 
ATOM     16  C   UNL     1      -0.365  14.945  18.608  0.00  0.00    +0.000 A 
ATOM     17  C   UNL     1      -0.177  16.331  18.644  0.00  0.00    +0.000 A 
ATOM     18  C   UNL     1       0.318  16.935  19.796  0.00  0.00    +0.000 A 
ATOM     19 CL   UNL     1       0.599  18.630  19.825  0.00  0.00    +0.000 Cl
ATOM     20  C   UNL     1       0.609  16.165  20.918  0.00  0.00    +0.000 A 
ATOM     21  C   UNL     1       0.489  14.774  20.854  0.00  0.00    +0.000 A 
ENDBRANCH   4  15
BRANCH   1  25
ATOM     22  C   UNL     1       2.405   7.399  18.715  0.00  0.00    +0.000 A 
ATOM     23  N   UNL     1       2.566   7.964  17.538  0.00  0.00    +0.000 NA
ATOM     24  N   UNL     1       1.941   9.178  17.612  0.00  0.00    +0.000 NA
ATOM     25  C   UNL     1       1.430   9.299  18.828  0.00  0.00    +0.000 A 
ATOM     26  O   UNL     1       1.698   8.180  19.595  0.00  0.00    +0.000 OA
BRANCH  22  27
ATOM     27  C   UNL     1       2.881   6.051  19.138  0.00  0.00    +0.000 C 
ATOM     28  C   UNL     1       2.732   5.046  17.997  0.00  0.00    +0.000 C 
BRANCH  27  30
ATOM     29  C   UNL     1       1.269   4.354  20.176  0.00  0.00    +0.000 C 
ATOM     30  C   UNL     1       2.196   5.541  20.414  0.00  0.00    +0.000 C 
ENDBRANCH  27  30
ENDBRANCH  22  27
ENDBRANCH   1  25
TORSDOF 5
ENDMDL
MODEL 9
REMARK VINA RESULT:      -7.7      5.492      9.321
REMARK  Name = 
REMARK  8 active torsions:
REMARK  status: ('A' for Active; 'I' for Inactive)
REMARK    1  A    between atoms: C_1  and  C_2
REMARK    2  A    between atoms: C_2  and  C_3
REMARK    3  A    between atoms: C_3  and  C_4
REMARK    4  A    between atoms: C_3  and  C_5
REMARK    5  A    between atoms: C_8  and  C_9
REMARK    6  A    between atoms: N_11  and  C_12
REMARK    7  A    between atoms: C_20  and  C_21
REMARK    8  A    between atoms: C_28  and  C_29
REMARK                            x       y       z     vdW  Elec       q    Type
REMARK                         _______ _______ _______ _____ _____    ______ ____
ROOT
ATOM      1  C   UNL     1       1.056  10.453  19.252  0.00  0.00    +0.000 A 
ATOM      2  N   UNL     1       1.350  11.725  18.951  0.00  0.00    +0.000 NA
ATOM      3  N   UNL     1       0.504  12.484  19.698  0.00  0.00    +0.000 N 
ATOM      4  C   UNL     1      -0.353  11.685  20.480  0.00  0.00    +0.000 A 
ATOM      5  C   UNL     1      -0.013  10.364  20.191  0.00  0.00    +0.000 A 
ATOM      6  C   UNL     1      -0.614   9.111  20.719  0.00  0.00    +0.000 C 
ENDROOT
BRANCH   3   7
ATOM      7  C   UNL     1       0.556  13.919  19.634  0.00  0.00    +0.000 A 
ATOM      8  C   UNL     1      -0.402  14.604  18.859  0.00  0.00    +0.000 A 
ATOM      9  C   UNL     1      -0.238  15.952  18.529  0.00  0.00    +0.000 A 
ATOM     10  C   UNL     1       0.844  16.653  19.042  0.00  0.00    +0.000 A 
ATOM     11 CL   UNL     1       1.100  18.288  18.574  0.00  0.00    +0.000 Cl
ATOM     12  C   UNL     1       1.733  16.029  19.914  0.00  0.00    +0.000 A 
ATOM     13  C   UNL     1       1.595  14.662  20.218  0.00  0.00    +0.000 A 
ATOM     14 CL   UNL     1       2.854  14.000  21.204  0.00  0.00    +0.000 Cl
ENDBRANCH   3   7
BRANCH   4  15
ATOM     15  C   UNL     1      -1.411  12.172  21.393  0.00  0.00    +0.000 A 
ATOM     16  C   UNL     1      -1.235  12.205  22.785  0.00  0.00    +0.000 A 
ATOM     17  C   UNL     1      -2.320  12.449  23.634  0.00  0.00    +0.000 A 
ATOM     18  C   UNL     1      -3.565  12.767  23.098  0.00  0.00    +0.000 A 
ATOM     19 CL   UNL     1      -4.911  13.015  24.137  0.00  0.00    +0.000 Cl
ATOM     20  C   UNL     1      -3.728  12.859  21.719  0.00  0.00    +0.000 A 
ATOM     21  C   UNL     1      -2.660  12.543  20.873  0.00  0.00    +0.000 A 
ENDBRANCH   4  15
BRANCH   1  25
ATOM     22  C   UNL     1       2.741   7.376  18.333  0.00  0.00    +0.000 A 
ATOM     23  N   UNL     1       2.772   8.014  17.183  0.00  0.00    +0.000 NA
ATOM     24  N   UNL     1       2.159   9.217  17.401  0.00  0.00    +0.000 NA
ATOM     25  C   UNL     1       1.785   9.259  18.670  0.00  0.00    +0.000 A 
ATOM     26  O   UNL     1       2.136   8.098  19.332  0.00  0.00    +0.000 OA
BRANCH  22  27
ATOM     27  C   UNL     1       3.261   6.008  18.618  0.00  0.00    +0.000 C 
ATOM     28  C   UNL     1       4.137   5.516  17.466  0.00  0.00    +0.000 C 
BRANCH  27  30
ATOM     29  C   UNL     1       1.572   4.315  17.705  0.00  0.00    +0.000 C 
ATOM     30  C   UNL     1       2.153   4.995  18.939  0.00  0.00    +0.000 C 
ENDBRANCH  27  30
ENDBRANCH  22  27
ENDBRANCH   1  25
TORSDOF 5
ENDMDL
