MODEL 1
REMARK VINA RESULT:      -6.6      0.000      0.000
REMARK  Name = 
REMARK  6 active torsions:
REMARK  status: ('A' for Active; 'I' for Inactive)
REMARK    1  A    between atoms: C_2  and  C_3
REMARK    2  A    between atoms: C_3  and  O_4
REMARK    3  A    between atoms: O_4  and  C_5
REMARK    4  A    between atoms: C_5  and  C_7
REMARK    5  A    between atoms: N_14  and  C_15
REMARK    6  A    between atoms: C_15  and  C_16
REMARK                            x       y       z     vdW  Elec       q    Type
REMARK                         _______ _______ _______ _____ _____    ______ ____
ROOT
ATOM      1  C   UNL     1       4.898   5.704  17.125  0.00  0.00    +0.000 C 
ENDROOT
BRANCH   1   3
ATOM      2  O   UNL     1       2.895   6.565  18.186  0.00  0.00    +0.000 OA
ATOM      3  C   UNL     1       3.462   5.615  17.649  0.00  0.00    +0.000 C 
ATOM      4  N   UNL     1       2.870   4.384  17.483  0.00  0.00    +0.000 N 
ATOM      5  H   UNL     1       3.392   3.615  17.081  0.00  0.00    +0.000 HD
BRANCH   4   6
ATOM      6  C   UNL     1       1.503   4.108  17.897  0.00  0.00    +0.000 C 
BRANCH   6   7
ATOM      7  C   UNL     1       1.404   3.323  19.211  0.00  0.00    +0.000 C 
ATOM      8  C   UNL     1       1.159   4.152  20.462  0.00  0.00    +0.000 C 
ATOM      9  C   UNL     1       1.764   3.291  21.541  0.00  0.00    +0.000 C 
ATOM     10  C   UNL     1       2.938   2.646  20.834  0.00  0.00    +0.000 C 
ATOM     11  O   UNL     1       2.617   2.577  19.439  0.00  0.00    +0.000 OA
ENDBRANCH   6   7
ENDBRANCH   4   6
ENDBRANCH   1   3
BRANCH   1  12
ATOM     12  O   UNL     1       5.549   4.432  17.117  0.00  0.00    +0.000 OA
BRANCH  12  13
ATOM     13  C   UNL     1       6.841   4.483  16.710  0.00  0.00    +0.000 C 
ATOM     14  O   UNL     1       7.819   4.503  17.442  0.00  0.00    +0.000 OA
BRANCH  13  15
ATOM     15  C   UNL     1       6.927   4.531  15.236  0.00  0.00    +0.000 A 
ATOM     16  C   UNL     1       7.821   5.424  14.656  0.00  0.00    +0.000 A 
ATOM     17  N   UNL     1       7.988   5.569  13.317  0.00  0.00    +0.000 NA
ATOM     18  C   UNL     1       7.227   4.777  12.523  0.00  0.00    +0.000 A 
ATOM     19  C   UNL     1       6.311   3.855  13.013  0.00  0.00    +0.000 A 
ATOM     20 BR   UNL     1       5.288   2.800  11.831  0.00  0.00    +0.000 Br
ATOM     21  C   UNL     1       6.158   3.725  14.389  0.00  0.00    +0.000 A 
ENDBRANCH  13  15
ENDBRANCH  12  13
ENDBRANCH   1  12
TORSDOF 6
ENDMDL
MODEL 2
REMARK VINA RESULT:      -6.5      2.918      7.192
REMARK  Name = 
REMARK  6 active torsions:
REMARK  status: ('A' for Active; 'I' for Inactive)
REMARK    1  A    between atoms: C_2  and  C_3
REMARK    2  A    between atoms: C_3  and  O_4
REMARK    3  A    between atoms: O_4  and  C_5
REMARK    4  A    between atoms: C_5  and  C_7
REMARK    5  A    between atoms: N_14  and  C_15
REMARK    6  A    between atoms: C_15  and  C_16
REMARK                            x       y       z     vdW  Elec       q    Type
REMARK                         _______ _______ _______ _____ _____    ______ ____
ROOT
ATOM      1  C   UNL     1       5.639   5.974  17.210  0.00  0.00    +0.000 C 
ENDROOT
BRANCH   1   3
ATOM      2  O   UNL     1       7.562   4.659  16.537  0.00  0.00    +0.000 OA
ATOM      3  C   UNL     1       6.555   5.279  16.199  0.00  0.00    +0.000 C 
ATOM      4  N   UNL     1       6.167   5.423  14.886  0.00  0.00    +0.000 N 
ATOM      5  H   UNL     1       5.359   5.985  14.649  0.00  0.00    +0.000 HD
BRANCH   4   6
ATOM      6  C   UNL     1       6.897   4.818  13.782  0.00  0.00    +0.000 C 
BRANCH   6   7
ATOM      7  C   UNL     1       6.223   3.565  13.210  0.00  0.00    +0.000 C 
ATOM      8  C   UNL     1       6.862   2.980  11.961  0.00  0.00    +0.000 C 
ATOM      9  C   UNL     1       5.699   2.284  11.302  0.00  0.00    +0.000 C 
ATOM     10  C   UNL     1       4.533   3.184  11.647  0.00  0.00    +0.000 C 
ATOM     11  O   UNL     1       4.847   3.847  12.878  0.00  0.00    +0.000 OA
ENDBRANCH   6   7
ENDBRANCH   4   6
ENDBRANCH   1   3
BRANCH   1  12
ATOM     12  O   UNL     1       4.256   5.771  16.913  0.00  0.00    +0.000 OA
BRANCH  12  13
ATOM     13  C   UNL     1       3.423   6.151  17.913  0.00  0.00    +0.000 C 
ATOM     14  O   UNL     1       3.312   7.282  18.358  0.00  0.00    +0.000 OA
BRANCH  13  15
ATOM     15  C   UNL     1       2.656   4.996  18.425  0.00  0.00    +0.000 A 
ATOM     16  C   UNL     1       1.816   4.321  17.545  0.00  0.00    +0.000 A 
ATOM     17  N   UNL     1       1.055   3.253  17.893  0.00  0.00    +0.000 NA
ATOM     18  C   UNL     1       1.143   2.839  19.181  0.00  0.00    +0.000 A 
ATOM     19  C   UNL     1       1.957   3.450  20.127  0.00  0.00    +0.000 A 
ATOM     20 BR   UNL     1       2.009   2.809  21.900  0.00  0.00    +0.000 Br
ATOM     21  C   UNL     1       2.727   4.543  19.746  0.00  0.00    +0.000 A 
ENDBRANCH  13  15
ENDBRANCH  12  13
ENDBRANCH   1  12
TORSDOF 6
ENDMDL
MODEL 3
REMARK VINA RESULT:      -6.5      3.190      4.002
REMARK  Name = 
REMARK  6 active torsions:
REMARK  status: ('A' for Active; 'I' for Inactive)
REMARK    1  A    between atoms: C_2  and  C_3
REMARK    2  A    between atoms: C_3  and  O_4
REMARK    3  A    between atoms: O_4  and  C_5
REMARK    4  A    between atoms: C_5  and  C_7
REMARK    5  A    between atoms: N_14  and  C_15
REMARK    6  A    between atoms: C_15  and  C_16
REMARK                            x       y       z     vdW  Elec       q    Type
REMARK                         _______ _______ _______ _____ _____    ______ ____
ROOT
ATOM      1  C   UNL     1       4.401   4.016  15.901  0.00  0.00    +0.000 C 
ENDROOT
BRANCH   1   3
ATOM      2  O   UNL     1       2.310   3.228  16.842  0.00  0.00    +0.000 OA
ATOM      3  C   UNL     1       3.539   3.231  16.893  0.00  0.00    +0.000 C 
ATOM      4  N   UNL     1       4.253   2.547  17.851  0.00  0.00    +0.000 N 
ATOM      5  H   UNL     1       5.262   2.619  17.887  0.00  0.00    +0.000 HD
BRANCH   4   6
ATOM      6  C   UNL     1       3.613   1.727  18.870  0.00  0.00    +0.000 C 
BRANCH   6   7
ATOM      7  C   UNL     1       3.043   2.535  20.042  0.00  0.00    +0.000 C 
ATOM      8  C   UNL     1       1.528   2.655  20.088  0.00  0.00    +0.000 C 
ATOM      9  C   UNL     1       1.332   3.949  20.837  0.00  0.00    +0.000 C 
ATOM     10  C   UNL     1       2.509   4.782  20.377  0.00  0.00    +0.000 C 
ATOM     11  O   UNL     1       3.565   3.880  20.022  0.00  0.00    +0.000 OA
ENDBRANCH   6   7
ENDBRANCH   4   6
ENDBRANCH   1   3
BRANCH   1  12
ATOM     12  O   UNL     1       5.798   3.826  16.132  0.00  0.00    +0.000 OA
BRANCH  12  13
ATOM     13  C   UNL     1       6.563   4.875  15.740  0.00  0.00    +0.000 C 
ATOM     14  O   UNL     1       6.764   5.220  14.587  0.00  0.00    +0.000 OA
BRANCH  13  15
ATOM     15  C   UNL     1       7.154   5.559  16.909  0.00  0.00    +0.000 A 
ATOM     16  C   UNL     1       7.468   4.796  18.029  0.00  0.00    +0.000 A 
ATOM     17  N   UNL     1       8.007   5.306  19.166  0.00  0.00    +0.000 NA
ATOM     18  C   UNL     1       8.247   6.639  19.179  0.00  0.00    +0.000 A 
ATOM     19  C   UNL     1       7.970   7.477  18.106  0.00  0.00    +0.000 A 
ATOM     20 BR   UNL     1       8.331   9.325  18.216  0.00  0.00    +0.000 Br
ATOM     21  C   UNL     1       7.418   6.932  16.953  0.00  0.00    +0.000 A 
ENDBRANCH  13  15
ENDBRANCH  12  13
ENDBRANCH   1  12
TORSDOF 6
ENDMDL
MODEL 4
REMARK VINA RESULT:      -6.5      1.294      1.433
REMARK  Name = 
REMARK  6 active torsions:
REMARK  status: ('A' for Active; 'I' for Inactive)
REMARK    1  A    between atoms: C_2  and  C_3
REMARK    2  A    between atoms: C_3  and  O_4
REMARK    3  A    between atoms: O_4  and  C_5
REMARK    4  A    between atoms: C_5  and  C_7
REMARK    5  A    between atoms: N_14  and  C_15
REMARK    6  A    between atoms: C_15  and  C_16
REMARK                            x       y       z     vdW  Elec       q    Type
REMARK                         _______ _______ _______ _____ _____    ______ ____
ROOT
ATOM      1  C   UNL     1       4.628   4.910  16.975  0.00  0.00    +0.000 C 
ENDROOT
BRANCH   1   3
ATOM      2  O   UNL     1       5.027   5.463  19.302  0.00  0.00    +0.000 OA
ATOM      3  C   UNL     1       4.218   5.352  18.383  0.00  0.00    +0.000 C 
ATOM      4  N   UNL     1       2.872   5.596  18.533  0.00  0.00    +0.000 N 
ATOM      5  H   UNL     1       2.234   5.443  17.762  0.00  0.00    +0.000 HD
BRANCH   4   6
ATOM      6  C   UNL     1       2.291   6.045  19.790  0.00  0.00    +0.000 C 
BRANCH   6   7
ATOM      7  C   UNL     1       1.548   4.942  20.554  0.00  0.00    +0.000 C 
ATOM      8  C   UNL     1       2.400   4.087  21.478  0.00  0.00    +0.000 C 
ATOM      9  C   UNL     1       1.626   2.794  21.521  0.00  0.00    +0.000 C 
ATOM     10  C   UNL     1       1.050   2.704  20.125  0.00  0.00    +0.000 C 
ATOM     11  O   UNL     1       0.906   4.041  19.628  0.00  0.00    +0.000 OA
ENDBRANCH   6   7
ENDBRANCH   4   6
ENDBRANCH   1   3
BRANCH   1  12
ATOM     12  O   UNL     1       5.697   5.701  16.452  0.00  0.00    +0.000 OA
BRANCH  12  13
ATOM     13  C   UNL     1       6.807   4.984  16.147  0.00  0.00    +0.000 C 
ATOM     14  O   UNL     1       7.630   4.568  16.947  0.00  0.00    +0.000 OA
BRANCH  13  15
ATOM     15  C   UNL     1       6.912   4.773  14.688  0.00  0.00    +0.000 A 
ATOM     16  C   UNL     1       7.792   5.575  13.969  0.00  0.00    +0.000 A 
ATOM     17  N   UNL     1       7.973   5.486  12.627  0.00  0.00    +0.000 NA
ATOM     18  C   UNL     1       7.244   4.547  11.977  0.00  0.00    +0.000 A 
ATOM     19  C   UNL     1       6.345   3.700  12.614  0.00  0.00    +0.000 A 
ATOM     20 BR   UNL     1       5.366   2.426  11.626  0.00  0.00    +0.000 Br
ATOM     21  C   UNL     1       6.176   3.811  13.989  0.00  0.00    +0.000 A 
ENDBRANCH  13  15
ENDBRANCH  12  13
ENDBRANCH   1  12
TORSDOF 6
ENDMDL
MODEL 5
REMARK VINA RESULT:      -6.4      4.010      5.208
REMARK  Name = 
REMARK  6 active torsions:
REMARK  status: ('A' for Active; 'I' for Inactive)
REMARK    1  A    between atoms: C_2  and  C_3
REMARK    2  A    between atoms: C_3  and  O_4
REMARK    3  A    between atoms: O_4  and  C_5
REMARK    4  A    between atoms: C_5  and  C_7
REMARK    5  A    between atoms: N_14  and  C_15
REMARK    6  A    between atoms: C_15  and  C_16
REMARK                            x       y       z     vdW  Elec       q    Type
REMARK                         _______ _______ _______ _____ _____    ______ ____
ROOT
ATOM      1  C   UNL     1       2.377   5.317  20.227  0.00  0.00    +0.000 C 
ENDROOT
BRANCH   1   3
ATOM      2  O   UNL     1       2.560   7.228  18.745  0.00  0.00    +0.000 OA
ATOM      3  C   UNL     1       2.201   6.787  19.836  0.00  0.00    +0.000 C 
ATOM      4  N   UNL     1       1.624   7.570  20.810  0.00  0.00    +0.000 N 
ATOM      5  H   UNL     1       1.390   7.176  21.712  0.00  0.00    +0.000 HD
BRANCH   4   6
ATOM      6  C   UNL     1       1.355   8.988  20.619  0.00  0.00    +0.000 C 
BRANCH   6   7
ATOM      7  C   UNL     1       0.862   9.697  21.887  0.00  0.00    +0.000 C 
ATOM      8  C   UNL     1      -0.446   9.183  22.466  0.00  0.00    +0.000 C 
ATOM      9  C   UNL     1      -0.976  10.397  23.186  0.00  0.00    +0.000 C 
ATOM     10  C   UNL     1      -0.511  11.537  22.305  0.00  0.00    +0.000 C 
ATOM     11  O   UNL     1       0.678  11.105  21.631  0.00  0.00    +0.000 OA
ENDBRANCH   6   7
ENDBRANCH   4   6
ENDBRANCH   1   3
BRANCH   1  12
ATOM     12  O   UNL     1       3.660   4.810  19.854  0.00  0.00    +0.000 OA
BRANCH  12  13
ATOM     13  C   UNL     1       3.632   4.007  18.762  0.00  0.00    +0.000 C 
ATOM     14  O   UNL     1       2.732   3.236  18.466  0.00  0.00    +0.000 OA
BRANCH  13  15
ATOM     15  C   UNL     1       4.861   4.168  17.959  0.00  0.00    +0.000 A 
ATOM     16  C   UNL     1       6.046   4.471  18.622  0.00  0.00    +0.000 A 
ATOM     17  N   UNL     1       7.238   4.652  18.000  0.00  0.00    +0.000 NA
ATOM     18  C   UNL     1       7.245   4.517  16.651  0.00  0.00    +0.000 A 
ATOM     19  C   UNL     1       6.112   4.212  15.907  0.00  0.00    +0.000 A 
ATOM     20 BR   UNL     1       6.215   4.051  14.031  0.00  0.00    +0.000 Br
ATOM     21  C   UNL     1       4.902   4.032  16.567  0.00  0.00    +0.000 A 
ENDBRANCH  13  15
ENDBRANCH  12  13
ENDBRANCH   1  12
TORSDOF 6
ENDMDL
MODEL 6
REMARK VINA RESULT:      -6.4      4.253      7.332
REMARK  Name = 
REMARK  6 active torsions:
REMARK  status: ('A' for Active; 'I' for Inactive)
REMARK    1  A    between atoms: C_2  and  C_3
REMARK    2  A    between atoms: C_3  and  O_4
REMARK    3  A    between atoms: O_4  and  C_5
REMARK    4  A    between atoms: C_5  and  C_7
REMARK    5  A    between atoms: N_14  and  C_15
REMARK    6  A    between atoms: C_15  and  C_16
REMARK                            x       y       z     vdW  Elec       q    Type
REMARK                         _______ _______ _______ _____ _____    ______ ____
ROOT
ATOM      1  C   UNL     1       2.430   4.501  17.732  0.00  0.00    +0.000 C 
ENDROOT
BRANCH   1   3
ATOM      2  O   UNL     1       4.043   2.707  17.488  0.00  0.00    +0.000 OA
ATOM      3  C   UNL     1       3.759   3.886  17.282  0.00  0.00    +0.000 C 
ATOM      4  N   UNL     1       4.607   4.764  16.648  0.00  0.00    +0.000 N 
ATOM      5  H   UNL     1       4.353   5.738  16.546  0.00  0.00    +0.000 HD
BRANCH   4   6
ATOM      6  C   UNL     1       5.907   4.364  16.130  0.00  0.00    +0.000 C 
BRANCH   6   7
ATOM      7  C   UNL     1       7.085   5.081  16.801  0.00  0.00    +0.000 C 
ATOM      8  C   UNL     1       7.084   5.076  18.322  0.00  0.00    +0.000 C 
ATOM      9  C   UNL     1       7.867   6.323  18.646  0.00  0.00    +0.000 C 
ATOM     10  C   UNL     1       7.474   7.264  17.528  0.00  0.00    +0.000 C 
ATOM     11  O   UNL     1       7.126   6.463  16.390  0.00  0.00    +0.000 OA
ENDBRANCH   6   7
ENDBRANCH   4   6
ENDBRANCH   1   3
BRANCH   1  12
ATOM     12  O   UNL     1       2.546   5.900  17.997  0.00  0.00    +0.000 OA
BRANCH  12  13
ATOM     13  C   UNL     1       2.658   6.197  19.315  0.00  0.00    +0.000 C 
ATOM     14  O   UNL     1       3.211   5.508  20.157  0.00  0.00    +0.000 OA
BRANCH  13  15
ATOM     15  C   UNL     1       1.999   7.483  19.622  0.00  0.00    +0.000 A 
ATOM     16  C   UNL     1       1.936   8.446  18.620  0.00  0.00    +0.000 A 
ATOM     17  N   UNL     1       1.365   9.668  18.778  0.00  0.00    +0.000 NA
ATOM     18  C   UNL     1       0.828   9.933  19.993  0.00  0.00    +0.000 A 
ATOM     19  C   UNL     1       0.841   9.031  21.050  0.00  0.00    +0.000 A 
ATOM     20 BR   UNL     1       0.075   9.492  22.710  0.00  0.00    +0.000 Br
ATOM     21  C   UNL     1       1.432   7.787  20.864  0.00  0.00    +0.000 A 
ENDBRANCH  13  15
ENDBRANCH  12  13
ENDBRANCH   1  12
TORSDOF 6
ENDMDL
MODEL 7
REMARK VINA RESULT:      -6.4      1.639      2.110
REMARK  Name = 
REMARK  6 active torsions:
REMARK  status: ('A' for Active; 'I' for Inactive)
REMARK    1  A    between atoms: C_2  and  C_3
REMARK    2  A    between atoms: C_3  and  O_4
REMARK    3  A    between atoms: O_4  and  C_5
REMARK    4  A    between atoms: C_5  and  C_7
REMARK    5  A    between atoms: N_14  and  C_15
REMARK    6  A    between atoms: C_15  and  C_16
REMARK                            x       y       z     vdW  Elec       q    Type
REMARK                         _______ _______ _______ _____ _____    ______ ____
ROOT
ATOM      1  C   UNL     1       7.181   4.928  17.569  0.00  0.00    +0.000 C 
ENDROOT
BRANCH   1   3
ATOM      2  O   UNL     1       6.155   5.463  19.700  0.00  0.00    +0.000 OA
ATOM      3  C   UNL     1       6.248   4.679  18.757  0.00  0.00    +0.000 C 
ATOM      4  N   UNL     1       5.539   3.501  18.687  0.00  0.00    +0.000 N 
ATOM      5  H   UNL     1       5.685   2.861  17.917  0.00  0.00    +0.000 HD
BRANCH   4   6
ATOM      6  C   UNL     1       4.587   3.097  19.711  0.00  0.00    +0.000 C 
BRANCH   6   7
ATOM      7  C   UNL     1       3.164   3.615  19.467  0.00  0.00    +0.000 C 
ATOM      8  C   UNL     1       2.640   4.618  20.482  0.00  0.00    +0.000 C 
ATOM      9  C   UNL     1       1.150   4.410  20.398  0.00  0.00    +0.000 C 
ATOM     10  C   UNL     1       1.034   2.926  20.126  0.00  0.00    +0.000 C 
ATOM     11  O   UNL     1       2.229   2.516  19.449  0.00  0.00    +0.000 OA
ENDBRANCH   6   7
ENDBRANCH   4   6
ENDBRANCH   1   3
BRANCH   1  12
ATOM     12  O   UNL     1       6.560   5.716  16.551  0.00  0.00    +0.000 OA
BRANCH  12  13
ATOM     13  C   UNL     1       5.647   5.034  15.816  0.00  0.00    +0.000 C 
ATOM     14  O   UNL     1       4.527   4.718  16.184  0.00  0.00    +0.000 OA
BRANCH  13  15
ATOM     15  C   UNL     1       6.191   4.698  14.484  0.00  0.00    +0.000 A 
ATOM     16  C   UNL     1       7.277   5.428  14.012  0.00  0.00    +0.000 A 
ATOM     17  N   UNL     1       7.862   5.222  12.805  0.00  0.00    +0.000 NA
ATOM     18  C   UNL     1       7.338   4.235  12.038  0.00  0.00    +0.000 A 
ATOM     19  C   UNL     1       6.258   3.453  12.429  0.00  0.00    +0.000 A 
ATOM     20 BR   UNL     1       5.591   2.105  11.291  0.00  0.00    +0.000 Br
ATOM     21  C   UNL     1       5.676   3.684  13.670  0.00  0.00    +0.000 A 
ENDBRANCH  13  15
ENDBRANCH  12  13
ENDBRANCH   1  12
TORSDOF 6
ENDMDL
MODEL 8
REMARK VINA RESULT:      -6.3      2.669      7.078
REMARK  Name = 
REMARK  6 active torsions:
REMARK  status: ('A' for Active; 'I' for Inactive)
REMARK    1  A    between atoms: C_2  and  C_3
REMARK    2  A    between atoms: C_3  and  O_4
REMARK    3  A    between atoms: O_4  and  C_5
REMARK    4  A    between atoms: C_5  and  C_7
REMARK    5  A    between atoms: N_14  and  C_15
REMARK    6  A    between atoms: C_15  and  C_16
REMARK                            x       y       z     vdW  Elec       q    Type
REMARK                         _______ _______ _______ _____ _____    ______ ____
ROOT
ATOM      1  C   UNL     1       5.542   6.334  17.410  0.00  0.00    +0.000 C 
ENDROOT
BRANCH   1   3
ATOM      2  O   UNL     1       7.653   5.299  16.819  0.00  0.00    +0.000 OA
ATOM      3  C   UNL     1       6.545   5.686  16.452  0.00  0.00    +0.000 C 
ATOM      4  N   UNL     1       6.109   5.590  15.150  0.00  0.00    +0.000 N 
ATOM      5  H   UNL     1       5.209   5.967  14.882  0.00  0.00    +0.000 HD
BRANCH   4   6
ATOM      6  C   UNL     1       6.911   4.986  14.097  0.00  0.00    +0.000 C 
BRANCH   6   7
ATOM      7  C   UNL     1       6.275   3.735  13.479  0.00  0.00    +0.000 C 
ATOM      8  C   UNL     1       6.860   3.280  12.151  0.00  0.00    +0.000 C 
ATOM      9  C   UNL     1       5.698   2.559  11.519  0.00  0.00    +0.000 C 
ATOM     10  C   UNL     1       4.506   3.355  12.004  0.00  0.00    +0.000 C 
ATOM     11  O   UNL     1       4.865   3.949  13.259  0.00  0.00    +0.000 OA
ENDBRANCH   6   7
ENDBRANCH   4   6
ENDBRANCH   1   3
BRANCH   1  12
ATOM     12  O   UNL     1       4.222   6.375  16.862  0.00  0.00    +0.000 OA
BRANCH  12  13
ATOM     13  C   UNL     1       3.334   7.052  17.631  0.00  0.00    +0.000 C 
ATOM     14  O   UNL     1       3.136   8.256  17.599  0.00  0.00    +0.000 OA
BRANCH  13  15
ATOM     15  C   UNL     1       2.627   6.135  18.549  0.00  0.00    +0.000 A 
ATOM     16  C   UNL     1       2.352   6.576  19.839  0.00  0.00    +0.000 A 
ATOM     17  N   UNL     1       1.717   5.828  20.777  0.00  0.00    +0.000 NA
ATOM     18  C   UNL     1       1.336   4.582  20.402  0.00  0.00    +0.000 A 
ATOM     19  C   UNL     1       1.565   4.060  19.135  0.00  0.00    +0.000 A 
ATOM     20 BR   UNL     1       1.005   2.311  18.706  0.00  0.00    +0.000 Br
ATOM     21  C   UNL     1       2.218   4.845  18.193  0.00  0.00    +0.000 A 
ENDBRANCH  13  15
ENDBRANCH  12  13
ENDBRANCH   1  12
TORSDOF 6
ENDMDL
MODEL 9
REMARK VINA RESULT:      -6.3      3.476      6.922
REMARK  Name = 
REMARK  6 active torsions:
REMARK  status: ('A' for Active; 'I' for Inactive)
REMARK    1  A    between atoms: C_2  and  C_3
REMARK    2  A    between atoms: C_3  and  O_4
REMARK    3  A    between atoms: O_4  and  C_5
REMARK    4  A    between atoms: C_5  and  C_7
REMARK    5  A    between atoms: N_14  and  C_15
REMARK    6  A    between atoms: C_15  and  C_16
REMARK                            x       y       z     vdW  Elec       q    Type
REMARK                         _______ _______ _______ _____ _____    ______ ____
ROOT
ATOM      1  C   UNL     1       3.107   2.014  19.034  0.00  0.00    +0.000 C 
ENDROOT
BRANCH   1   3
ATOM      2  O   UNL     1       5.171   2.408  20.244  0.00  0.00    +0.000 OA
ATOM      3  C   UNL     1       4.478   2.658  19.260  0.00  0.00    +0.000 C 
ATOM      4  N   UNL     1       4.856   3.549  18.281  0.00  0.00    +0.000 N 
ATOM      5  H   UNL     1       4.232   3.763  17.514  0.00  0.00    +0.000 HD
BRANCH   4   6
ATOM      6  C   UNL     1       6.133   4.247  18.307  0.00  0.00    +0.000 C 
BRANCH   6   7
ATOM      7  C   UNL     1       6.396   5.097  17.058  0.00  0.00    +0.000 C 
ATOM      8  C   UNL     1       5.195   5.341  16.158  0.00  0.00    +0.000 C 
ATOM      9  C   UNL     1       5.841   5.558  14.814  0.00  0.00    +0.000 C 
ATOM     10  C   UNL     1       7.034   4.629  14.863  0.00  0.00    +0.000 C 
ATOM     11  O   UNL     1       7.410   4.479  16.238  0.00  0.00    +0.000 OA
ENDBRANCH   6   7
ENDBRANCH   4   6
ENDBRANCH   1   3
BRANCH   1  12
ATOM     12  O   UNL     1       2.084   2.986  18.810  0.00  0.00    +0.000 OA
BRANCH  12  13
ATOM     13  C   UNL     1       1.714   3.656  19.930  0.00  0.00    +0.000 C 
ATOM     14  O   UNL     1       1.313   3.148  20.965  0.00  0.00    +0.000 OA
BRANCH  13  15
ATOM     15  C   UNL     1       1.843   5.115  19.736  0.00  0.00    +0.000 A 
ATOM     16  C   UNL     1       2.344   5.577  18.524  0.00  0.00    +0.000 A 
ATOM     17  N   UNL     1       2.518   6.889  18.226  0.00  0.00    +0.000 NA
ATOM     18  C   UNL     1       2.167   7.780  19.185  0.00  0.00    +0.000 A 
ATOM     19  C   UNL     1       1.654   7.411  20.422  0.00  0.00    +0.000 A 
ATOM     20 BR   UNL     1       1.201   8.721  21.700  0.00  0.00    +0.000 Br
ATOM     21  C   UNL     1       1.487   6.060  20.704  0.00  0.00    +0.000 A 
ENDBRANCH  13  15
ENDBRANCH  12  13
ENDBRANCH   1  12
TORSDOF 6
ENDMDL
