MODEL 1
REMARK VINA RESULT:      -8.0      0.000      0.000
REMARK  Name = 
REMARK  10 active torsions:
REMARK  status: ('A' for Active; 'I' for Inactive)
REMARK    1  A    between atoms: O_1  and  C_2
REMARK    2  A    between atoms: C_3  and  O_4
REMARK    3  A    between atoms: C_7  and  O_8
REMARK    4  A    between atoms: O_8  and  C_9
REMARK    5  A    between atoms: C_14  and  O_15
REMARK    6  A    between atoms: O_15  and  C_16
REMARK    7  A    between atoms: C_19  and  O_20
REMARK    8  A    between atoms: C_21  and  O_22
REMARK    9  A    between atoms: C_23  and  O_24
REMARK   10  A    between atoms: C_29  and  O_30
REMARK                            x       y       z     vdW  Elec       q    Type
REMARK                         _______ _______ _______ _____ _____    ______ ____
ROOT
ATOM      1  C   UNL     1       1.978   7.562  19.516  0.00  0.00    +0.000 A 
ATOM      2  C   UNL     1       2.415   7.661  18.193  0.00  0.00    +0.000 A 
ATOM      3  C   UNL     1       2.195   8.819  17.456  0.00  0.00    +0.000 A 
ATOM      4  C   UNL     1       1.612   9.921  18.070  0.00  0.00    +0.000 A 
ATOM      5  C   UNL     1       1.257   9.909  19.428  0.00  0.00    +0.000 A 
ATOM      6  C   UNL     1       0.751  11.067  20.069  0.00  0.00    +0.000 A 
ATOM      7  C   UNL     1       0.342  11.012  21.404  0.00  0.00    +0.000 A 
ATOM      8  C   UNL     1       0.424   9.813  22.107  0.00  0.00    +0.000 A 
ATOM      9  C   UNL     1       0.958   8.676  21.501  0.00  0.00    +0.000 A 
ATOM     10  C   UNL     1       1.403   8.688  20.159  0.00  0.00    +0.000 A 
ENDROOT
BRANCH   1  11
ATOM     11  O   UNL     1       2.130   6.389  20.245  0.00  0.00    +0.000 OA
BRANCH  11  16
ATOM     12  C   UNL     1       3.919   3.225  19.114  0.00  0.00    +0.000 C 
ATOM     13  C   UNL     1       2.692   2.326  19.287  0.00  0.00    +0.000 C 
ATOM     14  C   UNL     1       1.444   3.090  18.865  0.00  0.00    +0.000 C 
ATOM     15  O   UNL     1       1.304   4.271  19.637  0.00  0.00    +0.000 OA
ATOM     16  C   UNL     1       2.381   5.203  19.465  0.00  0.00    +0.000 C 
ATOM     17  C   UNL     1       3.741   4.569  19.858  0.00  0.00    +0.000 C 
BRANCH  12  18
ATOM     18  O   UNL     1       5.087   2.530  19.565  0.00  0.00    +0.000 OA
ATOM     19  H   UNL     1       4.933   2.311  20.507  0.00  0.00    +0.000 HD
ENDBRANCH  12  18
BRANCH  13  20
ATOM     20  O   UNL     1       2.871   1.126  18.528  0.00  0.00    +0.000 OA
ATOM     21  H   UNL     1       3.716   1.175  18.048  0.00  0.00    +0.000 HD
ENDBRANCH  13  20
BRANCH  17  22
ATOM     22  O   UNL     1       4.822   5.467  19.531  0.00  0.00    +0.000 OA
ATOM     23  H   UNL     1       4.506   6.130  18.895  0.00  0.00    +0.000 HD
ENDBRANCH  17  22
ENDBRANCH  11  16
ENDBRANCH   1  11
BRANCH   6  24
ATOM     24  O   UNL     1       0.746  12.236  19.337  0.00  0.00    +0.000 OA
BRANCH  24  25
ATOM     25  C   UNL     1       1.777  13.204  19.609  0.00  0.00    +0.000 C 
ATOM     26  O   UNL     1       1.210  14.318  20.303  0.00  0.00    +0.000 OA
ATOM     27  C   UNL     1       2.088  15.418  20.455  0.00  0.00    +0.000 C 
ATOM     28  C   UNL     1       2.372  16.006  19.084  0.00  0.00    +0.000 C 
ATOM     29  C   UNL     1       3.128  14.955  18.269  0.00  0.00    +0.000 C 
ATOM     30  C   UNL     1       2.400  13.605  18.241  0.00  0.00    +0.000 C 
BRANCH  28  31
ATOM     31  O   UNL     1       3.125  17.214  19.174  0.00  0.00    +0.000 OA
ATOM     32  H   UNL     1       3.740  17.145  19.926  0.00  0.00    +0.000 HD
ENDBRANCH  28  31
BRANCH  29  33
ATOM     33  O   UNL     1       3.339  15.381  16.910  0.00  0.00    +0.000 OA
ATOM     34  H   UNL     1       3.930  16.157  16.927  0.00  0.00    +0.000 HD
ENDBRANCH  29  33
BRANCH  30  35
ATOM     35  O   UNL     1       3.357  12.615  17.805  0.00  0.00    +0.000 OA
ATOM     36  H   UNL     1       4.012  12.538  18.527  0.00  0.00    +0.000 HD
ENDBRANCH  30  35
ENDBRANCH  24  25
ENDBRANCH   6  24
TORSDOF 10
ENDMDL
MODEL 2
REMARK VINA RESULT:      -7.9      2.358      3.527
REMARK  Name = 
REMARK  10 active torsions:
REMARK  status: ('A' for Active; 'I' for Inactive)
REMARK    1  A    between atoms: O_1  and  C_2
REMARK    2  A    between atoms: C_3  and  O_4
REMARK    3  A    between atoms: C_7  and  O_8
REMARK    4  A    between atoms: O_8  and  C_9
REMARK    5  A    between atoms: C_14  and  O_15
REMARK    6  A    between atoms: O_15  and  C_16
REMARK    7  A    between atoms: C_19  and  O_20
REMARK    8  A    between atoms: C_21  and  O_22
REMARK    9  A    between atoms: C_23  and  O_24
REMARK   10  A    between atoms: C_29  and  O_30
REMARK                            x       y       z     vdW  Elec       q    Type
REMARK                         _______ _______ _______ _____ _____    ______ ____
ROOT
ATOM      1  C   UNL     1       1.898   7.670  19.651  0.00  0.00    +0.000 A 
ATOM      2  C   UNL     1       2.398   7.878  18.364  0.00  0.00    +0.000 A 
ATOM      3  C   UNL     1       2.108   9.047  17.669  0.00  0.00    +0.000 A 
ATOM      4  C   UNL     1       1.388  10.055  18.297  0.00  0.00    +0.000 A 
ATOM      5  C   UNL     1       0.959   9.940  19.629  0.00  0.00    +0.000 A 
ATOM      6  C   UNL     1       0.309  11.010  20.290  0.00  0.00    +0.000 A 
ATOM      7  C   UNL     1      -0.168  10.848  21.594  0.00  0.00    +0.000 A 
ATOM      8  C   UNL     1      -0.010   9.627  22.244  0.00  0.00    +0.000 A 
ATOM      9  C   UNL     1       0.665   8.578  21.620  0.00  0.00    +0.000 A 
ATOM     10  C   UNL     1       1.181   8.701  20.309  0.00  0.00    +0.000 A 
ENDROOT
BRANCH   1  11
ATOM     11  O   UNL     1       2.121   6.479  20.334  0.00  0.00    +0.000 OA
BRANCH  11  16
ATOM     12  C   UNL     1       3.864   3.354  19.035  0.00  0.00    +0.000 C 
ATOM     13  C   UNL     1       2.638   2.453  19.211  0.00  0.00    +0.000 C 
ATOM     14  C   UNL     1       1.382   3.235  18.854  0.00  0.00    +0.000 C 
ATOM     15  O   UNL     1       1.269   4.388  19.673  0.00  0.00    +0.000 OA
ATOM     16  C   UNL     1       2.345   5.322  19.504  0.00  0.00    +0.000 C 
ATOM     17  C   UNL     1       3.713   4.670  19.833  0.00  0.00    +0.000 C 
BRANCH  12  18
ATOM     18  O   UNL     1       5.042   2.639  19.426  0.00  0.00    +0.000 OA
ATOM     19  H   UNL     1       4.883   2.322  20.339  0.00  0.00    +0.000 HD
ENDBRANCH  12  18
BRANCH  13  20
ATOM     20  O   UNL     1       2.790   1.281  18.403  0.00  0.00    +0.000 OA
ATOM     21  H   UNL     1       3.597   0.809  18.675  0.00  0.00    +0.000 HD
ENDBRANCH  13  20
BRANCH  17  22
ATOM     22  O   UNL     1       4.788   5.577  19.508  0.00  0.00    +0.000 OA
ATOM     23  H   UNL     1       5.158   5.337  18.643  0.00  0.00    +0.000 HD
ENDBRANCH  17  22
ENDBRANCH  11  16
ENDBRANCH   1  11
BRANCH   6  24
ATOM     24  O   UNL     1       0.232  12.210  19.614  0.00  0.00    +0.000 OA
BRANCH  24  25
ATOM     25  C   UNL     1      -1.073  12.785  19.413  0.00  0.00    +0.000 C 
ATOM     26  O   UNL     1      -1.692  13.013  20.682  0.00  0.00    +0.000 OA
ATOM     27  C   UNL     1      -3.052  13.398  20.607  0.00  0.00    +0.000 C 
ATOM     28  C   UNL     1      -3.858  12.231  20.064  0.00  0.00    +0.000 C 
ATOM     29  C   UNL     1      -3.399  11.970  18.629  0.00  0.00    +0.000 C 
ATOM     30  C   UNL     1      -1.878  11.793  18.525  0.00  0.00    +0.000 C 
BRANCH  28  31
ATOM     31  O   UNL     1      -5.258  12.492  20.108  0.00  0.00    +0.000 OA
ATOM     32  H   UNL     1      -5.649  12.259  19.247  0.00  0.00    +0.000 HD
ENDBRANCH  28  31
BRANCH  29  33
ATOM     33  O   UNL     1      -4.027  10.801  18.069  0.00  0.00    +0.000 OA
ATOM     34  H   UNL     1      -4.577  11.088  17.317  0.00  0.00    +0.000 HD
ENDBRANCH  29  33
BRANCH  30  35
ATOM     35  O   UNL     1      -1.525  11.950  17.134  0.00  0.00    +0.000 OA
ATOM     36  H   UNL     1      -0.601  12.269  17.126  0.00  0.00    +0.000 HD
ENDBRANCH  30  35
ENDBRANCH  24  25
ENDBRANCH   6  24
TORSDOF 10
ENDMDL
MODEL 3
REMARK VINA RESULT:      -7.9      1.581      1.652
REMARK  Name = 
REMARK  10 active torsions:
REMARK  status: ('A' for Active; 'I' for Inactive)
REMARK    1  A    between atoms: O_1  and  C_2
REMARK    2  A    between atoms: C_3  and  O_4
REMARK    3  A    between atoms: C_7  and  O_8
REMARK    4  A    between atoms: O_8  and  C_9
REMARK    5  A    between atoms: C_14  and  O_15
REMARK    6  A    between atoms: O_15  and  C_16
REMARK    7  A    between atoms: C_19  and  O_20
REMARK    8  A    between atoms: C_21  and  O_22
REMARK    9  A    between atoms: C_23  and  O_24
REMARK   10  A    between atoms: C_29  and  O_30
REMARK                            x       y       z     vdW  Elec       q    Type
REMARK                         _______ _______ _______ _____ _____    ______ ____
ROOT
ATOM      1  C   UNL     1       2.071   7.743  19.581  0.00  0.00    +0.000 A 
ATOM      2  C   UNL     1       2.197   8.060  18.227  0.00  0.00    +0.000 A 
ATOM      3  C   UNL     1       1.474   9.110  17.672  0.00  0.00    +0.000 A 
ATOM      4  C   UNL     1       0.686   9.908  18.493  0.00  0.00    +0.000 A 
ATOM      5  C   UNL     1       0.614   9.699  19.879  0.00  0.00    +0.000 A 
ATOM      6  C   UNL     1      -0.116  10.573  20.720  0.00  0.00    +0.000 A 
ATOM      7  C   UNL     1      -0.229  10.307  22.088  0.00  0.00    +0.000 A 
ATOM      8  C   UNL     1       0.373   9.172  22.625  0.00  0.00    +0.000 A 
ATOM      9  C   UNL     1       1.130   8.325  21.816  0.00  0.00    +0.000 A 
ATOM     10  C   UNL     1       1.288   8.564  20.432  0.00  0.00    +0.000 A 
ENDROOT
BRANCH   1  11
ATOM     11  O   UNL     1       2.734   6.656  20.138  0.00  0.00    +0.000 OA
BRANCH  11  16
ATOM     12  C   UNL     1       4.015   3.303  18.866  0.00  0.00    +0.000 C 
ATOM     13  C   UNL     1       2.661   2.601  19.001  0.00  0.00    +0.000 C 
ATOM     14  C   UNL     1       1.550   3.567  18.615  0.00  0.00    +0.000 C 
ATOM     15  O   UNL     1       1.591   4.721  19.438  0.00  0.00    +0.000 OA
ATOM     16  C   UNL     1       2.802   5.480  19.306  0.00  0.00    +0.000 C 
ATOM     17  C   UNL     1       4.044   4.625  19.669  0.00  0.00    +0.000 C 
BRANCH  12  18
ATOM     18  O   UNL     1       5.057   2.416  19.285  0.00  0.00    +0.000 OA
ATOM     19  H   UNL     1       5.702   2.961  19.782  0.00  0.00    +0.000 HD
ENDBRANCH  12  18
BRANCH  13  20
ATOM     20  O   UNL     1       2.655   1.421  18.189  0.00  0.00    +0.000 OA
ATOM     21  H   UNL     1       3.507   0.960  18.291  0.00  0.00    +0.000 HD
ENDBRANCH  13  20
BRANCH  17  22
ATOM     22  O   UNL     1       5.254   5.357  19.381  0.00  0.00    +0.000 OA
ATOM     23  H   UNL     1       5.222   6.217  19.832  0.00  0.00    +0.000 HD
ENDBRANCH  17  22
ENDBRANCH  11  16
ENDBRANCH   1  11
BRANCH   6  24
ATOM     24  O   UNL     1      -0.643  11.708  20.139  0.00  0.00    +0.000 OA
BRANCH  24  25
ATOM     25  C   UNL     1       0.268  12.764  19.780  0.00  0.00    +0.000 C 
ATOM     26  O   UNL     1       0.824  13.334  20.968  0.00  0.00    +0.000 OA
ATOM     27  C   UNL     1       1.587  14.507  20.751  0.00  0.00    +0.000 C 
ATOM     28  C   UNL     1       0.658  15.609  20.272  0.00  0.00    +0.000 C 
ATOM     29  C   UNL     1       0.099  15.194  18.910  0.00  0.00    +0.000 C 
ATOM     30  C   UNL     1      -0.537  13.797  18.941  0.00  0.00    +0.000 C 
BRANCH  28  31
ATOM     31  O   UNL     1       1.330  16.862  20.182  0.00  0.00    +0.000 OA
ATOM     32  H   UNL     1       1.421  17.235  21.077  0.00  0.00    +0.000 HD
ENDBRANCH  28  31
BRANCH  29  33
ATOM     33  O   UNL     1      -0.886  16.126  18.428  0.00  0.00    +0.000 OA
ATOM     34  H   UNL     1      -0.899  16.073  17.454  0.00  0.00    +0.000 HD
ENDBRANCH  29  33
BRANCH  30  35
ATOM     35  O   UNL     1      -0.664  13.356  17.572  0.00  0.00    +0.000 OA
ATOM     36  H   UNL     1      -0.943  12.420  17.617  0.00  0.00    +0.000 HD
ENDBRANCH  30  35
ENDBRANCH  24  25
ENDBRANCH   6  24
TORSDOF 10
ENDMDL
MODEL 4
REMARK VINA RESULT:      -7.7      3.119      9.251
REMARK  Name = 
REMARK  10 active torsions:
REMARK  status: ('A' for Active; 'I' for Inactive)
REMARK    1  A    between atoms: O_1  and  C_2
REMARK    2  A    between atoms: C_3  and  O_4
REMARK    3  A    between atoms: C_7  and  O_8
REMARK    4  A    between atoms: O_8  and  C_9
REMARK    5  A    between atoms: C_14  and  O_15
REMARK    6  A    between atoms: O_15  and  C_16
REMARK    7  A    between atoms: C_19  and  O_20
REMARK    8  A    between atoms: C_21  and  O_22
REMARK    9  A    between atoms: C_23  and  O_24
REMARK   10  A    between atoms: C_29  and  O_30
REMARK                            x       y       z     vdW  Elec       q    Type
REMARK                         _______ _______ _______ _____ _____    ______ ____
ROOT
ATOM      1  C   UNL     1      -0.053   9.918  20.260  0.00  0.00    +0.000 A 
ATOM      2  C   UNL     1      -0.323   9.405  21.531  0.00  0.00    +0.000 A 
ATOM      3  C   UNL     1       0.251   8.211  21.952  0.00  0.00    +0.000 A 
ATOM      4  C   UNL     1       1.171   7.568  21.134  0.00  0.00    +0.000 A 
ATOM      5  C   UNL     1       1.560   8.101  19.895  0.00  0.00    +0.000 A 
ATOM      6  C   UNL     1       2.567   7.488  19.111  0.00  0.00    +0.000 A 
ATOM      7  C   UNL     1       2.890   7.999  17.851  0.00  0.00    +0.000 A 
ATOM      8  C   UNL     1       2.213   9.113  17.360  0.00  0.00    +0.000 A 
ATOM      9  C   UNL     1       1.248   9.751  18.138  0.00  0.00    +0.000 A 
ATOM     10  C   UNL     1       0.901   9.281  19.426  0.00  0.00    +0.000 A 
ENDROOT
BRANCH   1  11
ATOM     11  O   UNL     1      -0.670  11.074  19.797  0.00  0.00    +0.000 OA
BRANCH  11  16
ATOM     12  C   UNL     1      -4.252  12.081  18.987  0.00  0.00    +0.000 C 
ATOM     13  C   UNL     1      -4.193  11.574  17.543  0.00  0.00    +0.000 C 
ATOM     14  C   UNL     1      -3.377  10.290  17.492  0.00  0.00    +0.000 C 
ATOM     15  O   UNL     1      -2.069  10.516  17.989  0.00  0.00    +0.000 OA
ATOM     16  C   UNL     1      -2.037  10.917  19.366  0.00  0.00    +0.000 C 
ATOM     17  C   UNL     1      -2.834  12.228  19.588  0.00  0.00    +0.000 C 
BRANCH  12  18
ATOM     18  O   UNL     1      -4.968  13.320  19.030  0.00  0.00    +0.000 OA
ATOM     19  H   UNL     1      -5.315  13.408  19.942  0.00  0.00    +0.000 HD
ENDBRANCH  12  18
BRANCH  13  20
ATOM     20  O   UNL     1      -5.524  11.387  17.051  0.00  0.00    +0.000 OA
ATOM     21  H   UNL     1      -6.073  12.144  17.322  0.00  0.00    +0.000 HD
ENDBRANCH  13  20
BRANCH  17  22
ATOM     22  O   UNL     1      -2.918  12.527  20.997  0.00  0.00    +0.000 OA
ATOM     23  H   UNL     1      -2.030  12.479  21.388  0.00  0.00    +0.000 HD
ENDBRANCH  17  22
ENDBRANCH  11  16
ENDBRANCH   1  11
BRANCH   6  24
ATOM     24  O   UNL     1       3.239   6.423  19.675  0.00  0.00    +0.000 OA
BRANCH  24  25
ATOM     25  C   UNL     1       3.456   5.257  18.858  0.00  0.00    +0.000 C 
ATOM     26  O   UNL     1       2.206   4.604  18.622  0.00  0.00    +0.000 OA
ATOM     27  C   UNL     1       2.317   3.341  17.992  0.00  0.00    +0.000 C 
ATOM     28  C   UNL     1       3.005   2.381  18.947  0.00  0.00    +0.000 C 
ATOM     29  C   UNL     1       4.432   2.883  19.172  0.00  0.00    +0.000 C 
ATOM     30  C   UNL     1       4.471   4.352  19.613  0.00  0.00    +0.000 C 
BRANCH  28  31
ATOM     31  O   UNL     1       3.012   1.048  18.440  0.00  0.00    +0.000 OA
ATOM     32  H   UNL     1       3.702   0.976  17.756  0.00  0.00    +0.000 HD
ENDBRANCH  28  31
BRANCH  29  33
ATOM     33  O   UNL     1       5.127   2.098  20.158  0.00  0.00    +0.000 OA
ATOM     34  H   UNL     1       5.850   1.622  19.708  0.00  0.00    +0.000 HD
ENDBRANCH  29  33
BRANCH  30  35
ATOM     35  O   UNL     1       5.822   4.821  19.413  0.00  0.00    +0.000 OA
ATOM     36  H   UNL     1       6.249   4.166  18.826  0.00  0.00    +0.000 HD
ENDBRANCH  30  35
ENDBRANCH  24  25
ENDBRANCH   6  24
TORSDOF 10
ENDMDL
MODEL 5
REMARK VINA RESULT:      -7.7      1.279      1.379
REMARK  Name = 
REMARK  10 active torsions:
REMARK  status: ('A' for Active; 'I' for Inactive)
REMARK    1  A    between atoms: O_1  and  C_2
REMARK    2  A    between atoms: C_3  and  O_4
REMARK    3  A    between atoms: C_7  and  O_8
REMARK    4  A    between atoms: O_8  and  C_9
REMARK    5  A    between atoms: C_14  and  O_15
REMARK    6  A    between atoms: O_15  and  C_16
REMARK    7  A    between atoms: C_19  and  O_20
REMARK    8  A    between atoms: C_21  and  O_22
REMARK    9  A    between atoms: C_23  and  O_24
REMARK   10  A    between atoms: C_29  and  O_30
REMARK                            x       y       z     vdW  Elec       q    Type
REMARK                         _______ _______ _______ _____ _____    ______ ____
ROOT
ATOM      1  C   UNL     1       2.033   7.722  19.585  0.00  0.00    +0.000 A 
ATOM      2  C   UNL     1       2.297   7.999  18.242  0.00  0.00    +0.000 A 
ATOM      3  C   UNL     1       1.691   9.076  17.605  0.00  0.00    +0.000 A 
ATOM      4  C   UNL     1       0.884   9.938  18.337  0.00  0.00    +0.000 A 
ATOM      5  C   UNL     1       0.676   9.767  19.716  0.00  0.00    +0.000 A 
ATOM      6  C   UNL     1      -0.071  10.703  20.472  0.00  0.00    +0.000 A 
ATOM      7  C   UNL     1      -0.320  10.476  21.828  0.00  0.00    +0.000 A 
ATOM      8  C   UNL     1       0.162   9.321  22.438  0.00  0.00    +0.000 A 
ATOM      9  C   UNL     1       0.935   8.411  21.716  0.00  0.00    +0.000 A 
ATOM     10  C   UNL     1       1.228   8.607  20.347  0.00  0.00    +0.000 A 
ENDROOT
BRANCH   1  11
ATOM     11  O   UNL     1       2.576   6.611  20.219  0.00  0.00    +0.000 OA
BRANCH  11  16
ATOM     12  C   UNL     1       3.983   3.304  18.961  0.00  0.00    +0.000 C 
ATOM     13  C   UNL     1       2.677   2.533  19.170  0.00  0.00    +0.000 C 
ATOM     14  C   UNL     1       1.500   3.430  18.812  0.00  0.00    +0.000 C 
ATOM     15  O   UNL     1       1.512   4.603  19.609  0.00  0.00    +0.000 OA
ATOM     16  C   UNL     1       2.673   5.422  19.409  0.00  0.00    +0.000 C 
ATOM     17  C   UNL     1       3.974   4.644  19.735  0.00  0.00    +0.000 C 
BRANCH  12  18
ATOM     18  O   UNL     1       5.089   2.483  19.353  0.00  0.00    +0.000 OA
ATOM     19  H   UNL     1       4.996   1.640  18.862  0.00  0.00    +0.000 HD
ENDBRANCH  12  18
BRANCH  13  20
ATOM     20  O   UNL     1       2.700   1.337  18.383  0.00  0.00    +0.000 OA
ATOM     21  H   UNL     1       2.835   1.573  17.448  0.00  0.00    +0.000 HD
ENDBRANCH  13  20
BRANCH  17  22
ATOM     22  O   UNL     1       5.129   5.433  19.380  0.00  0.00    +0.000 OA
ATOM     23  H   UNL     1       5.931   4.899  19.504  0.00  0.00    +0.000 HD
ENDBRANCH  17  22
ENDBRANCH  11  16
ENDBRANCH   1  11
BRANCH   6  24
ATOM     24  O   UNL     1      -0.474  11.852  19.824  0.00  0.00    +0.000 OA
BRANCH  24  25
ATOM     25  C   UNL     1      -0.037  13.114  20.362  0.00  0.00    +0.000 C 
ATOM     26  O   UNL     1      -1.155  13.999  20.464  0.00  0.00    +0.000 OA
ATOM     27  C   UNL     1      -0.817  15.332  20.799  0.00  0.00    +0.000 C 
ATOM     28  C   UNL     1      -0.033  15.939  19.648  0.00  0.00    +0.000 C 
ATOM     29  C   UNL     1       1.285  15.173  19.521  0.00  0.00    +0.000 C 
ATOM     30  C   UNL     1       1.070  13.657  19.413  0.00  0.00    +0.000 C 
BRANCH  28  31
ATOM     31  O   UNL     1       0.207  17.329  19.849  0.00  0.00    +0.000 OA
ATOM     32  H   UNL     1       1.164  17.469  19.967  0.00  0.00    +0.000 HD
ENDBRANCH  28  31
BRANCH  29  33
ATOM     33  O   UNL     1       2.046  15.602  18.377  0.00  0.00    +0.000 OA
ATOM     34  H   UNL     1       1.470  15.538  17.592  0.00  0.00    +0.000 HD
ENDBRANCH  29  33
BRANCH  30  35
ATOM     35  O   UNL     1       2.339  13.027  19.694  0.00  0.00    +0.000 OA
ATOM     36  H   UNL     1       2.959  13.357  19.014  0.00  0.00    +0.000 HD
ENDBRANCH  30  35
ENDBRANCH  24  25
ENDBRANCH   6  24
TORSDOF 10
ENDMDL
MODEL 6
REMARK VINA RESULT:      -7.7      3.116      9.123
REMARK  Name = 
REMARK  10 active torsions:
REMARK  status: ('A' for Active; 'I' for Inactive)
REMARK    1  A    between atoms: O_1  and  C_2
REMARK    2  A    between atoms: C_3  and  O_4
REMARK    3  A    between atoms: C_7  and  O_8
REMARK    4  A    between atoms: O_8  and  C_9
REMARK    5  A    between atoms: C_14  and  O_15
REMARK    6  A    between atoms: O_15  and  C_16
REMARK    7  A    between atoms: C_19  and  O_20
REMARK    8  A    between atoms: C_21  and  O_22
REMARK    9  A    between atoms: C_23  and  O_24
REMARK   10  A    between atoms: C_29  and  O_30
REMARK                            x       y       z     vdW  Elec       q    Type
REMARK                         _______ _______ _______ _____ _____    ______ ____
ROOT
ATOM      1  C   UNL     1      -0.310  10.413  20.359  0.00  0.00    +0.000 A 
ATOM      2  C   UNL     1      -0.449  10.146  21.722  0.00  0.00    +0.000 A 
ATOM      3  C   UNL     1       0.156   9.033  22.295  0.00  0.00    +0.000 A 
ATOM      4  C   UNL     1       0.981   8.227  21.519  0.00  0.00    +0.000 A 
ATOM      5  C   UNL     1       1.242   8.517  20.170  0.00  0.00    +0.000 A 
ATOM      6  C   UNL     1       2.157   7.745  19.413  0.00  0.00    +0.000 A 
ATOM      7  C   UNL     1       2.350   8.011  18.055  0.00  0.00    +0.000 A 
ATOM      8  C   UNL     1       1.634   9.035  17.440  0.00  0.00    +0.000 A 
ATOM      9  C   UNL     1       0.761   9.830  18.183  0.00  0.00    +0.000 A 
ATOM     10  C   UNL     1       0.547   9.610  19.563  0.00  0.00    +0.000 A 
ENDROOT
BRANCH   1  11
ATOM     11  O   UNL     1      -0.963  11.482  19.757  0.00  0.00    +0.000 OA
BRANCH  11  16
ATOM     12  C   UNL     1      -4.632  12.248  19.089  0.00  0.00    +0.000 C 
ATOM     13  C   UNL     1      -4.590  11.766  17.636  0.00  0.00    +0.000 C 
ATOM     14  C   UNL     1      -3.691  10.542  17.536  0.00  0.00    +0.000 C 
ATOM     15  O   UNL     1      -2.384  10.851  17.991  0.00  0.00    +0.000 OA
ATOM     16  C   UNL     1      -2.330  11.236  19.372  0.00  0.00    +0.000 C 
ATOM     17  C   UNL     1      -3.207  12.486  19.642  0.00  0.00    +0.000 C 
BRANCH  12  18
ATOM     18  O   UNL     1      -5.430  13.433  19.176  0.00  0.00    +0.000 OA
ATOM     19  H   UNL     1      -5.767  13.474  20.096  0.00  0.00    +0.000 HD
ENDBRANCH  12  18
BRANCH  13  20
ATOM     20  O   UNL     1      -5.923  11.493  17.188  0.00  0.00    +0.000 OA
ATOM     21  H   UNL     1      -6.438  12.319  17.199  0.00  0.00    +0.000 HD
ENDBRANCH  13  20
BRANCH  17  22
ATOM     22  O   UNL     1      -3.261  12.760  21.058  0.00  0.00    +0.000 OA
ATOM     23  H   UNL     1      -4.171  12.634  21.374  0.00  0.00    +0.000 HD
ENDBRANCH  17  22
ENDBRANCH  11  16
ENDBRANCH   1  11
BRANCH   6  24
ATOM     24  O   UNL     1       2.875   6.782  20.091  0.00  0.00    +0.000 OA
BRANCH  24  25
ATOM     25  C   UNL     1       3.041   5.499  19.459  0.00  0.00    +0.000 C 
ATOM     26  O   UNL     1       2.679   4.467  20.380  0.00  0.00    +0.000 OA
ATOM     27  C   UNL     1       2.982   3.157  19.937  0.00  0.00    +0.000 C 
ATOM     28  C   UNL     1       4.492   3.006  19.865  0.00  0.00    +0.000 C 
ATOM     29  C   UNL     1       5.009   3.961  18.788  0.00  0.00    +0.000 C 
ATOM     30  C   UNL     1       4.526   5.401  19.005  0.00  0.00    +0.000 C 
BRANCH  28  31
ATOM     31  O   UNL     1       4.874   1.664  19.577  0.00  0.00    +0.000 OA
ATOM     32  H   UNL     1       4.858   1.533  18.612  0.00  0.00    +0.000 HD
ENDBRANCH  28  31
BRANCH  29  33
ATOM     33  O   UNL     1       6.448   3.974  18.729  0.00  0.00    +0.000 OA
ATOM     34  H   UNL     1       6.765   3.078  18.949  0.00  0.00    +0.000 HD
ENDBRANCH  29  33
BRANCH  30  35
ATOM     35  O   UNL     1       4.728   6.109  17.763  0.00  0.00    +0.000 OA
ATOM     36  H   UNL     1       3.966   6.716  17.673  0.00  0.00    +0.000 HD
ENDBRANCH  30  35
ENDBRANCH  24  25
ENDBRANCH   6  24
TORSDOF 10
ENDMDL
MODEL 7
REMARK VINA RESULT:      -7.7      1.540      9.468
REMARK  Name = 
REMARK  10 active torsions:
REMARK  status: ('A' for Active; 'I' for Inactive)
REMARK    1  A    between atoms: O_1  and  C_2
REMARK    2  A    between atoms: C_3  and  O_4
REMARK    3  A    between atoms: C_7  and  O_8
REMARK    4  A    between atoms: O_8  and  C_9
REMARK    5  A    between atoms: C_14  and  O_15
REMARK    6  A    between atoms: O_15  and  C_16
REMARK    7  A    between atoms: C_19  and  O_20
REMARK    8  A    between atoms: C_21  and  O_22
REMARK    9  A    between atoms: C_23  and  O_24
REMARK   10  A    between atoms: C_29  and  O_30
REMARK                            x       y       z     vdW  Elec       q    Type
REMARK                         _______ _______ _______ _____ _____    ______ ____
ROOT
ATOM      1  C   UNL     1      -0.031  10.509  20.710  0.00  0.00    +0.000 A 
ATOM      2  C   UNL     1      -0.081  10.113  22.048  0.00  0.00    +0.000 A 
ATOM      3  C   UNL     1       0.465   8.900  22.453  0.00  0.00    +0.000 A 
ATOM      4  C   UNL     1       1.144   8.114  21.530  0.00  0.00    +0.000 A 
ATOM      5  C   UNL     1       1.319   8.521  20.197  0.00  0.00    +0.000 A 
ATOM      6  C   UNL     1       2.094   7.759  19.289  0.00  0.00    +0.000 A 
ATOM      7  C   UNL     1       2.197   8.148  17.951  0.00  0.00    +0.000 A 
ATOM      8  C   UNL     1       1.530   9.287  17.506  0.00  0.00    +0.000 A 
ATOM      9  C   UNL     1       0.798  10.069  18.399  0.00  0.00    +0.000 A 
ATOM     10  C   UNL     1       0.680   9.725  19.765  0.00  0.00    +0.000 A 
ENDROOT
BRANCH   1  11
ATOM     11  O   UNL     1      -0.630  11.686  20.277  0.00  0.00    +0.000 OA
BRANCH  11  16
ATOM     12  C   UNL     1       0.515  15.086  19.003  0.00  0.00    +0.000 C 
ATOM     13  C   UNL     1       1.026  15.557  20.367  0.00  0.00    +0.000 C 
ATOM     14  C   UNL     1       1.670  14.386  21.096  0.00  0.00    +0.000 C 
ATOM     15  O   UNL     1       0.737  13.330  21.257  0.00  0.00    +0.000 OA
ATOM     16  C   UNL     1       0.271  12.780  20.017  0.00  0.00    +0.000 C 
ATOM     17  C   UNL     1      -0.420  13.862  19.146  0.00  0.00    +0.000 C 
BRANCH  12  18
ATOM     18  O   UNL     1      -0.144  16.170  18.339  0.00  0.00    +0.000 OA
ATOM     19  H   UNL     1       0.562  16.763  18.009  0.00  0.00    +0.000 HD
ENDBRANCH  12  18
BRANCH  13  20
ATOM     20  O   UNL     1       1.939  16.645  20.183  0.00  0.00    +0.000 OA
ATOM     21  H   UNL     1       1.498  17.476  20.433  0.00  0.00    +0.000 HD
ENDBRANCH  13  20
BRANCH  17  22
ATOM     22  O   UNL     1      -0.741  13.324  17.846  0.00  0.00    +0.000 OA
ATOM     23  H   UNL     1      -1.153  12.451  17.953  0.00  0.00    +0.000 HD
ENDBRANCH  17  22
ENDBRANCH  11  16
ENDBRANCH   1  11
BRANCH   6  24
ATOM     24  O   UNL     1       2.774   6.674  19.802  0.00  0.00    +0.000 OA
BRANCH  24  25
ATOM     25  C   UNL     1       3.014   5.557  18.926  0.00  0.00    +0.000 C 
ATOM     26  O   UNL     1       1.824   4.773  18.819  0.00  0.00    +0.000 OA
ATOM     27  C   UNL     1       1.993   3.544  18.137  0.00  0.00    +0.000 C 
ATOM     28  C   UNL     1       2.892   2.646  18.970  0.00  0.00    +0.000 C 
ATOM     29  C   UNL     1       4.273   3.300  19.041  0.00  0.00    +0.000 C 
ATOM     30  C   UNL     1       4.206   4.755  19.524  0.00  0.00    +0.000 C 
BRANCH  28  31
ATOM     31  O   UNL     1       2.981   1.334  18.422  0.00  0.00    +0.000 OA
ATOM     32  H   UNL     1       2.916   0.686  19.145  0.00  0.00    +0.000 HD
ENDBRANCH  28  31
BRANCH  29  33
ATOM     33  O   UNL     1       5.164   2.578  19.911  0.00  0.00    +0.000 OA
ATOM     34  H   UNL     1       6.062   2.935  19.785  0.00  0.00    +0.000 HD
ENDBRANCH  29  33
BRANCH  30  35
ATOM     35  O   UNL     1       5.464   5.376  19.181  0.00  0.00    +0.000 OA
ATOM     36  H   UNL     1       5.538   6.165  19.754  0.00  0.00    +0.000 HD
ENDBRANCH  30  35
ENDBRANCH  24  25
ENDBRANCH   6  24
TORSDOF 10
ENDMDL
MODEL 8
REMARK VINA RESULT:      -7.6      2.668      9.608
REMARK  Name = 
REMARK  10 active torsions:
REMARK  status: ('A' for Active; 'I' for Inactive)
REMARK    1  A    between atoms: O_1  and  C_2
REMARK    2  A    between atoms: C_3  and  O_4
REMARK    3  A    between atoms: C_7  and  O_8
REMARK    4  A    between atoms: O_8  and  C_9
REMARK    5  A    between atoms: C_14  and  O_15
REMARK    6  A    between atoms: O_15  and  C_16
REMARK    7  A    between atoms: C_19  and  O_20
REMARK    8  A    between atoms: C_21  and  O_22
REMARK    9  A    between atoms: C_23  and  O_24
REMARK   10  A    between atoms: C_29  and  O_30
REMARK                            x       y       z     vdW  Elec       q    Type
REMARK                         _______ _______ _______ _____ _____    ______ ____
ROOT
ATOM      1  C   UNL     1      -0.001  10.748  20.912  0.00  0.00    +0.000 A 
ATOM      2  C   UNL     1      -0.264  10.255  22.193  0.00  0.00    +0.000 A 
ATOM      3  C   UNL     1       0.090   8.956  22.542  0.00  0.00    +0.000 A 
ATOM      4  C   UNL     1       0.790   8.171  21.635  0.00  0.00    +0.000 A 
ATOM      5  C   UNL     1       1.175   8.659  20.376  0.00  0.00    +0.000 A 
ATOM      6  C   UNL     1       1.971   7.884  19.496  0.00  0.00    +0.000 A 
ATOM      7  C   UNL     1       2.285   8.364  18.222  0.00  0.00    +0.000 A 
ATOM      8  C   UNL     1       1.809   9.607  17.812  0.00  0.00    +0.000 A 
ATOM      9  C   UNL     1       1.060  10.398  18.683  0.00  0.00    +0.000 A 
ATOM     10  C   UNL     1       0.733   9.962  19.987  0.00  0.00    +0.000 A 
ENDROOT
BRANCH   1  11
ATOM     11  O   UNL     1      -0.408  12.019  20.526  0.00  0.00    +0.000 OA
BRANCH  11  16
ATOM     12  C   UNL     1      -3.038  14.249  22.139  0.00  0.00    +0.000 C 
ATOM     13  C   UNL     1      -3.960  14.248  20.917  0.00  0.00    +0.000 C 
ATOM     14  C   UNL     1      -3.939  12.871  20.270  0.00  0.00    +0.000 C 
ATOM     15  O   UNL     1      -2.617  12.523  19.891  0.00  0.00    +0.000 OA
ATOM     16  C   UNL     1      -1.709  12.424  20.997  0.00  0.00    +0.000 C 
ATOM     17  C   UNL     1      -1.616  13.765  21.771  0.00  0.00    +0.000 C 
BRANCH  12  18
ATOM     18  O   UNL     1      -3.010  15.559  22.716  0.00  0.00    +0.000 OA
ATOM     19  H   UNL     1      -2.568  16.140  22.062  0.00  0.00    +0.000 HD
ENDBRANCH  12  18
BRANCH  13  20
ATOM     20  O   UNL     1      -5.279  14.635  21.316  0.00  0.00    +0.000 OA
ATOM     21  H   UNL     1      -5.302  15.600  21.448  0.00  0.00    +0.000 HD
ENDBRANCH  13  20
BRANCH  17  22
ATOM     22  O   UNL     1      -0.821  13.598  22.963  0.00  0.00    +0.000 OA
ATOM     23  H   UNL     1      -0.616  12.656  23.082  0.00  0.00    +0.000 HD
ENDBRANCH  17  22
ENDBRANCH  11  16
ENDBRANCH   1  11
BRANCH   6  24
ATOM     24  O   UNL     1       2.457   6.688  19.980  0.00  0.00    +0.000 OA
BRANCH  24  25
ATOM     25  C   UNL     1       2.627   5.605  19.046  0.00  0.00    +0.000 C 
ATOM     26  O   UNL     1       1.526   4.701  19.163  0.00  0.00    +0.000 OA
ATOM     27  C   UNL     1       1.677   3.498  18.431  0.00  0.00    +0.000 C 
ATOM     28  C   UNL     1       2.814   2.698  19.043  0.00  0.00    +0.000 C 
ATOM     29  C   UNL     1       4.106   3.492  18.849  0.00  0.00    +0.000 C 
ATOM     30  C   UNL     1       3.991   4.930  19.371  0.00  0.00    +0.000 C 
BRANCH  28  31
ATOM     31  O   UNL     1       2.923   1.404  18.455  0.00  0.00    +0.000 OA
ATOM     32  H   UNL     1       2.051   0.970  18.487  0.00  0.00    +0.000 HD
ENDBRANCH  28  31
BRANCH  29  33
ATOM     33  O   UNL     1       5.225   2.864  19.503  0.00  0.00    +0.000 OA
ATOM     34  H   UNL     1       5.415   2.029  19.036  0.00  0.00    +0.000 HD
ENDBRANCH  29  33
BRANCH  30  35
ATOM     35  O   UNL     1       5.082   5.681  18.796  0.00  0.00    +0.000 OA
ATOM     36  H   UNL     1       5.076   6.549  19.246  0.00  0.00    +0.000 HD
ENDBRANCH  30  35
ENDBRANCH  24  25
ENDBRANCH   6  24
TORSDOF 10
ENDMDL
MODEL 9
REMARK VINA RESULT:      -7.6      2.124      9.673
REMARK  Name = 
REMARK  10 active torsions:
REMARK  status: ('A' for Active; 'I' for Inactive)
REMARK    1  A    between atoms: O_1  and  C_2
REMARK    2  A    between atoms: C_3  and  O_4
REMARK    3  A    between atoms: C_7  and  O_8
REMARK    4  A    between atoms: O_8  and  C_9
REMARK    5  A    between atoms: C_14  and  O_15
REMARK    6  A    between atoms: O_15  and  C_16
REMARK    7  A    between atoms: C_19  and  O_20
REMARK    8  A    between atoms: C_21  and  O_22
REMARK    9  A    between atoms: C_23  and  O_24
REMARK   10  A    between atoms: C_29  and  O_30
REMARK                            x       y       z     vdW  Elec       q    Type
REMARK                         _______ _______ _______ _____ _____    ______ ____
ROOT
ATOM      1  C   UNL     1       0.239  10.809  20.838  0.00  0.00    +0.000 A 
ATOM      2  C   UNL     1      -0.038  10.367  22.134  0.00  0.00    +0.000 A 
ATOM      3  C   UNL     1       0.227   9.055  22.510  0.00  0.00    +0.000 A 
ATOM      4  C   UNL     1       0.856   8.200  21.613  0.00  0.00    +0.000 A 
ATOM      5  C   UNL     1       1.256   8.629  20.337  0.00  0.00    +0.000 A 
ATOM      6  C   UNL     1       1.981   7.779  19.467  0.00  0.00    +0.000 A 
ATOM      7  C   UNL     1       2.310   8.205  18.177  0.00  0.00    +0.000 A 
ATOM      8  C   UNL     1       1.917   9.469  17.743  0.00  0.00    +0.000 A 
ATOM      9  C   UNL     1       1.239  10.332  18.604  0.00  0.00    +0.000 A 
ATOM     10  C   UNL     1       0.902   9.951  19.923  0.00  0.00    +0.000 A 
ENDROOT
BRANCH   1  11
ATOM     11  O   UNL     1      -0.082  12.097  20.425  0.00  0.00    +0.000 OA
BRANCH  11  16
ATOM     12  C   UNL     1      -0.160  15.237  22.577  0.00  0.00    +0.000 C 
ATOM     13  C   UNL     1      -1.637  15.532  22.301  0.00  0.00    +0.000 C 
ATOM     14  C   UNL     1      -2.411  14.223  22.245  0.00  0.00    +0.000 C 
ATOM     15  O   UNL     1      -1.881  13.377  21.238  0.00  0.00    +0.000 OA
ATOM     16  C   UNL     1      -0.519  12.990  21.469  0.00  0.00    +0.000 C 
ATOM     17  C   UNL     1       0.412  14.228  21.552  0.00  0.00    +0.000 C 
BRANCH  12  18
ATOM     18  O   UNL     1       0.581  16.462  22.571  0.00  0.00    +0.000 OA
ATOM     19  H   UNL     1       1.303  16.346  21.919  0.00  0.00    +0.000 HD
ENDBRANCH  12  18
BRANCH  13  20
ATOM     20  O   UNL     1      -2.142  16.413  23.310  0.00  0.00    +0.000 OA
ATOM     21  H   UNL     1      -2.468  17.227  22.888  0.00  0.00    +0.000 HD
ENDBRANCH  13  20
BRANCH  17  22
ATOM     22  O   UNL     1       1.742  13.826  21.938  0.00  0.00    +0.000 OA
ATOM     23  H   UNL     1       2.309  13.796  21.149  0.00  0.00    +0.000 HD
ENDBRANCH  17  22
ENDBRANCH  11  16
ENDBRANCH   1  11
BRANCH   6  24
ATOM     24  O   UNL     1       2.388   6.563  19.974  0.00  0.00    +0.000 OA
BRANCH  24  25
ATOM     25  C   UNL     1       2.631   5.493  19.040  0.00  0.00    +0.000 C 
ATOM     26  O   UNL     1       1.526   4.586  19.061  0.00  0.00    +0.000 OA
ATOM     27  C   UNL     1       1.735   3.394  18.326  0.00  0.00    +0.000 C 
ATOM     28  C   UNL     1       2.825   2.587  19.010  0.00  0.00    +0.000 C 
ATOM     29  C   UNL     1       4.126   3.386  18.925  0.00  0.00    +0.000 C 
ATOM     30  C   UNL     1       3.968   4.817  19.457  0.00  0.00    +0.000 C 
BRANCH  28  31
ATOM     31  O   UNL     1       2.981   1.302  18.414  0.00  0.00    +0.000 OA
ATOM     32  H   UNL     1       3.565   1.383  17.639  0.00  0.00    +0.000 HD
ENDBRANCH  28  31
BRANCH  29  33
ATOM     33  O   UNL     1       5.194   2.751  19.652  0.00  0.00    +0.000 OA
ATOM     34  H   UNL     1       5.693   2.193  19.026  0.00  0.00    +0.000 HD
ENDBRANCH  29  33
BRANCH  30  35
ATOM     35  O   UNL     1       5.098   5.577  18.976  0.00  0.00    +0.000 OA
ATOM     36  H   UNL     1       5.637   5.784  19.765  0.00  0.00    +0.000 HD
ENDBRANCH  30  35
ENDBRANCH  24  25
ENDBRANCH   6  24
TORSDOF 10
ENDMDL
