MODEL 1
REMARK VINA RESULT:      -7.0      0.000      0.000
REMARK  Name = 
REMARK  7 active torsions:
REMARK  status: ('A' for Active; 'I' for Inactive)
REMARK    1  A    between atoms: C_1  and  O_2
REMARK    2  A    between atoms: O_2  and  C_3
REMARK    3  A    between atoms: N_21  and  C_22
REMARK    4  A    between atoms: C_22  and  C_23
REMARK    5  A    between atoms: C_23  and  C_24
REMARK    6  A    between atoms: C_23  and  C_25
REMARK    7  A    between atoms: C_23  and  O_26
REMARK                            x       y       z     vdW  Elec       q    Type
REMARK                         _______ _______ _______ _____ _____    ______ ____
ROOT
ATOM      1  C   UNL     1      -4.406  13.503  22.824  0.00  0.00    +0.000 C 
ATOM      2  C   UNL     1      -3.155  13.980  23.628  0.00  0.00    +0.000 C 
ATOM      3  C   UNL     1      -1.775  14.091  22.853  0.00  0.00    +0.000 C 
ATOM      4  C   UNL     1      -1.617  12.839  21.924  0.00  0.00    +0.000 C 
ATOM      5  C   UNL     1      -2.863  13.037  20.997  0.00  0.00    +0.000 C 
ATOM      6  C   UNL     1      -4.118  12.588  21.654  0.00  0.00    +0.000 C 
ATOM      7  C   UNL     1      -1.571  11.696  23.012  0.00  0.00    +0.000 C 
ATOM      8  C   UNL     1      -0.684  10.643  22.484  0.00  0.00    +0.000 A 
ATOM      9  C   UNL     1      -0.573   9.359  22.999  0.00  0.00    +0.000 A 
ATOM     10  C   UNL     1       0.231   8.447  22.324  0.00  0.00    +0.000 A 
ATOM     11  C   UNL     1       0.918   8.856  21.174  0.00  0.00    +0.000 A 
ATOM     12 BR   UNL     1       1.878   7.562  20.182  0.00  0.00    +0.000 Br
ATOM     13  C   UNL     1       0.848  10.176  20.711  0.00  0.00    +0.000 A 
ATOM     14  C   UNL     1       0.046  11.089  21.393  0.00  0.00    +0.000 A 
ATOM     15  C   UNL     1      -0.366  12.485  20.979  0.00  0.00    +0.000 C 
ATOM     16  N   UNL     1      -0.845  12.335  19.565  0.00  0.00    +0.000 NA
ATOM     17  C   UNL     1      -0.328  13.307  18.902  0.00  0.00    +0.000 C 
ATOM     18  N   UNL     1      -0.722  13.556  17.633  0.00  0.00    +0.000 N 
ATOM     19  N   UNL     1       0.594  14.025  19.563  0.00  0.00    +0.000 N 
ATOM     20  C   UNL     1       0.701  13.555  20.855  0.00  0.00    +0.000 C 
ATOM     21  O   UNL     1       1.480  13.945  21.718  0.00  0.00    +0.000 OA
ATOM     22  H   UNL     1      -1.574  13.045  17.402  0.00  0.00    +0.000 HD
ATOM     23  H   UNL     1      -0.781  14.536  17.369  0.00  0.00    +0.000 HD
ENDROOT
BRANCH   1  25
ATOM     24  C   UNL     1      -4.662  12.327  24.874  0.00  0.00    +0.000 C 
ATOM     25  O   UNL     1      -5.268  12.737  23.666  0.00  0.00    +0.000 OA
ENDBRANCH   1  25
BRANCH  19  26
ATOM     26  C   UNL     1       1.468  15.016  18.966  0.00  0.00    +0.000 C 
BRANCH  26  27
ATOM     27  C   UNL     1       2.867  14.466  18.627  0.00  0.00    +0.000 C 
ATOM     28  C   UNL     1       2.817  13.020  18.125  0.00  0.00    +0.000 C 
ATOM     29  C   UNL     1       3.501  15.377  17.569  0.00  0.00    +0.000 C 
BRANCH  27  30
ATOM     30  O   UNL     1       3.701  14.526  19.793  0.00  0.00    +0.000 OA
ATOM     31  H   UNL     1       3.254  14.031  20.503  0.00  0.00    +0.000 HD
ENDBRANCH  27  30
ENDBRANCH  26  27
ENDBRANCH  19  26
TORSDOF 4
ENDMDL
MODEL 2
REMARK VINA RESULT:      -6.8      1.136      1.500
REMARK  Name = 
REMARK  7 active torsions:
REMARK  status: ('A' for Active; 'I' for Inactive)
REMARK    1  A    between atoms: C_1  and  O_2
REMARK    2  A    between atoms: O_2  and  C_3
REMARK    3  A    between atoms: N_21  and  C_22
REMARK    4  A    between atoms: C_22  and  C_23
REMARK    5  A    between atoms: C_23  and  C_24
REMARK    6  A    between atoms: C_23  and  C_25
REMARK    7  A    between atoms: C_23  and  O_26
REMARK                            x       y       z     vdW  Elec       q    Type
REMARK                         _______ _______ _______ _____ _____    ______ ____
ROOT
ATOM      1  C   UNL     1      -4.428  13.477  22.761  0.00  0.00    +0.000 C 
ATOM      2  C   UNL     1      -3.177  13.984  23.547  0.00  0.00    +0.000 C 
ATOM      3  C   UNL     1      -1.803  14.090  22.761  0.00  0.00    +0.000 C 
ATOM      4  C   UNL     1      -1.639  12.819  21.859  0.00  0.00    +0.000 C 
ATOM      5  C   UNL     1      -2.892  12.985  20.936  0.00  0.00    +0.000 C 
ATOM      6  C   UNL     1      -4.138  12.539  21.610  0.00  0.00    +0.000 C 
ATOM      7  C   UNL     1      -1.576  11.701  22.972  0.00  0.00    +0.000 C 
ATOM      8  C   UNL     1      -0.682  10.645  22.462  0.00  0.00    +0.000 A 
ATOM      9  C   UNL     1      -0.555   9.374  23.004  0.00  0.00    +0.000 A 
ATOM     10  C   UNL     1       0.253   8.455  22.345  0.00  0.00    +0.000 A 
ATOM     11  C   UNL     1       0.930   8.845  21.182  0.00  0.00    +0.000 A 
ATOM     12 BR   UNL     1       1.896   7.538  20.213  0.00  0.00    +0.000 Br
ATOM     13  C   UNL     1       0.844  10.153  20.691  0.00  0.00    +0.000 A 
ATOM     14  C   UNL     1       0.038  11.073  21.357  0.00  0.00    +0.000 A 
ATOM     15  C   UNL     1      -0.390  12.456  20.915  0.00  0.00    +0.000 C 
ATOM     16  N   UNL     1      -0.875  12.270  19.508  0.00  0.00    +0.000 NA
ATOM     17  C   UNL     1      -0.372  13.233  18.820  0.00  0.00    +0.000 C 
ATOM     18  N   UNL     1      -0.776  13.450  17.548  0.00  0.00    +0.000 N 
ATOM     19  N   UNL     1       0.547  13.973  19.459  0.00  0.00    +0.000 N 
ATOM     20  C   UNL     1       0.666  13.533  20.761  0.00  0.00    +0.000 C 
ATOM     21  O   UNL     1       1.446  13.949  21.610  0.00  0.00    +0.000 OA
ATOM     22  H   UNL     1      -1.624  12.925  17.333  0.00  0.00    +0.000 HD
ATOM     23  H   UNL     1      -0.845  14.423  17.263  0.00  0.00    +0.000 HD
ENDROOT
BRANCH   1  25
ATOM     24  C   UNL     1      -4.659  12.339  24.836  0.00  0.00    +0.000 C 
ATOM     25  O   UNL     1      -5.278  12.722  23.625  0.00  0.00    +0.000 OA
ENDBRANCH   1  25
BRANCH  19  26
ATOM     26  C   UNL     1       1.409  14.959  18.835  0.00  0.00    +0.000 C 
BRANCH  26  27
ATOM     27  C   UNL     1       0.802  16.375  18.822  0.00  0.00    +0.000 C 
ATOM     28  C   UNL     1       0.754  17.000  20.219  0.00  0.00    +0.000 C 
ATOM     29  C   UNL     1       1.635  17.248  17.875  0.00  0.00    +0.000 C 
BRANCH  27  30
ATOM     30  O   UNL     1      -0.529  16.321  18.288  0.00  0.00    +0.000 OA
ATOM     31  H   UNL     1      -1.043  15.702  18.837  0.00  0.00    +0.000 HD
ENDBRANCH  27  30
ENDBRANCH  26  27
ENDBRANCH  19  26
TORSDOF 4
ENDMDL
MODEL 3
REMARK VINA RESULT:      -6.2      1.233      1.420
REMARK  Name = 
REMARK  7 active torsions:
REMARK  status: ('A' for Active; 'I' for Inactive)
REMARK    1  A    between atoms: C_1  and  O_2
REMARK    2  A    between atoms: O_2  and  C_3
REMARK    3  A    between atoms: N_21  and  C_22
REMARK    4  A    between atoms: C_22  and  C_23
REMARK    5  A    between atoms: C_23  and  C_24
REMARK    6  A    between atoms: C_23  and  C_25
REMARK    7  A    between atoms: C_23  and  O_26
REMARK                            x       y       z     vdW  Elec       q    Type
REMARK                         _______ _______ _______ _____ _____    ______ ____
ROOT
ATOM      1  C   UNL     1      -4.016  13.643  23.110  0.00  0.00    +0.000 C 
ATOM      2  C   UNL     1      -2.729  13.724  23.991  0.00  0.00    +0.000 C 
ATOM      3  C   UNL     1      -1.357  14.061  23.267  0.00  0.00    +0.000 C 
ATOM      4  C   UNL     1      -1.281  13.249  21.929  0.00  0.00    +0.000 C 
ATOM      5  C   UNL     1      -2.529  13.838  21.190  0.00  0.00    +0.000 C 
ATOM      6  C   UNL     1      -3.796  13.229  21.671  0.00  0.00    +0.000 C 
ATOM      7  C   UNL     1      -1.280  11.778  22.502  0.00  0.00    +0.000 C 
ATOM      8  C   UNL     1      -0.459  10.966  21.583  0.00  0.00    +0.000 A 
ATOM      9  C   UNL     1      -0.408   9.580  21.571  0.00  0.00    +0.000 A 
ATOM     10  C   UNL     1       0.334   8.958  20.574  0.00  0.00    +0.000 A 
ATOM     11  C   UNL     1       1.025   9.742  19.641  0.00  0.00    +0.000 A 
ATOM     12 BR   UNL     1       1.898   8.881  18.200  0.00  0.00    +0.000 Br
ATOM     13  C   UNL     1       1.018  11.141  19.714  0.00  0.00    +0.000 A 
ATOM     14  C   UNL     1       0.278  11.760  20.717  0.00  0.00    +0.000 A 
ATOM     15  C   UNL     1      -0.066  13.226  20.877  0.00  0.00    +0.000 C 
ATOM     16  N   UNL     1      -0.574  13.644  19.529  0.00  0.00    +0.000 NA
ATOM     17  C   UNL     1      -0.017  14.773  19.265  0.00  0.00    +0.000 C 
ATOM     18  N   UNL     1      -0.417  15.501  18.200  0.00  0.00    +0.000 N 
ATOM     19  N   UNL     1       0.953  15.145  20.116  0.00  0.00    +0.000 N 
ATOM     20  C   UNL     1       1.055  14.215  21.130  0.00  0.00    +0.000 C 
ATOM     21  O   UNL     1       1.867  14.214  22.049  0.00  0.00    +0.000 OA
ATOM     22  H   UNL     1      -1.298  15.153  17.822  0.00  0.00    +0.000 HD
ATOM     23  H   UNL     1      -0.427  16.510  18.328  0.00  0.00    +0.000 HD
ENDROOT
BRANCH   1  25
ATOM     24  C   UNL     1      -4.601  12.256  24.950  0.00  0.00    +0.000 C 
ATOM     25  O   UNL     1      -4.904  12.653  23.629  0.00  0.00    +0.000 OA
ENDBRANCH   1  25
BRANCH  19  26
ATOM     26  C   UNL     1       1.870  16.249  19.908  0.00  0.00    +0.000 C 
BRANCH  26  27
ATOM     27  C   UNL     1       3.157  15.838  19.168  0.00  0.00    +0.000 C 
ATOM     28  C   UNL     1       3.151  16.283  17.702  0.00  0.00    +0.000 C 
ATOM     29  C   UNL     1       4.354  16.448  19.906  0.00  0.00    +0.000 C 
BRANCH  27  30
ATOM     30  O   UNL     1       3.306  14.412  19.222  0.00  0.00    +0.000 OA
ATOM     31  H   UNL     1       2.986  14.048  18.378  0.00  0.00    +0.000 HD
ENDBRANCH  27  30
ENDBRANCH  26  27
ENDBRANCH  19  26
TORSDOF 4
ENDMDL
MODEL 4
REMARK VINA RESULT:      -6.2      3.434      5.783
REMARK  Name = 
REMARK  7 active torsions:
REMARK  status: ('A' for Active; 'I' for Inactive)
REMARK    1  A    between atoms: C_1  and  O_2
REMARK    2  A    between atoms: O_2  and  C_3
REMARK    3  A    between atoms: N_21  and  C_22
REMARK    4  A    between atoms: C_22  and  C_23
REMARK    5  A    between atoms: C_23  and  C_24
REMARK    6  A    between atoms: C_23  and  C_25
REMARK    7  A    between atoms: C_23  and  O_26
REMARK                            x       y       z     vdW  Elec       q    Type
REMARK                         _______ _______ _______ _____ _____    ______ ____
ROOT
ATOM      1  C   UNL     1       2.082   8.273  19.260  0.00  0.00    +0.000 C 
ATOM      2  C   UNL     1       2.246   9.288  18.084  0.00  0.00    +0.000 C 
ATOM      3  C   UNL     1       1.650  10.746  18.277  0.00  0.00    +0.000 C 
ATOM      4  C   UNL     1       0.242  10.629  18.955  0.00  0.00    +0.000 C 
ATOM      5  C   UNL     1       0.652   9.947  20.303  0.00  0.00    +0.000 C 
ATOM      6  C   UNL     1       0.870   8.487  20.141  0.00  0.00    +0.000 C 
ATOM      7  C   UNL     1      -0.537   9.837  17.833  0.00  0.00    +0.000 C 
ATOM      8  C   UNL     1      -1.936  10.299  17.882  0.00  0.00    +0.000 A 
ATOM      9  C   UNL     1      -3.005   9.680  17.248  0.00  0.00    +0.000 A 
ATOM     10  C   UNL     1      -4.282  10.177  17.476  0.00  0.00    +0.000 A 
ATOM     11  C   UNL     1      -4.447  11.293  18.306  0.00  0.00    +0.000 A 
ATOM     12 BR   UNL     1      -6.203  11.857  18.731  0.00  0.00    +0.000 Br
ATOM     13  C   UNL     1      -3.349  11.946  18.879  0.00  0.00    +0.000 A 
ATOM     14  C   UNL     1      -2.070  11.449  18.644  0.00  0.00    +0.000 A 
ATOM     15  C   UNL     1      -0.766  11.830  19.311  0.00  0.00    +0.000 C 
ATOM     16  N   UNL     1      -1.068  11.800  20.780  0.00  0.00    +0.000 NA
ATOM     17  C   UNL     1      -0.546  12.863  21.280  0.00  0.00    +0.000 C 
ATOM     18  N   UNL     1      -0.486  13.031  22.620  0.00  0.00    +0.000 N 
ATOM     19  N   UNL     1      -0.080  13.747  20.385  0.00  0.00    +0.000 N 
ATOM     20  C   UNL     1      -0.227  13.234  19.113  0.00  0.00    +0.000 C 
ATOM     21  O   UNL     1       0.046  13.793  18.057  0.00  0.00    +0.000 OA
ATOM     22  H   UNL     1      -0.688  12.161  23.113  0.00  0.00    +0.000 HD
ATOM     23  H   UNL     1       0.352  13.485  22.975  0.00  0.00    +0.000 HD
ENDROOT
BRANCH   1  25
ATOM     24  C   UNL     1       2.953   6.066  19.116  0.00  0.00    +0.000 C 
ATOM     25  O   UNL     1       1.915   6.951  18.747  0.00  0.00    +0.000 OA
ENDBRANCH   1  25
BRANCH  19  26
ATOM     26  C   UNL     1       0.343  15.101  20.688  0.00  0.00    +0.000 C 
BRANCH  26  27
ATOM     27  C   UNL     1       1.823  15.196  21.105  0.00  0.00    +0.000 C 
ATOM     28  C   UNL     1       2.720  14.268  20.280  0.00  0.00    +0.000 C 
ATOM     29  C   UNL     1       2.276  16.653  20.949  0.00  0.00    +0.000 C 
BRANCH  27  30
ATOM     30  O   UNL     1       1.952  14.858  22.493  0.00  0.00    +0.000 OA
ATOM     31  H   UNL     1       1.058  14.841  22.878  0.00  0.00    +0.000 HD
ENDBRANCH  27  30
ENDBRANCH  26  27
ENDBRANCH  19  26
TORSDOF 4
ENDMDL
MODEL 5
REMARK VINA RESULT:      -6.0      3.544      6.217
REMARK  Name = 
REMARK  7 active torsions:
REMARK  status: ('A' for Active; 'I' for Inactive)
REMARK    1  A    between atoms: C_1  and  O_2
REMARK    2  A    between atoms: O_2  and  C_3
REMARK    3  A    between atoms: N_21  and  C_22
REMARK    4  A    between atoms: C_22  and  C_23
REMARK    5  A    between atoms: C_23  and  C_24
REMARK    6  A    between atoms: C_23  and  C_25
REMARK    7  A    between atoms: C_23  and  O_26
REMARK                            x       y       z     vdW  Elec       q    Type
REMARK                         _______ _______ _______ _____ _____    ______ ____
ROOT
ATOM      1  C   UNL     1       0.924  10.094  21.333  0.00  0.00    +0.000 C 
ATOM      2  C   UNL     1       1.176  11.502  20.707  0.00  0.00    +0.000 C 
ATOM      3  C   UNL     1       0.178  12.673  21.095  0.00  0.00    +0.000 C 
ATOM      4  C   UNL     1      -1.286  12.114  21.081  0.00  0.00    +0.000 C 
ATOM      5  C   UNL     1      -1.161  11.016  22.190  0.00  0.00    +0.000 C 
ATOM      6  C   UNL     1      -0.516   9.781  21.676  0.00  0.00    +0.000 C 
ATOM      7  C   UNL     1      -1.417  11.733  19.554  0.00  0.00    +0.000 C 
ATOM      8  C   UNL     1      -2.829  11.950  19.184  0.00  0.00    +0.000 A 
ATOM      9  C   UNL     1      -3.427  11.495  18.017  0.00  0.00    +0.000 A 
ATOM     10  C   UNL     1      -4.795  11.690  17.861  0.00  0.00    +0.000 A 
ATOM     11  C   UNL     1      -5.513  12.356  18.862  0.00  0.00    +0.000 A 
ATOM     12 BR   UNL     1      -7.396  12.470  18.706  0.00  0.00    +0.000 Br
ATOM     13  C   UNL     1      -4.877  12.869  20.000  0.00  0.00    +0.000 A 
ATOM     14  C   UNL     1      -3.506  12.678  20.151  0.00  0.00    +0.000 A 
ATOM     15  C   UNL     1      -2.639  12.933  21.365  0.00  0.00    +0.000 C 
ATOM     16  N   UNL     1      -3.377  12.286  22.499  0.00  0.00    +0.000 NA
ATOM     17  C   UNL     1      -3.351  13.125  23.474  0.00  0.00    +0.000 C 
ATOM     18  N   UNL     1      -3.772  12.758  24.704  0.00  0.00    +0.000 N 
ATOM     19  N   UNL     1      -2.880  14.344  23.168  0.00  0.00    +0.000 N 
ATOM     20  C   UNL     1      -2.467  14.359  21.852  0.00  0.00    +0.000 C 
ATOM     21  O   UNL     1      -2.031  15.320  21.227  0.00  0.00    +0.000 OA
ATOM     22  H   UNL     1      -3.879  11.745  24.774  0.00  0.00    +0.000 HD
ATOM     23  H   UNL     1      -3.249  13.142  25.487  0.00  0.00    +0.000 HD
ENDROOT
BRANCH   1  25
ATOM     24  C   UNL     1       1.389   7.787  20.991  0.00  0.00    +0.000 C 
ATOM     25  O   UNL     1       1.295   9.071  20.409  0.00  0.00    +0.000 OA
ENDBRANCH   1  25
BRANCH  19  26
ATOM     26  C   UNL     1      -2.960  15.511  24.024  0.00  0.00    +0.000 C 
BRANCH  26  27
ATOM     27  C   UNL     1      -1.601  15.917  24.626  0.00  0.00    +0.000 C 
ATOM     28  C   UNL     1      -1.292  17.402  24.412  0.00  0.00    +0.000 C 
ATOM     29  C   UNL     1      -1.617  15.586  26.123  0.00  0.00    +0.000 C 
BRANCH  27  30
ATOM     30  O   UNL     1      -0.559  15.132  24.029  0.00  0.00    +0.000 OA
ATOM     31  H   UNL     1      -0.708  15.125  23.067  0.00  0.00    +0.000 HD
ENDBRANCH  27  30
ENDBRANCH  26  27
ENDBRANCH  19  26
TORSDOF 4
ENDMDL
MODEL 6
REMARK VINA RESULT:      -6.0      3.624      6.647
REMARK  Name = 
REMARK  7 active torsions:
REMARK  status: ('A' for Active; 'I' for Inactive)
REMARK    1  A    between atoms: C_1  and  O_2
REMARK    2  A    between atoms: O_2  and  C_3
REMARK    3  A    between atoms: N_21  and  C_22
REMARK    4  A    between atoms: C_22  and  C_23
REMARK    5  A    between atoms: C_23  and  C_24
REMARK    6  A    between atoms: C_23  and  C_25
REMARK    7  A    between atoms: C_23  and  O_26
REMARK                            x       y       z     vdW  Elec       q    Type
REMARK                         _______ _______ _______ _____ _____    ______ ____
ROOT
ATOM      1  C   UNL     1       0.814  10.349  21.703  0.00  0.00    +0.000 C 
ATOM      2  C   UNL     1       1.026  11.786  21.129  0.00  0.00    +0.000 C 
ATOM      3  C   UNL     1      -0.037  12.900  21.511  0.00  0.00    +0.000 C 
ATOM      4  C   UNL     1      -1.473  12.277  21.421  0.00  0.00    +0.000 C 
ATOM      5  C   UNL     1      -1.343  11.152  22.501  0.00  0.00    +0.000 C 
ATOM      6  C   UNL     1      -0.623   9.963  21.978  0.00  0.00    +0.000 C 
ATOM      7  C   UNL     1      -1.527  11.939  19.880  0.00  0.00    +0.000 C 
ATOM      8  C   UNL     1      -2.931  12.105  19.459  0.00  0.00    +0.000 A 
ATOM      9  C   UNL     1      -3.462  11.662  18.256  0.00  0.00    +0.000 A 
ATOM     10  C   UNL     1      -4.830  11.801  18.050  0.00  0.00    +0.000 A 
ATOM     11  C   UNL     1      -5.616  12.403  19.041  0.00  0.00    +0.000 A 
ATOM     12 BR   UNL     1      -7.494  12.439  18.812  0.00  0.00    +0.000 Br
ATOM     13  C   UNL     1      -5.049  12.907  20.218  0.00  0.00    +0.000 A 
ATOM     14  C   UNL     1      -3.678  12.772  20.418  0.00  0.00    +0.000 A 
ATOM     15  C   UNL     1      -2.872  13.027  21.674  0.00  0.00    +0.000 C 
ATOM     16  N   UNL     1      -3.624  12.313  22.758  0.00  0.00    +0.000 NA
ATOM     17  C   UNL     1      -3.675  13.121  23.757  0.00  0.00    +0.000 C 
ATOM     18  N   UNL     1      -4.126  12.697  24.958  0.00  0.00    +0.000 N 
ATOM     19  N   UNL     1      -3.247  14.369  23.506  0.00  0.00    +0.000 N 
ATOM     20  C   UNL     1      -2.784  14.443  22.209  0.00  0.00    +0.000 C 
ATOM     21  O   UNL     1      -2.367  15.441  21.632  0.00  0.00    +0.000 OA
ATOM     22  H   UNL     1      -4.190  11.680  24.993  0.00  0.00    +0.000 HD
ATOM     23  H   UNL     1      -3.652  13.079  25.772  0.00  0.00    +0.000 HD
ENDROOT
BRANCH   1  25
ATOM     24  C   UNL     1       1.141   8.044  21.224  0.00  0.00    +0.000 C 
ATOM     25  O   UNL     1       1.267   9.374  20.764  0.00  0.00    +0.000 OA
ENDBRANCH   1  25
BRANCH  19  26
ATOM     26  C   UNL     1      -3.413  15.504  24.393  0.00  0.00    +0.000 C 
BRANCH  26  27
ATOM     27  C   UNL     1      -4.623  16.386  24.031  0.00  0.00    +0.000 C 
ATOM     28  C   UNL     1      -5.882  15.560  23.754  0.00  0.00    +0.000 C 
ATOM     29  C   UNL     1      -4.870  17.365  25.185  0.00  0.00    +0.000 C 
BRANCH  27  30
ATOM     30  O   UNL     1      -4.314  17.170  22.869  0.00  0.00    +0.000 OA
ATOM     31  H   UNL     1      -4.712  18.050  22.991  0.00  0.00    +0.000 HD
ENDBRANCH  27  30
ENDBRANCH  26  27
ENDBRANCH  19  26
TORSDOF 4
ENDMDL
MODEL 7
REMARK VINA RESULT:      -5.9      3.574      6.005
REMARK  Name = 
REMARK  7 active torsions:
REMARK  status: ('A' for Active; 'I' for Inactive)
REMARK    1  A    between atoms: C_1  and  O_2
REMARK    2  A    between atoms: O_2  and  C_3
REMARK    3  A    between atoms: N_21  and  C_22
REMARK    4  A    between atoms: C_22  and  C_23
REMARK    5  A    between atoms: C_23  and  C_24
REMARK    6  A    between atoms: C_23  and  C_25
REMARK    7  A    between atoms: C_23  and  O_26
REMARK                            x       y       z     vdW  Elec       q    Type
REMARK                         _______ _______ _______ _____ _____    ______ ____
ROOT
ATOM      1  C   UNL     1       2.020   8.525  19.282  0.00  0.00    +0.000 C 
ATOM      2  C   UNL     1       2.142   9.578  18.135  0.00  0.00    +0.000 C 
ATOM      3  C   UNL     1       1.482  11.002  18.365  0.00  0.00    +0.000 C 
ATOM      4  C   UNL     1       0.079  10.806  19.035  0.00  0.00    +0.000 C 
ATOM      5  C   UNL     1       0.516  10.106  20.365  0.00  0.00    +0.000 C 
ATOM      6  C   UNL     1       0.798   8.662  20.164  0.00  0.00    +0.000 C 
ATOM      7  C   UNL     1      -0.661  10.011  17.889  0.00  0.00    +0.000 C 
ATOM      8  C   UNL     1      -2.080  10.410  17.946  0.00  0.00    +0.000 A 
ATOM      9  C   UNL     1      -3.119   9.762  17.292  0.00  0.00    +0.000 A 
ATOM     10  C   UNL     1      -4.418  10.197  17.529  0.00  0.00    +0.000 A 
ATOM     11  C   UNL     1      -4.633  11.282  18.388  0.00  0.00    +0.000 A 
ATOM     12 BR   UNL     1      -6.413  11.757  18.822  0.00  0.00    +0.000 Br
ATOM     13  C   UNL     1      -3.566  11.967  18.983  0.00  0.00    +0.000 A 
ATOM     14  C   UNL     1      -2.265  11.532  18.739  0.00  0.00    +0.000 A 
ATOM     15  C   UNL     1      -0.980  11.951  19.420  0.00  0.00    +0.000 C 
ATOM     16  N   UNL     1      -1.284  11.868  20.886  0.00  0.00    +0.000 NA
ATOM     17  C   UNL     1      -0.810  12.940  21.417  0.00  0.00    +0.000 C 
ATOM     18  N   UNL     1      -0.760  13.074  22.760  0.00  0.00    +0.000 N 
ATOM     19  N   UNL     1      -0.381  13.867  20.547  0.00  0.00    +0.000 N 
ATOM     20  C   UNL     1      -0.503  13.382  19.262  0.00  0.00    +0.000 C 
ATOM     21  O   UNL     1      -0.253  13.981  18.221  0.00  0.00    +0.000 OA
ATOM     22  H   UNL     1      -0.926  12.182  23.229  0.00  0.00    +0.000 HD
ATOM     23  H   UNL     1       0.056  13.554  23.130  0.00  0.00    +0.000 HD
ENDROOT
BRANCH   1  25
ATOM     24  C   UNL     1       2.505   6.212  19.537  0.00  0.00    +0.000 C 
ATOM     25  O   UNL     1       1.913   7.212  18.733  0.00  0.00    +0.000 OA
ENDBRANCH   1  25
BRANCH  19  26
ATOM     26  C   UNL     1      -0.019  15.229  20.888  0.00  0.00    +0.000 C 
BRANCH  26  27
ATOM     27  C   UNL     1      -1.168  16.234  20.680  0.00  0.00    +0.000 C 
ATOM     28  C   UNL     1      -1.602  16.899  21.990  0.00  0.00    +0.000 C 
ATOM     29  C   UNL     1      -0.707  17.293  19.670  0.00  0.00    +0.000 C 
BRANCH  27  30
ATOM     30  O   UNL     1      -2.295  15.560  20.103  0.00  0.00    +0.000 OA
ATOM     31  H   UNL     1      -3.083  15.805  20.619  0.00  0.00    +0.000 HD
ENDBRANCH  27  30
ENDBRANCH  26  27
ENDBRANCH  19  26
TORSDOF 4
ENDMDL
MODEL 8
REMARK VINA RESULT:      -5.9      3.187      6.673
REMARK  Name = 
REMARK  7 active torsions:
REMARK  status: ('A' for Active; 'I' for Inactive)
REMARK    1  A    between atoms: C_1  and  O_2
REMARK    2  A    between atoms: O_2  and  C_3
REMARK    3  A    between atoms: N_21  and  C_22
REMARK    4  A    between atoms: C_22  and  C_23
REMARK    5  A    between atoms: C_23  and  C_24
REMARK    6  A    between atoms: C_23  and  C_25
REMARK    7  A    between atoms: C_23  and  O_26
REMARK                            x       y       z     vdW  Elec       q    Type
REMARK                         _______ _______ _______ _____ _____    ______ ____
ROOT
ATOM      1  C   UNL     1       1.396   8.357  18.860  0.00  0.00    +0.000 C 
ATOM      2  C   UNL     1       1.109   8.770  20.339  0.00  0.00    +0.000 C 
ATOM      3  C   UNL     1      -0.067   9.801  20.604  0.00  0.00    +0.000 C 
ATOM      4  C   UNL     1       0.005  10.936  19.525  0.00  0.00    +0.000 C 
ATOM      5  C   UNL     1      -0.203  10.083  18.229  0.00  0.00    +0.000 C 
ATOM      6  C   UNL     1       1.045   9.393  17.814  0.00  0.00    +0.000 C 
ATOM      7  C   UNL     1       1.408  11.564  19.884  0.00  0.00    +0.000 C 
ATOM      8  C   UNL     1       1.315  13.006  19.586  0.00  0.00    +0.000 A 
ATOM      9  C   UNL     1       2.393  13.877  19.512  0.00  0.00    +0.000 A 
ATOM     10  C   UNL     1       2.152  15.188  19.118  0.00  0.00    +0.000 A 
ATOM     11  C   UNL     1       0.839  15.592  18.839  0.00  0.00    +0.000 A 
ATOM     12 BR   UNL     1       0.551  17.332  18.152  0.00  0.00    +0.000 Br
ATOM     13  C   UNL     1      -0.242  14.716  18.989  0.00  0.00    +0.000 A 
ATOM     14  C   UNL     1       0.002  13.404  19.390  0.00  0.00    +0.000 A 
ATOM     15  C   UNL     1      -0.947  12.225  19.411  0.00  0.00    +0.000 C 
ATOM     16  N   UNL     1      -1.598  12.238  18.060  0.00  0.00    +0.000 NA
ATOM     17  C   UNL     1      -2.854  12.049  18.259  0.00  0.00    +0.000 C 
ATOM     18  N   UNL     1      -3.686  11.821  17.219  0.00  0.00    +0.000 N 
ATOM     19  N   UNL     1      -3.242  12.089  19.544  0.00  0.00    +0.000 N 
ATOM     20  C   UNL     1      -2.137  12.263  20.351  0.00  0.00    +0.000 C 
ATOM     21  O   UNL     1      -2.128  12.393  21.570  0.00  0.00    +0.000 OA
ATOM     22  H   UNL     1      -3.166  11.614  16.366  0.00  0.00    +0.000 HD
ATOM     23  H   UNL     1      -4.433  11.152  17.384  0.00  0.00    +0.000 HD
ENDROOT
BRANCH   1  25
ATOM     24  C   UNL     1       3.104   6.815  18.260  0.00  0.00    +0.000 C 
ATOM     25  O   UNL     1       2.793   8.130  18.675  0.00  0.00    +0.000 OA
ENDBRANCH   1  25
BRANCH  19  26
ATOM     26  C   UNL     1      -4.617  12.128  20.001  0.00  0.00    +0.000 C 
BRANCH  26  27
ATOM     27  C   UNL     1      -5.140  13.559  20.234  0.00  0.00    +0.000 C 
ATOM     28  C   UNL     1      -6.184  13.972  19.192  0.00  0.00    +0.000 C 
ATOM     29  C   UNL     1      -5.735  13.632  21.645  0.00  0.00    +0.000 C 
BRANCH  27  30
ATOM     30  O   UNL     1      -4.043  14.483  20.187  0.00  0.00    +0.000 OA
ATOM     31  H   UNL     1      -3.787  14.686  21.105  0.00  0.00    +0.000 HD
ENDBRANCH  27  30
ENDBRANCH  26  27
ENDBRANCH  19  26
TORSDOF 4
ENDMDL
MODEL 9
REMARK VINA RESULT:      -5.9      2.702      6.322
REMARK  Name = 
REMARK  7 active torsions:
REMARK  status: ('A' for Active; 'I' for Inactive)
REMARK    1  A    between atoms: C_1  and  O_2
REMARK    2  A    between atoms: O_2  and  C_3
REMARK    3  A    between atoms: N_21  and  C_22
REMARK    4  A    between atoms: C_22  and  C_23
REMARK    5  A    between atoms: C_23  and  C_24
REMARK    6  A    between atoms: C_23  and  C_25
REMARK    7  A    between atoms: C_23  and  O_26
REMARK                            x       y       z     vdW  Elec       q    Type
REMARK                         _______ _______ _______ _____ _____    ______ ____
ROOT
ATOM      1  C   UNL     1       0.101   8.790  21.122  0.00  0.00    +0.000 C 
ATOM      2  C   UNL     1       0.350   9.557  22.460  0.00  0.00    +0.000 C 
ATOM      3  C   UNL     1      -0.428  10.920  22.687  0.00  0.00    +0.000 C 
ATOM      4  C   UNL     1      -0.404  11.743  21.354  0.00  0.00    +0.000 C 
ATOM      5  C   UNL     1      -1.163  10.749  20.414  0.00  0.00    +0.000 C 
ATOM      6  C   UNL     1      -0.280   9.653  19.938  0.00  0.00    +0.000 C 
ATOM      7  C   UNL     1       1.150  11.988  21.214  0.00  0.00    +0.000 C 
ATOM      8  C   UNL     1       1.315  13.303  20.566  0.00  0.00    +0.000 A 
ATOM      9  C   UNL     1       2.499  13.785  20.026  0.00  0.00    +0.000 A 
ATOM     10  C   UNL     1       2.468  15.002  19.355  0.00  0.00    +0.000 A 
ATOM     11  C   UNL     1       1.262  15.710  19.271  0.00  0.00    +0.000 A 
ATOM     12 BR   UNL     1       1.205  17.283  18.221  0.00  0.00    +0.000 Br
ATOM     13  C   UNL     1       0.095  15.240  19.885  0.00  0.00    +0.000 A 
ATOM     14  C   UNL     1       0.130  14.023  20.561  0.00  0.00    +0.000 A 
ATOM     15  C   UNL     1      -1.021  13.206  21.106  0.00  0.00    +0.000 C 
ATOM     16  N   UNL     1      -2.007  13.139  19.978  0.00  0.00    +0.000 NA
ATOM     17  C   UNL     1      -3.163  13.373  20.490  0.00  0.00    +0.000 C 
ATOM     18  N   UNL     1      -4.285  13.197  19.758  0.00  0.00    +0.000 N 
ATOM     19  N   UNL     1      -3.150  13.782  21.769  0.00  0.00    +0.000 N 
ATOM     20  C   UNL     1      -1.853  13.780  22.238  0.00  0.00    +0.000 C 
ATOM     21  O   UNL     1      -1.469  14.143  23.344  0.00  0.00    +0.000 OA
ATOM     22  H   UNL     1      -4.091  12.679  18.900  0.00  0.00    +0.000 HD
ATOM     23  H   UNL     1      -5.088  12.825  20.257  0.00  0.00    +0.000 HD
ENDROOT
BRANCH   1  25
ATOM     24  C   UNL     1       1.731   8.506  19.415  0.00  0.00    +0.000 C 
ATOM     25  O   UNL     1       1.296   8.129  20.705  0.00  0.00    +0.000 OA
ENDBRANCH   1  25
BRANCH  19  26
ATOM     26  C   UNL     1      -4.290  14.316  22.488  0.00  0.00    +0.000 C 
BRANCH  26  27
ATOM     27  C   UNL     1      -5.105  13.235  23.223  0.00  0.00    +0.000 C 
ATOM     28  C   UNL     1      -4.330  12.614  24.388  0.00  0.00    +0.000 C 
ATOM     29  C   UNL     1      -6.407  13.870  23.726  0.00  0.00    +0.000 C 
BRANCH  27  30
ATOM     30  O   UNL     1      -5.468  12.198  22.299  0.00  0.00    +0.000 OA
ATOM     31  H   UNL     1      -5.107  11.360  22.638  0.00  0.00    +0.000 HD
ENDBRANCH  27  30
ENDBRANCH  26  27
ENDBRANCH  19  26
TORSDOF 4
ENDMDL
