MODEL 1
REMARK VINA RESULT:      -7.1      0.000      0.000
REMARK  Name = 
REMARK  10 active torsions:
REMARK  status: ('A' for Active; 'I' for Inactive)
REMARK    1  A    between atoms: N_2  and  C_3
REMARK    2  A    between atoms: C_6  and  C_7
REMARK    3  A    between atoms: N_15  and  C_16
REMARK    4  A    between atoms: C_16  and  C_17
REMARK    5  A    between atoms: C_19  and  C_20
REMARK    6  A    between atoms: C_23  and  S_24
REMARK    7  A    between atoms: S_24  and  C_27
REMARK    8  A    between atoms: C_27  and  C_28
REMARK    9  A    between atoms: C_30  and  O_31
REMARK   10  A    between atoms: O_31  and  C_32
REMARK                            x       y       z     vdW  Elec       q    Type
REMARK                         _______ _______ _______ _____ _____    ______ ____
ROOT
ATOM      1  C   UNL     1       0.544  12.142  18.723  0.00  0.00    +0.000 A 
ATOM      2  C   UNL     1      -0.215  13.303  18.872  0.00  0.00    +0.000 A 
ATOM      3  C   UNL     1      -1.587  13.208  19.047  0.00  0.00    +0.000 A 
ATOM      4  C   UNL     1      -2.238  11.966  19.021  0.00  0.00    +0.000 A 
ATOM      5  C   UNL     1      -1.425  10.806  18.969  0.00  0.00    +0.000 A 
ATOM      6  C   UNL     1      -0.014  10.845  18.847  0.00  0.00    +0.000 A 
ENDROOT
BRANCH   4   7
ATOM      7  C   UNL     1      -3.708  11.899  19.008  0.00  0.00    +0.000 A 
ATOM      8  C   UNL     1      -4.503  11.542  17.918  0.00  0.00    +0.000 A 
ATOM      9  N   UNL     1      -5.866  11.502  17.905  0.00  0.00    +0.000 NA
ATOM     10  N   UNL     1      -6.561  11.815  18.987  0.00  0.00    +0.000 NA
ATOM     11  C   UNL     1      -5.845  12.167  20.065  0.00  0.00    +0.000 A 
ATOM     12  C   UNL     1      -4.463  12.232  20.146  0.00  0.00    +0.000 A 
ATOM     13  N   UNL     1      -4.089  12.649  21.409  0.00  0.00    +0.000 NA
ATOM     14  C   UNL     1      -5.208  12.809  22.077  0.00  0.00    +0.000 A 
ATOM     15  N   UNL     1      -6.298  12.532  21.300  0.00  0.00    +0.000 N 
BRANCH  15  16
ATOM     16  C   UNL     1      -7.676  12.605  21.730  0.00  0.00    +0.000 C 
ATOM     17  C   UNL     1      -7.853  12.143  23.164  0.00  0.00    +0.000 C 
ENDBRANCH  15  16
ENDBRANCH   4   7
BRANCH   6  18
ATOM     18  C   UNL     1       0.819   9.594  18.940  0.00  0.00    +0.000 A 
ATOM     19  C   UNL     1       1.365   9.072  17.742  0.00  0.00    +0.000 A 
ATOM     20  C   UNL     1       2.138   7.914  17.694  0.00  0.00    +0.000 A 
ATOM     21  C   UNL     1       2.446   7.266  18.877  0.00  0.00    +0.000 A 
ATOM     22  C   UNL     1       1.994   7.769  20.096  0.00  0.00    +0.000 A 
ATOM     23  C   UNL     1       1.189   8.925  20.140  0.00  0.00    +0.000 A 
BRANCH  21  24
ATOM     24  S   UNL     1       3.527   5.857  18.841  0.00  0.00    +0.000 S 
ATOM     25  O   UNL     1       4.792   6.306  18.288  0.00  0.00    +0.000 OA
ATOM     26  O   UNL     1       3.464   5.244  20.155  0.00  0.00    +0.000 OA
BRANCH  24  27
ATOM     27  C   UNL     1       2.751   4.768  17.669  0.00  0.00    +0.000 C 
ATOM     28  C   UNL     1       1.474   4.182  18.240  0.00  0.00    +0.000 C 
ENDBRANCH  24  27
ENDBRANCH  21  24
BRANCH  23  29
ATOM     29  O   UNL     1       0.714   9.401  21.342  0.00  0.00    +0.000 OA
ATOM     30  C   UNL     1      -0.381   8.678  21.916  0.00  0.00    +0.000 C 
ENDBRANCH  23  29
ENDBRANCH   6  18
BRANCH   1  32
ATOM     31  C   UNL     1       3.005  12.622  18.177  0.00  0.00    +0.000 C 
ATOM     32  N   UNL     1       1.885  12.364  18.416  0.00  0.00    +0.000 NA
ENDBRANCH   1  32
TORSDOF 7
ENDMDL
MODEL 2
REMARK VINA RESULT:      -7.0      3.284      6.873
REMARK  Name = 
REMARK  10 active torsions:
REMARK  status: ('A' for Active; 'I' for Inactive)
REMARK    1  A    between atoms: N_2  and  C_3
REMARK    2  A    between atoms: C_6  and  C_7
REMARK    3  A    between atoms: N_15  and  C_16
REMARK    4  A    between atoms: C_16  and  C_17
REMARK    5  A    between atoms: C_19  and  C_20
REMARK    6  A    between atoms: C_23  and  S_24
REMARK    7  A    between atoms: S_24  and  C_27
REMARK    8  A    between atoms: C_27  and  C_28
REMARK    9  A    between atoms: C_30  and  O_31
REMARK   10  A    between atoms: O_31  and  C_32
REMARK                            x       y       z     vdW  Elec       q    Type
REMARK                         _______ _______ _______ _____ _____    ______ ____
ROOT
ATOM      1  C   UNL     1      -0.445  11.724  18.508  0.00  0.00    +0.000 A 
ATOM      2  C   UNL     1      -0.751  13.048  18.193  0.00  0.00    +0.000 A 
ATOM      3  C   UNL     1       0.121  14.059  18.562  0.00  0.00    +0.000 A 
ATOM      4  C   UNL     1       1.282  13.785  19.299  0.00  0.00    +0.000 A 
ATOM      5  C   UNL     1       1.610  12.423  19.512  0.00  0.00    +0.000 A 
ATOM      6  C   UNL     1       0.783  11.346  19.107  0.00  0.00    +0.000 A 
ENDROOT
BRANCH   4   7
ATOM      7  C   UNL     1       2.089  14.885  19.852  0.00  0.00    +0.000 A 
ATOM      8  C   UNL     1       1.703  15.751  20.875  0.00  0.00    +0.000 A 
ATOM      9  N   UNL     1       2.445  16.783  21.369  0.00  0.00    +0.000 NA
ATOM     10  N   UNL     1       3.648  17.042  20.883  0.00  0.00    +0.000 NA
ATOM     11  C   UNL     1       4.069  16.239  19.894  0.00  0.00    +0.000 A 
ATOM     12  C   UNL     1       3.366  15.178  19.344  0.00  0.00    +0.000 A 
ATOM     13  N   UNL     1       4.113  14.596  18.337  0.00  0.00    +0.000 NA
ATOM     14  C   UNL     1       5.240  15.269  18.296  0.00  0.00    +0.000 A 
ATOM     15  N   UNL     1       5.255  16.277  19.219  0.00  0.00    +0.000 N 
BRANCH  15  16
ATOM     16  C   UNL     1       6.345  17.200  19.437  0.00  0.00    +0.000 C 
ATOM     17  C   UNL     1       7.498  16.961  18.479  0.00  0.00    +0.000 C 
ENDBRANCH  15  16
ENDBRANCH   4   7
BRANCH   6  18
ATOM     18  C   UNL     1       1.237   9.916  19.226  0.00  0.00    +0.000 A 
ATOM     19  C   UNL     1       1.833   9.313  18.091  0.00  0.00    +0.000 A 
ATOM     20  C   UNL     1       2.279   7.993  18.071  0.00  0.00    +0.000 A 
ATOM     21  C   UNL     1       2.197   7.242  19.230  0.00  0.00    +0.000 A 
ATOM     22  C   UNL     1       1.683   7.800  20.399  0.00  0.00    +0.000 A 
ATOM     23  C   UNL     1       1.206   9.126  20.410  0.00  0.00    +0.000 A 
BRANCH  21  24
ATOM     24  S   UNL     1       2.870   5.598  19.249  0.00  0.00    +0.000 S 
ATOM     25  O   UNL     1       2.391   4.929  18.053  0.00  0.00    +0.000 OA
ATOM     26  O   UNL     1       4.291   5.727  19.511  0.00  0.00    +0.000 OA
BRANCH  24  27
ATOM     27  C   UNL     1       2.097   4.849  20.665  0.00  0.00    +0.000 C 
ATOM     28  C   UNL     1       0.990   3.904  20.239  0.00  0.00    +0.000 C 
ENDBRANCH  24  27
ENDBRANCH  21  24
BRANCH  23  29
ATOM     29  O   UNL     1       0.665   9.665  21.556  0.00  0.00    +0.000 OA
ATOM     30  C   UNL     1      -0.412   8.930  22.149  0.00  0.00    +0.000 C 
ENDBRANCH  23  29
ENDBRANCH   6  18
BRANCH   1  32
ATOM     31  C   UNL     1      -2.254   9.994  17.941  0.00  0.00    +0.000 C 
ATOM     32  N   UNL     1      -1.456  10.810  18.213  0.00  0.00    +0.000 NA
ENDBRANCH   1  32
TORSDOF 7
ENDMDL
MODEL 3
REMARK VINA RESULT:      -6.9      1.086      1.285
REMARK  Name = 
REMARK  10 active torsions:
REMARK  status: ('A' for Active; 'I' for Inactive)
REMARK    1  A    between atoms: N_2  and  C_3
REMARK    2  A    between atoms: C_6  and  C_7
REMARK    3  A    between atoms: N_15  and  C_16
REMARK    4  A    between atoms: C_16  and  C_17
REMARK    5  A    between atoms: C_19  and  C_20
REMARK    6  A    between atoms: C_23  and  S_24
REMARK    7  A    between atoms: S_24  and  C_27
REMARK    8  A    between atoms: C_27  and  C_28
REMARK    9  A    between atoms: C_30  and  O_31
REMARK   10  A    between atoms: O_31  and  C_32
REMARK                            x       y       z     vdW  Elec       q    Type
REMARK                         _______ _______ _______ _____ _____    ______ ____
ROOT
ATOM      1  C   UNL     1       0.475  12.430  19.028  0.00  0.00    +0.000 A 
ATOM      2  C   UNL     1      -0.239  13.592  19.323  0.00  0.00    +0.000 A 
ATOM      3  C   UNL     1      -1.588  13.509  19.626  0.00  0.00    +0.000 A 
ATOM      4  C   UNL     1      -2.267  12.283  19.587  0.00  0.00    +0.000 A 
ATOM      5  C   UNL     1      -1.491  11.115  19.384  0.00  0.00    +0.000 A 
ATOM      6  C   UNL     1      -0.098  11.137  19.126  0.00  0.00    +0.000 A 
ENDROOT
BRANCH   4   7
ATOM      7  C   UNL     1      -3.733  12.242  19.716  0.00  0.00    +0.000 A 
ATOM      8  C   UNL     1      -4.639  11.964  18.691  0.00  0.00    +0.000 A 
ATOM      9  N   UNL     1      -5.998  11.950  18.810  0.00  0.00    +0.000 NA
ATOM     10  N   UNL     1      -6.576  12.209  19.971  0.00  0.00    +0.000 NA
ATOM     11  C   UNL     1      -5.751  12.483  20.992  0.00  0.00    +0.000 A 
ATOM     12  C   UNL     1      -4.366  12.520  20.940  0.00  0.00    +0.000 A 
ATOM     13  N   UNL     1      -3.861  12.854  22.182  0.00  0.00    +0.000 NA
ATOM     14  C   UNL     1      -4.906  12.993  22.965  0.00  0.00    +0.000 A 
ATOM     15  N   UNL     1      -6.072  12.782  22.285  0.00  0.00    +0.000 N 
BRANCH  15  16
ATOM     16  C   UNL     1      -7.400  12.853  22.852  0.00  0.00    +0.000 C 
ATOM     17  C   UNL     1      -7.408  13.537  24.206  0.00  0.00    +0.000 C 
ENDBRANCH  15  16
ENDBRANCH   4   7
BRANCH   6  18
ATOM     18  C   UNL     1       0.710   9.869  19.058  0.00  0.00    +0.000 A 
ATOM     19  C   UNL     1       1.172   9.444  17.788  0.00  0.00    +0.000 A 
ATOM     20  C   UNL     1       1.914   8.282  17.592  0.00  0.00    +0.000 A 
ATOM     21  C   UNL     1       2.277   7.527  18.693  0.00  0.00    +0.000 A 
ATOM     22  C   UNL     1       1.911   7.929  19.977  0.00  0.00    +0.000 A 
ATOM     23  C   UNL     1       1.136   9.090  20.171  0.00  0.00    +0.000 A 
BRANCH  21  24
ATOM     24  S   UNL     1       3.322   6.108  18.469  0.00  0.00    +0.000 S 
ATOM     25  O   UNL     1       3.906   5.801  19.762  0.00  0.00    +0.000 OA
ATOM     26  O   UNL     1       2.540   5.119  17.751  0.00  0.00    +0.000 OA
BRANCH  24  27
ATOM     27  C   UNL     1       4.608   6.704  17.394  0.00  0.00    +0.000 C 
ATOM     28  C   UNL     1       5.565   5.587  17.028  0.00  0.00    +0.000 C 
ENDBRANCH  24  27
ENDBRANCH  21  24
BRANCH  23  29
ATOM     29  O   UNL     1       0.745   9.466  21.436  0.00  0.00    +0.000 OA
ATOM     30  C   UNL     1      -0.340   8.724  22.005  0.00  0.00    +0.000 C 
ENDBRANCH  23  29
ENDBRANCH   6  18
BRANCH   1  32
ATOM     31  C   UNL     1       2.909  12.828  18.319  0.00  0.00    +0.000 C 
ATOM     32  N   UNL     1       1.785  12.647  18.604  0.00  0.00    +0.000 NA
ENDBRANCH   1  32
TORSDOF 7
ENDMDL
MODEL 4
REMARK VINA RESULT:      -6.8      3.220      6.675
REMARK  Name = 
REMARK  10 active torsions:
REMARK  status: ('A' for Active; 'I' for Inactive)
REMARK    1  A    between atoms: N_2  and  C_3
REMARK    2  A    between atoms: C_6  and  C_7
REMARK    3  A    between atoms: N_15  and  C_16
REMARK    4  A    between atoms: C_16  and  C_17
REMARK    5  A    between atoms: C_19  and  C_20
REMARK    6  A    between atoms: C_23  and  S_24
REMARK    7  A    between atoms: S_24  and  C_27
REMARK    8  A    between atoms: C_27  and  C_28
REMARK    9  A    between atoms: C_30  and  O_31
REMARK   10  A    between atoms: O_31  and  C_32
REMARK                            x       y       z     vdW  Elec       q    Type
REMARK                         _______ _______ _______ _____ _____    ______ ____
ROOT
ATOM      1  C   UNL     1      -0.510  11.463  18.491  0.00  0.00    +0.000 A 
ATOM      2  C   UNL     1      -0.875  12.761  18.135  0.00  0.00    +0.000 A 
ATOM      3  C   UNL     1      -0.036  13.819  18.450  0.00  0.00    +0.000 A 
ATOM      4  C   UNL     1       1.149  13.617  19.171  0.00  0.00    +0.000 A 
ATOM      5  C   UNL     1       1.535  12.277  19.426  0.00  0.00    +0.000 A 
ATOM      6  C   UNL     1       0.743  11.155  19.077  0.00  0.00    +0.000 A 
ENDROOT
BRANCH   4   7
ATOM      7  C   UNL     1       1.922  14.767  19.667  0.00  0.00    +0.000 A 
ATOM      8  C   UNL     1       1.521  15.655  20.666  0.00  0.00    +0.000 A 
ATOM      9  N   UNL     1       2.231  16.733  21.106  0.00  0.00    +0.000 NA
ATOM     10  N   UNL     1       3.414  17.019  20.587  0.00  0.00    +0.000 NA
ATOM     11  C   UNL     1       3.848  16.197  19.620  0.00  0.00    +0.000 A 
ATOM     12  C   UNL     1       3.177  15.090  19.124  0.00  0.00    +0.000 A 
ATOM     13  N   UNL     1       3.927  14.500  18.124  0.00  0.00    +0.000 NA
ATOM     14  C   UNL     1       5.026  15.215  18.035  0.00  0.00    +0.000 A 
ATOM     15  N   UNL     1       5.018  16.256  18.920  0.00  0.00    +0.000 N 
BRANCH  15  16
ATOM     16  C   UNL     1       6.075  17.228  19.082  0.00  0.00    +0.000 C 
ATOM     17  C   UNL     1       7.075  16.814  20.146  0.00  0.00    +0.000 C 
ENDBRANCH  15  16
ENDBRANCH   4   7
BRANCH   6  18
ATOM     18  C   UNL     1       1.257   9.749  19.237  0.00  0.00    +0.000 A 
ATOM     19  C   UNL     1       1.883   9.141  18.122  0.00  0.00    +0.000 A 
ATOM     20  C   UNL     1       2.384   7.841  18.140  0.00  0.00    +0.000 A 
ATOM     21  C   UNL     1       2.328   7.119  19.319  0.00  0.00    +0.000 A 
ATOM     22  C   UNL     1       1.784   7.687  20.470  0.00  0.00    +0.000 A 
ATOM     23  C   UNL     1       1.252   8.992  20.443  0.00  0.00    +0.000 A 
BRANCH  21  24
ATOM     24  S   UNL     1       3.068   5.506  19.386  0.00  0.00    +0.000 S 
ATOM     25  O   UNL     1       4.498   5.701  19.545  0.00  0.00    +0.000 OA
ATOM     26  O   UNL     1       2.311   4.734  20.354  0.00  0.00    +0.000 OA
BRANCH  24  27
ATOM     27  C   UNL     1       2.764   4.840  17.765  0.00  0.00    +0.000 C 
ATOM     28  C   UNL     1       1.449   4.084  17.732  0.00  0.00    +0.000 C 
ENDBRANCH  24  27
ENDBRANCH  21  24
BRANCH  23  29
ATOM     29  O   UNL     1       0.683   9.538  21.571  0.00  0.00    +0.000 OA
ATOM     30  C   UNL     1      -0.545   8.945  22.006  0.00  0.00    +0.000 C 
ENDBRANCH  23  29
ENDBRANCH   6  18
BRANCH   1  32
ATOM     31  C   UNL     1      -2.341   9.703  18.116  0.00  0.00    +0.000 C 
ATOM     32  N   UNL     1      -1.490  10.500  18.250  0.00  0.00    +0.000 NA
ENDBRANCH   1  32
TORSDOF 7
ENDMDL
MODEL 5
REMARK VINA RESULT:      -6.8      4.203      8.412
REMARK  Name = 
REMARK  10 active torsions:
REMARK  status: ('A' for Active; 'I' for Inactive)
REMARK    1  A    between atoms: N_2  and  C_3
REMARK    2  A    between atoms: C_6  and  C_7
REMARK    3  A    between atoms: N_15  and  C_16
REMARK    4  A    between atoms: C_16  and  C_17
REMARK    5  A    between atoms: C_19  and  C_20
REMARK    6  A    between atoms: C_23  and  S_24
REMARK    7  A    between atoms: S_24  and  C_27
REMARK    8  A    between atoms: C_27  and  C_28
REMARK    9  A    between atoms: C_30  and  O_31
REMARK   10  A    between atoms: O_31  and  C_32
REMARK                            x       y       z     vdW  Elec       q    Type
REMARK                         _______ _______ _______ _____ _____    ______ ____
ROOT
ATOM      1  C   UNL     1       0.445  12.675  18.581  0.00  0.00    +0.000 A 
ATOM      2  C   UNL     1       1.803  12.515  18.304  0.00  0.00    +0.000 A 
ATOM      3  C   UNL     1       2.328  11.240  18.166  0.00  0.00    +0.000 A 
ATOM      4  C   UNL     1       1.531  10.102  18.356  0.00  0.00    +0.000 A 
ATOM      5  C   UNL     1       0.140  10.303  18.536  0.00  0.00    +0.000 A 
ATOM      6  C   UNL     1      -0.458  11.585  18.628  0.00  0.00    +0.000 A 
ENDROOT
BRANCH   4   7
ATOM      7  C   UNL     1       2.145   8.765  18.403  0.00  0.00    +0.000 A 
ATOM      8  C   UNL     1       3.010   8.225  17.450  0.00  0.00    +0.000 A 
ATOM      9  N   UNL     1       3.558   6.977  17.486  0.00  0.00    +0.000 NA
ATOM     10  N   UNL     1       3.293   6.153  18.486  0.00  0.00    +0.000 NA
ATOM     11  C   UNL     1       2.466   6.621  19.432  0.00  0.00    +0.000 A 
ATOM     12  C   UNL     1       1.871   7.873  19.455  0.00  0.00    +0.000 A 
ATOM     13  N   UNL     1       1.071   7.989  20.576  0.00  0.00    +0.000 NA
ATOM     14  C   UNL     1       1.196   6.853  21.221  0.00  0.00    +0.000 A 
ATOM     15  N   UNL     1       2.028   5.992  20.562  0.00  0.00    +0.000 N 
BRANCH  15  16
ATOM     16  C   UNL     1       2.381   4.662  21.003  0.00  0.00    +0.000 C 
ATOM     17  C   UNL     1       1.252   3.670  20.793  0.00  0.00    +0.000 C 
ENDBRANCH  15  16
ENDBRANCH   4   7
BRANCH   6  18
ATOM     18  C   UNL     1      -1.954  11.753  18.676  0.00  0.00    +0.000 A 
ATOM     19  C   UNL     1      -2.528  12.233  19.878  0.00  0.00    +0.000 A 
ATOM     20  C   UNL     1      -3.899  12.416  20.052  0.00  0.00    +0.000 A 
ATOM     21  C   UNL     1      -4.746  12.179  18.985  0.00  0.00    +0.000 A 
ATOM     22  C   UNL     1      -4.234  11.769  17.755  0.00  0.00    +0.000 A 
ATOM     23  C   UNL     1      -2.851  11.558  17.588  0.00  0.00    +0.000 A 
BRANCH  21  24
ATOM     24  S   UNL     1      -6.480  12.521  19.159  0.00  0.00    +0.000 S 
ATOM     25  O   UNL     1      -6.613  13.952  19.361  0.00  0.00    +0.000 OA
ATOM     26  O   UNL     1      -7.153  11.859  18.056  0.00  0.00    +0.000 OA
BRANCH  24  27
ATOM     27  C   UNL     1      -6.918  11.693  20.671  0.00  0.00    +0.000 C 
ATOM     28  C   UNL     1      -7.522  10.331  20.384  0.00  0.00    +0.000 C 
ENDBRANCH  24  27
ENDBRANCH  21  24
BRANCH  23  29
ATOM     29  O   UNL     1      -2.351  11.119  16.383  0.00  0.00    +0.000 OA
ATOM     30  C   UNL     1      -2.737   9.799  15.985  0.00  0.00    +0.000 C 
ENDBRANCH  23  29
ENDBRANCH   6  18
BRANCH   1  32
ATOM     31  C   UNL     1      -0.331  15.070  19.081  0.00  0.00    +0.000 C 
ATOM     32  N   UNL     1       0.058  13.991  18.836  0.00  0.00    +0.000 NA
ENDBRANCH   1  32
TORSDOF 7
ENDMDL
MODEL 6
REMARK VINA RESULT:      -6.8      3.274      6.951
REMARK  Name = 
REMARK  10 active torsions:
REMARK  status: ('A' for Active; 'I' for Inactive)
REMARK    1  A    between atoms: N_2  and  C_3
REMARK    2  A    between atoms: C_6  and  C_7
REMARK    3  A    between atoms: N_15  and  C_16
REMARK    4  A    between atoms: C_16  and  C_17
REMARK    5  A    between atoms: C_19  and  C_20
REMARK    6  A    between atoms: C_23  and  S_24
REMARK    7  A    between atoms: S_24  and  C_27
REMARK    8  A    between atoms: C_27  and  C_28
REMARK    9  A    between atoms: C_30  and  O_31
REMARK   10  A    between atoms: O_31  and  C_32
REMARK                            x       y       z     vdW  Elec       q    Type
REMARK                         _______ _______ _______ _____ _____    ______ ____
ROOT
ATOM      1  C   UNL     1      -0.423  11.651  18.455  0.00  0.00    +0.000 A 
ATOM      2  C   UNL     1      -0.780  12.974  18.194  0.00  0.00    +0.000 A 
ATOM      3  C   UNL     1       0.104  13.995  18.503  0.00  0.00    +0.000 A 
ATOM      4  C   UNL     1       1.331  13.730  19.127  0.00  0.00    +0.000 A 
ATOM      5  C   UNL     1       1.702  12.372  19.284  0.00  0.00    +0.000 A 
ATOM      6  C   UNL     1       0.860  11.287  18.933  0.00  0.00    +0.000 A 
ENDROOT
BRANCH   4   7
ATOM      7  C   UNL     1       2.164  14.836  19.626  0.00  0.00    +0.000 A 
ATOM      8  C   UNL     1       1.830  15.714  20.658  0.00  0.00    +0.000 A 
ATOM      9  N   UNL     1       2.596  16.752  21.102  0.00  0.00    +0.000 NA
ATOM     10  N   UNL     1       3.773  17.004  20.554  0.00  0.00    +0.000 NA
ATOM     11  C   UNL     1       4.145  16.189  19.555  0.00  0.00    +0.000 A 
ATOM     12  C   UNL     1       3.415  15.123  19.053  0.00  0.00    +0.000 A 
ATOM     13  N   UNL     1       4.111  14.529  18.016  0.00  0.00    +0.000 NA
ATOM     14  C   UNL     1       5.234  15.201  17.911  0.00  0.00    +0.000 A 
ATOM     15  N   UNL     1       5.295  16.219  18.820  0.00  0.00    +0.000 N 
BRANCH  15  16
ATOM     16  C   UNL     1       6.395  17.144  18.973  0.00  0.00    +0.000 C 
ATOM     17  C   UNL     1       7.714  16.544  18.524  0.00  0.00    +0.000 C 
ENDBRANCH  15  16
ENDBRANCH   4   7
BRANCH   6  18
ATOM     18  C   UNL     1       1.349   9.864  18.983  0.00  0.00    +0.000 A 
ATOM     19  C   UNL     1       2.023   9.354  17.846  0.00  0.00    +0.000 A 
ATOM     20  C   UNL     1       2.507   8.050  17.763  0.00  0.00    +0.000 A 
ATOM     21  C   UNL     1       2.386   7.221  18.864  0.00  0.00    +0.000 A 
ATOM     22  C   UNL     1       1.793   7.686  20.036  0.00  0.00    +0.000 A 
ATOM     23  C   UNL     1       1.278   8.996  20.109  0.00  0.00    +0.000 A 
BRANCH  21  24
ATOM     24  S   UNL     1       3.104   5.597  18.812  0.00  0.00    +0.000 S 
ATOM     25  O   UNL     1       3.172   5.119  20.181  0.00  0.00    +0.000 OA
ATOM     26  O   UNL     1       2.384   4.850  17.797  0.00  0.00    +0.000 OA
BRANCH  24  27
ATOM     27  C   UNL     1       4.759   5.893  18.232  0.00  0.00    +0.000 C 
ATOM     28  C   UNL     1       5.775   5.221  19.135  0.00  0.00    +0.000 C 
ENDBRANCH  24  27
ENDBRANCH  21  24
BRANCH  23  29
ATOM     29  O   UNL     1       0.661   9.442  21.256  0.00  0.00    +0.000 OA
ATOM     30  C   UNL     1      -0.363   8.594  21.790  0.00  0.00    +0.000 C 
ENDBRANCH  23  29
ENDBRANCH   6  18
BRANCH   1  32
ATOM     31  C   UNL     1      -2.332   9.971  18.107  0.00  0.00    +0.000 C 
ATOM     32  N   UNL     1      -1.440  10.723  18.234  0.00  0.00    +0.000 NA
ENDBRANCH   1  32
TORSDOF 7
ENDMDL
MODEL 7
REMARK VINA RESULT:      -6.8      4.184      9.148
REMARK  Name = 
REMARK  10 active torsions:
REMARK  status: ('A' for Active; 'I' for Inactive)
REMARK    1  A    between atoms: N_2  and  C_3
REMARK    2  A    between atoms: C_6  and  C_7
REMARK    3  A    between atoms: N_15  and  C_16
REMARK    4  A    between atoms: C_16  and  C_17
REMARK    5  A    between atoms: C_19  and  C_20
REMARK    6  A    between atoms: C_23  and  S_24
REMARK    7  A    between atoms: S_24  and  C_27
REMARK    8  A    between atoms: C_27  and  C_28
REMARK    9  A    between atoms: C_30  and  O_31
REMARK   10  A    between atoms: O_31  and  C_32
REMARK                            x       y       z     vdW  Elec       q    Type
REMARK                         _______ _______ _______ _____ _____    ______ ____
ROOT
ATOM      1  C   UNL     1       1.011  11.586  19.012  0.00  0.00    +0.000 A 
ATOM      2  C   UNL     1       1.860  11.002  18.071  0.00  0.00    +0.000 A 
ATOM      3  C   UNL     1       2.139   9.647  18.149  0.00  0.00    +0.000 A 
ATOM      4  C   UNL     1       1.631   8.859  19.191  0.00  0.00    +0.000 A 
ATOM      5  C   UNL     1       0.695   9.463  20.067  0.00  0.00    +0.000 A 
ATOM      6  C   UNL     1       0.330  10.830  19.999  0.00  0.00    +0.000 A 
ENDROOT
BRANCH   4   7
ATOM      7  C   UNL     1       2.097   7.474  19.370  0.00  0.00    +0.000 A 
ATOM      8  C   UNL     1       1.692   6.597  20.377  0.00  0.00    +0.000 A 
ATOM      9  N   UNL     1       2.144   5.322  20.552  0.00  0.00    +0.000 NA
ATOM     10  N   UNL     1       3.043   4.805  19.730  0.00  0.00    +0.000 NA
ATOM     11  C   UNL     1       3.467   5.607  18.743  0.00  0.00    +0.000 A 
ATOM     12  C   UNL     1       3.055   6.910  18.510  0.00  0.00    +0.000 A 
ATOM     13  N   UNL     1       3.724   7.423  17.414  0.00  0.00    +0.000 NA
ATOM     14  C   UNL     1       4.498   6.453  16.985  0.00  0.00    +0.000 A 
ATOM     15  N   UNL     1       4.378   5.336  17.763  0.00  0.00    +0.000 N 
BRANCH  15  16
ATOM     16  C   UNL     1       5.087   4.092  17.562  0.00  0.00    +0.000 C 
ATOM     17  C   UNL     1       5.539   3.918  16.124  0.00  0.00    +0.000 C 
ENDBRANCH  15  16
ENDBRANCH   4   7
BRANCH   6  18
ATOM     18  C   UNL     1      -0.772  11.395  20.856  0.00  0.00    +0.000 A 
ATOM     19  C   UNL     1      -1.890  11.970  20.204  0.00  0.00    +0.000 A 
ATOM     20  C   UNL     1      -2.964  12.539  20.885  0.00  0.00    +0.000 A 
ATOM     21  C   UNL     1      -2.980  12.491  22.267  0.00  0.00    +0.000 A 
ATOM     22  C   UNL     1      -1.942  11.877  22.965  0.00  0.00    +0.000 A 
ATOM     23  C   UNL     1      -0.842  11.327  22.276  0.00  0.00    +0.000 A 
BRANCH  21  24
ATOM     24  S   UNL     1      -4.399  13.107  23.141  0.00  0.00    +0.000 S 
ATOM     25  O   UNL     1      -5.367  13.521  22.142  0.00  0.00    +0.000 OA
ATOM     26  O   UNL     1      -4.740  12.114  24.143  0.00  0.00    +0.000 OA
BRANCH  24  27
ATOM     27  C   UNL     1      -3.781  14.556  23.967  0.00  0.00    +0.000 C 
ATOM     28  C   UNL     1      -3.371  15.615  22.962  0.00  0.00    +0.000 C 
ENDBRANCH  24  27
ENDBRANCH  21  24
BRANCH  23  29
ATOM     29  O   UNL     1       0.201  10.753  22.968  0.00  0.00    +0.000 OA
ATOM     30  C   UNL     1      -0.037   9.440  23.487  0.00  0.00    +0.000 C 
ENDBRANCH  23  29
ENDBRANCH   6  18
BRANCH   1  32
ATOM     31  C   UNL     1       0.813  14.134  18.769  0.00  0.00    +0.000 C 
ATOM     32  N   UNL     1       0.914  12.974  18.920  0.00  0.00    +0.000 NA
ENDBRANCH   1  32
TORSDOF 7
ENDMDL
MODEL 8
REMARK VINA RESULT:      -6.8      4.359      9.060
REMARK  Name = 
REMARK  10 active torsions:
REMARK  status: ('A' for Active; 'I' for Inactive)
REMARK    1  A    between atoms: N_2  and  C_3
REMARK    2  A    between atoms: C_6  and  C_7
REMARK    3  A    between atoms: N_15  and  C_16
REMARK    4  A    between atoms: C_16  and  C_17
REMARK    5  A    between atoms: C_19  and  C_20
REMARK    6  A    between atoms: C_23  and  S_24
REMARK    7  A    between atoms: S_24  and  C_27
REMARK    8  A    between atoms: C_27  and  C_28
REMARK    9  A    between atoms: C_30  and  O_31
REMARK   10  A    between atoms: O_31  and  C_32
REMARK                            x       y       z     vdW  Elec       q    Type
REMARK                         _______ _______ _______ _____ _____    ______ ____
ROOT
ATOM      1  C   UNL     1      -0.097  10.284  21.616  0.00  0.00    +0.000 A 
ATOM      2  C   UNL     1       0.186   9.012  22.117  0.00  0.00    +0.000 A 
ATOM      3  C   UNL     1       1.015   8.164  21.401  0.00  0.00    +0.000 A 
ATOM      4  C   UNL     1       1.532   8.536  20.152  0.00  0.00    +0.000 A 
ATOM      5  C   UNL     1       1.306   9.868  19.724  0.00  0.00    +0.000 A 
ATOM      6  C   UNL     1       0.513  10.796  20.444  0.00  0.00    +0.000 A 
ENDROOT
BRANCH   4   7
ATOM      7  C   UNL     1       2.243   7.551  19.319  0.00  0.00    +0.000 A 
ATOM      8  C   UNL     1       2.905   7.817  18.120  0.00  0.00    +0.000 A 
ATOM      9  N   UNL     1       3.543   6.898  17.341  0.00  0.00    +0.000 NA
ATOM     10  N   UNL     1       3.580   5.624  17.694  0.00  0.00    +0.000 NA
ATOM     11  C   UNL     1       2.958   5.312  18.841  0.00  0.00    +0.000 A 
ATOM     12  C   UNL     1       2.289   6.192  19.676  0.00  0.00    +0.000 A 
ATOM     13  N   UNL     1       1.761   5.505  20.753  0.00  0.00    +0.000 NA
ATOM     14  C   UNL     1       2.120   4.253  20.585  0.00  0.00    +0.000 A 
ATOM     15  N   UNL     1       2.842   4.089  19.437  0.00  0.00    +0.000 N 
BRANCH  15  16
ATOM     16  C   UNL     1       3.391   2.839  18.960  0.00  0.00    +0.000 C 
ATOM     17  C   UNL     1       2.559   2.239  17.843  0.00  0.00    +0.000 C 
ENDBRANCH  15  16
ENDBRANCH   4   7
BRANCH   6  18
ATOM     18  C   UNL     1       0.417  12.239  20.027  0.00  0.00    +0.000 A 
ATOM     19  C   UNL     1       1.303  13.164  20.631  0.00  0.00    +0.000 A 
ATOM     20  C   UNL     1       1.302  14.527  20.342  0.00  0.00    +0.000 A 
ATOM     21  C   UNL     1       0.438  15.003  19.372  0.00  0.00    +0.000 A 
ATOM     22  C   UNL     1      -0.411  14.132  18.693  0.00  0.00    +0.000 A 
ATOM     23  C   UNL     1      -0.429  12.758  19.006  0.00  0.00    +0.000 A 
BRANCH  21  24
ATOM     24  S   UNL     1       0.510  16.717  18.911  0.00  0.00    +0.000 S 
ATOM     25  O   UNL     1      -0.527  16.935  17.918  0.00  0.00    +0.000 OA
ATOM     26  O   UNL     1       0.534  17.484  20.142  0.00  0.00    +0.000 OA
BRANCH  24  27
ATOM     27  C   UNL     1       2.094  16.869  18.117  0.00  0.00    +0.000 C 
ATOM     28  C   UNL     1       1.974  17.640  16.816  0.00  0.00    +0.000 C 
ENDBRANCH  24  27
ENDBRANCH  21  24
BRANCH  23  29
ATOM     29  O   UNL     1      -1.294  11.905  18.359  0.00  0.00    +0.000 OA
ATOM     30  C   UNL     1      -2.634  11.866  18.864  0.00  0.00    +0.000 C 
ENDBRANCH  23  29
ENDBRANCH   6  18
BRANCH   1  32
ATOM     31  C   UNL     1      -1.855  11.533  23.008  0.00  0.00    +0.000 C 
ATOM     32  N   UNL     1      -1.049  10.994  22.347  0.00  0.00    +0.000 NA
ENDBRANCH   1  32
TORSDOF 7
ENDMDL
MODEL 9
REMARK VINA RESULT:      -6.7      3.307      6.357
REMARK  Name = 
REMARK  10 active torsions:
REMARK  status: ('A' for Active; 'I' for Inactive)
REMARK    1  A    between atoms: N_2  and  C_3
REMARK    2  A    between atoms: C_6  and  C_7
REMARK    3  A    between atoms: N_15  and  C_16
REMARK    4  A    between atoms: C_16  and  C_17
REMARK    5  A    between atoms: C_19  and  C_20
REMARK    6  A    between atoms: C_23  and  S_24
REMARK    7  A    between atoms: S_24  and  C_27
REMARK    8  A    between atoms: C_27  and  C_28
REMARK    9  A    between atoms: C_30  and  O_31
REMARK   10  A    between atoms: O_31  and  C_32
REMARK                            x       y       z     vdW  Elec       q    Type
REMARK                         _______ _______ _______ _____ _____    ______ ____
ROOT
ATOM      1  C   UNL     1      -0.531  11.509  18.594  0.00  0.00    +0.000 A 
ATOM      2  C   UNL     1      -0.949  12.836  18.495  0.00  0.00    +0.000 A 
ATOM      3  C   UNL     1      -0.215  13.834  19.117  0.00  0.00    +0.000 A 
ATOM      4  C   UNL     1       0.912  13.530  19.892  0.00  0.00    +0.000 A 
ATOM      5  C   UNL     1       1.364  12.187  19.886  0.00  0.00    +0.000 A 
ATOM      6  C   UNL     1       0.684  11.137  19.222  0.00  0.00    +0.000 A 
ENDROOT
BRANCH   4   7
ATOM      7  C   UNL     1       1.559  14.575  20.703  0.00  0.00    +0.000 A 
ATOM      8  C   UNL     1       1.221  14.925  22.011  0.00  0.00    +0.000 A 
ATOM      9  N   UNL     1       1.809  15.909  22.750  0.00  0.00    +0.000 NA
ATOM     10  N   UNL     1       2.795  16.632  22.248  0.00  0.00    +0.000 NA
ATOM     11  C   UNL     1       3.161  16.338  20.991  0.00  0.00    +0.000 A 
ATOM     12  C   UNL     1       2.605  15.357  20.184  0.00  0.00    +0.000 A 
ATOM     13  N   UNL     1       3.229  15.359  18.951  0.00  0.00    +0.000 NA
ATOM     14  C   UNL     1       4.147  16.296  19.019  0.00  0.00    +0.000 A 
ATOM     15  N   UNL     1       4.139  16.918  20.235  0.00  0.00    +0.000 N 
BRANCH  15  16
ATOM     16  C   UNL     1       5.023  17.988  20.638  0.00  0.00    +0.000 C 
ATOM     17  C   UNL     1       6.289  17.468  21.293  0.00  0.00    +0.000 C 
ENDBRANCH  15  16
ENDBRANCH   4   7
BRANCH   6  18
ATOM     18  C   UNL     1       1.274   9.755  19.122  0.00  0.00    +0.000 A 
ATOM     19  C   UNL     1       1.854   9.370  17.888  0.00  0.00    +0.000 A 
ATOM     20  C   UNL     1       2.418   8.115  17.666  0.00  0.00    +0.000 A 
ATOM     21  C   UNL     1       2.475   7.213  18.714  0.00  0.00    +0.000 A 
ATOM     22  C   UNL     1       1.983   7.558  19.971  0.00  0.00    +0.000 A 
ATOM     23  C   UNL     1       1.387   8.817  20.187  0.00  0.00    +0.000 A 
BRANCH  21  24
ATOM     24  S   UNL     1       3.296   5.656  18.475  0.00  0.00    +0.000 S 
ATOM     25  O   UNL     1       4.179   5.811  17.333  0.00  0.00    +0.000 OA
ATOM     26  O   UNL     1       3.817   5.252  19.768  0.00  0.00    +0.000 OA
BRANCH  24  27
ATOM     27  C   UNL     1       1.975   4.554  18.025  0.00  0.00    +0.000 C 
ATOM     28  C   UNL     1       1.355   3.924  19.258  0.00  0.00    +0.000 C 
ENDBRANCH  24  27
ENDBRANCH  21  24
BRANCH  23  29
ATOM     29  O   UNL     1       0.869   9.143  21.420  0.00  0.00    +0.000 OA
ATOM     30  C   UNL     1      -0.449   8.658  21.696  0.00  0.00    +0.000 C 
ENDBRANCH  23  29
ENDBRANCH   6  18
BRANCH   1  32
ATOM     31  C   UNL     1      -2.207   9.858  17.568  0.00  0.00    +0.000 C 
ATOM     32  N   UNL     1      -1.418  10.581  18.050  0.00  0.00    +0.000 NA
ENDBRANCH   1  32
TORSDOF 7
ENDMDL
