MODEL 1
REMARK VINA RESULT:      -9.4      0.000      0.000
REMARK  Name = 
REMARK  6 active torsions:
REMARK  status: ('A' for Active; 'I' for Inactive)
REMARK    1  A    between atoms: C_1  and  O_2
REMARK    2  A    between atoms: O_2  and  C_3
REMARK    3  A    between atoms: C_7  and  N_8
REMARK    4  A    between atoms: C_9  and  C_11
REMARK    5  A    between atoms: C_12  and  C_13
REMARK    6  A    between atoms: C_25  and  O_26
REMARK                            x       y       z     vdW  Elec       q    Type
REMARK                         _______ _______ _______ _____ _____    ______ ____
ROOT
ATOM      1  C   UNL     1       2.059   3.860  18.716  0.00  0.00    +0.000 A 
ATOM      2  C   UNL     1       2.803   5.049  18.744  0.00  0.00    +0.000 A 
ATOM      3  C   UNL     1       3.906   5.221  17.903  0.00  0.00    +0.000 A 
ATOM      4  C   UNL     1       4.706   6.434  17.918  0.00  0.00    +0.000 A 
ATOM      5  C   UNL     1       5.800   6.568  17.153  0.00  0.00    +0.000 A 
ATOM      6  C   UNL     1       6.208   5.440  16.255  0.00  0.00    +0.000 A 
ATOM      7  O   UNL     1       7.241   5.517  15.593  0.00  0.00    +0.000 OA
ATOM      8  O   UNL     1       5.375   4.328  16.189  0.00  0.00    +0.000 OA
ATOM      9  C   UNL     1       4.248   4.207  17.022  0.00  0.00    +0.000 A 
ATOM     10  C   UNL     1       3.504   3.034  16.944  0.00  0.00    +0.000 A 
ATOM     11  C   UNL     1       2.407   2.864  17.793  0.00  0.00    +0.000 A 
ENDROOT
BRANCH   5  12
ATOM     12  N   UNL     1       6.619   7.693  17.122  0.00  0.00    +0.000 N 
ATOM     13  C   UNL     1       7.760   7.896  17.868  0.00  0.00    +0.000 C 
ATOM     14  O   UNL     1       8.216   7.111  18.691  0.00  0.00    +0.000 OA
ATOM     15  H   UNL     1       6.316   8.416  16.471  0.00  0.00    +0.000 HD
BRANCH  13  16
ATOM     16  C   UNL     1       8.450   9.195  17.609  0.00  0.00    +0.000 C 
ATOM     17  C   UNL     1       8.942   9.835  18.684  0.00  0.00    +0.000 C 
BRANCH  17  18
ATOM     18  C   UNL     1       9.673  11.106  18.704  0.00  0.00    +0.000 A 
ATOM     19  C   UNL     1       9.342  12.189  17.882  0.00  0.00    +0.000 A 
ATOM     20  C   UNL     1      10.053  13.391  17.978  0.00  0.00    +0.000 A 
ATOM     21  C   UNL     1      11.088  13.518  18.903  0.00  0.00    +0.000 A 
ATOM     22 CL   UNL     1      11.967  14.994  19.008  0.00  0.00    +0.000 Cl
ATOM     23  C   UNL     1      11.413  12.459  19.744  0.00  0.00    +0.000 A 
ATOM     24  C   UNL     1      10.702  11.260  19.647  0.00  0.00    +0.000 A 
ENDBRANCH  17  18
ENDBRANCH  13  16
ENDBRANCH   5  12
BRANCH   1  26
ATOM     25  C   UNL     1       1.243   3.216  20.850  0.00  0.00    +0.000 C 
ATOM     26  O   UNL     1       1.006   3.838  19.592  0.00  0.00    +0.000 OA
ENDBRANCH   1  26
BRANCH  11  27
ATOM     27  O   UNL     1       1.671   1.717  17.685  0.00  0.00    +0.000 OA
ATOM     28  H   UNL     1       1.966   1.079  18.354  0.00  0.00    +0.000 HD
ENDBRANCH  11  27
TORSDOF 5
ENDMDL
MODEL 2
REMARK VINA RESULT:      -9.3      0.363      1.002
REMARK  Name = 
REMARK  6 active torsions:
REMARK  status: ('A' for Active; 'I' for Inactive)
REMARK    1  A    between atoms: C_1  and  O_2
REMARK    2  A    between atoms: O_2  and  C_3
REMARK    3  A    between atoms: C_7  and  N_8
REMARK    4  A    between atoms: C_9  and  C_11
REMARK    5  A    between atoms: C_12  and  C_13
REMARK    6  A    between atoms: C_25  and  O_26
REMARK                            x       y       z     vdW  Elec       q    Type
REMARK                         _______ _______ _______ _____ _____    ______ ____
ROOT
ATOM      1  C   UNL     1       2.302   3.785  18.743  0.00  0.00    +0.000 A 
ATOM      2  C   UNL     1       2.992   5.006  18.740  0.00  0.00    +0.000 A 
ATOM      3  C   UNL     1       4.115   5.190  17.928  0.00  0.00    +0.000 A 
ATOM      4  C   UNL     1       4.859   6.438  17.913  0.00  0.00    +0.000 A 
ATOM      5  C   UNL     1       5.972   6.586  17.178  0.00  0.00    +0.000 A 
ATOM      6  C   UNL     1       6.460   5.439  16.348  0.00  0.00    +0.000 A 
ATOM      7  O   UNL     1       7.511   5.534  15.716  0.00  0.00    +0.000 OA
ATOM      8  O   UNL     1       5.679   4.289  16.306  0.00  0.00    +0.000 OA
ATOM      9  C   UNL     1       4.531   4.154  17.107  0.00  0.00    +0.000 A 
ATOM     10  C   UNL     1       3.842   2.947  17.060  0.00  0.00    +0.000 A 
ATOM     11  C   UNL     1       2.725   2.765  17.880  0.00  0.00    +0.000 A 
ENDROOT
BRANCH   5  12
ATOM     12  N   UNL     1       6.742   7.746  17.121  0.00  0.00    +0.000 N 
ATOM     13  C   UNL     1       7.843   8.036  17.898  0.00  0.00    +0.000 C 
ATOM     14  O   UNL     1       8.302   7.312  18.774  0.00  0.00    +0.000 OA
ATOM     15  H   UNL     1       6.432   8.422  16.425  0.00  0.00    +0.000 HD
BRANCH  13  16
ATOM     16  C   UNL     1       8.485   9.351  17.600  0.00  0.00    +0.000 C 
ATOM     17  C   UNL     1       9.053   9.987  18.639  0.00  0.00    +0.000 C 
BRANCH  17  18
ATOM     18  C   UNL     1       9.760  11.272  18.615  0.00  0.00    +0.000 A 
ATOM     19  C   UNL     1      10.989  11.478  19.252  0.00  0.00    +0.000 A 
ATOM     20  C   UNL     1      11.634  12.716  19.157  0.00  0.00    +0.000 A 
ATOM     21  C   UNL     1      11.060  13.747  18.416  0.00  0.00    +0.000 A 
ATOM     22 CL   UNL     1      11.852  15.271  18.312  0.00  0.00    +0.000 Cl
ATOM     23  C   UNL     1       9.852  13.551  17.756  0.00  0.00    +0.000 A 
ATOM     24  C   UNL     1       9.209  12.314  17.851  0.00  0.00    +0.000 A 
ENDBRANCH  17  18
ENDBRANCH  13  16
ENDBRANCH   5  12
BRANCH   1  26
ATOM     25  C   UNL     1       1.506   3.793  20.979  0.00  0.00    +0.000 C 
ATOM     26  O   UNL     1       1.222   3.754  19.585  0.00  0.00    +0.000 OA
ENDBRANCH   1  26
BRANCH  11  27
ATOM     27  O   UNL     1       2.044   1.582  17.802  0.00  0.00    +0.000 OA
ATOM     28  H   UNL     1       2.630   0.854  18.060  0.00  0.00    +0.000 HD
ENDBRANCH  11  27
TORSDOF 5
ENDMDL
MODEL 3
REMARK VINA RESULT:      -9.0      1.006      1.006
REMARK  Name = 
REMARK  6 active torsions:
REMARK  status: ('A' for Active; 'I' for Inactive)
REMARK    1  A    between atoms: C_1  and  O_2
REMARK    2  A    between atoms: O_2  and  C_3
REMARK    3  A    between atoms: C_7  and  N_8
REMARK    4  A    between atoms: C_9  and  C_11
REMARK    5  A    between atoms: C_12  and  C_13
REMARK    6  A    between atoms: C_25  and  O_26
REMARK                            x       y       z     vdW  Elec       q    Type
REMARK                         _______ _______ _______ _____ _____    ______ ____
ROOT
ATOM      1  C   UNL     1       3.196   2.966  19.706  0.00  0.00    +0.000 A 
ATOM      2  C   UNL     1       4.017   4.102  19.760  0.00  0.00    +0.000 A 
ATOM      3  C   UNL     1       4.414   4.752  18.588  0.00  0.00    +0.000 A 
ATOM      4  C   UNL     1       5.275   5.922  18.609  0.00  0.00    +0.000 A 
ATOM      5  C   UNL     1       5.703   6.504  17.478  0.00  0.00    +0.000 A 
ATOM      6  C   UNL     1       5.281   5.936  16.157  0.00  0.00    +0.000 A 
ATOM      7  O   UNL     1       5.712   6.415  15.110  0.00  0.00    +0.000 OA
ATOM      8  O   UNL     1       4.382   4.875  16.163  0.00  0.00    +0.000 OA
ATOM      9  C   UNL     1       3.971   4.271  17.366  0.00  0.00    +0.000 A 
ATOM     10  C   UNL     1       3.124   3.171  17.286  0.00  0.00    +0.000 A 
ATOM     11  C   UNL     1       2.737   2.519  18.460  0.00  0.00    +0.000 A 
ENDROOT
BRANCH   5  12
ATOM     12  N   UNL     1       6.536   7.618  17.419  0.00  0.00    +0.000 N 
ATOM     13  C   UNL     1       7.752   7.766  18.051  0.00  0.00    +0.000 C 
ATOM     14  O   UNL     1       8.277   6.932  18.780  0.00  0.00    +0.000 OA
ATOM     15  H   UNL     1       6.180   8.379  16.842  0.00  0.00    +0.000 HD
BRANCH  13  16
ATOM     16  C   UNL     1       8.435   9.067  17.788  0.00  0.00    +0.000 C 
ATOM     17  C   UNL     1       9.009   9.665  18.847  0.00  0.00    +0.000 C 
BRANCH  17  18
ATOM     18  C   UNL     1       9.754  10.929  18.859  0.00  0.00    +0.000 A 
ATOM     19  C   UNL     1       9.871  11.755  17.735  0.00  0.00    +0.000 A 
ATOM     20  C   UNL     1      10.560  12.970  17.822  0.00  0.00    +0.000 A 
ATOM     21  C   UNL     1      11.123  13.368  19.033  0.00  0.00    +0.000 A 
ATOM     22 CL   UNL     1      11.979  14.858  19.130  0.00  0.00    +0.000 Cl
ATOM     23  C   UNL     1      10.995  12.570  20.165  0.00  0.00    +0.000 A 
ATOM     24  C   UNL     1      10.306  11.358  20.077  0.00  0.00    +0.000 A 
ENDBRANCH  17  18
ENDBRANCH  13  16
ENDBRANCH   5  12
BRANCH   1  26
ATOM     25  C   UNL     1       1.731   2.970  21.574  0.00  0.00    +0.000 C 
ATOM     26  O   UNL     1       2.887   2.441  20.933  0.00  0.00    +0.000 OA
ENDBRANCH   1  26
BRANCH  11  27
ATOM     27  O   UNL     1       1.883   1.457  18.365  0.00  0.00    +0.000 OA
ATOM     28  H   UNL     1       2.390   0.630  18.393  0.00  0.00    +0.000 HD
ENDBRANCH  11  27
TORSDOF 5
ENDMDL
MODEL 4
REMARK VINA RESULT:      -8.3      6.311      9.202
REMARK  Name = 
REMARK  6 active torsions:
REMARK  status: ('A' for Active; 'I' for Inactive)
REMARK    1  A    between atoms: C_1  and  O_2
REMARK    2  A    between atoms: O_2  and  C_3
REMARK    3  A    between atoms: C_7  and  N_8
REMARK    4  A    between atoms: C_9  and  C_11
REMARK    5  A    between atoms: C_12  and  C_13
REMARK    6  A    between atoms: C_25  and  O_26
REMARK                            x       y       z     vdW  Elec       q    Type
REMARK                         _______ _______ _______ _____ _____    ______ ____
ROOT
ATOM      1  C   UNL     1       6.749   5.657  16.395  0.00  0.00    +0.000 A 
ATOM      2  C   UNL     1       5.629   6.500  16.445  0.00  0.00    +0.000 A 
ATOM      3  C   UNL     1       4.745   6.449  17.527  0.00  0.00    +0.000 A 
ATOM      4  C   UNL     1       3.568   7.298  17.602  0.00  0.00    +0.000 A 
ATOM      5  C   UNL     1       2.691   7.200  18.612  0.00  0.00    +0.000 A 
ATOM      6  C   UNL     1       2.931   6.192  19.695  0.00  0.00    +0.000 A 
ATOM      7  O   UNL     1       2.107   6.043  20.596  0.00  0.00    +0.000 OA
ATOM      8  O   UNL     1       4.111   5.457  19.650  0.00  0.00    +0.000 OA
ATOM      9  C   UNL     1       4.999   5.565  18.564  0.00  0.00    +0.000 A 
ATOM     10  C   UNL     1       6.123   4.747  18.559  0.00  0.00    +0.000 A 
ATOM     11  C   UNL     1       6.999   4.796  17.471  0.00  0.00    +0.000 A 
ENDROOT
BRANCH   5  12
ATOM     12  N   UNL     1       1.539   7.970  18.746  0.00  0.00    +0.000 N 
ATOM     13  C   UNL     1       1.317   9.215  18.197  0.00  0.00    +0.000 C 
ATOM     14  O   UNL     1       2.120   9.839  17.514  0.00  0.00    +0.000 OA
ATOM     15  H   UNL     1       0.808   7.539  19.311  0.00  0.00    +0.000 HD
BRANCH  13  16
ATOM     16  C   UNL     1      -0.026   9.795  18.494  0.00  0.00    +0.000 C 
ATOM     17  C   UNL     1      -0.785  10.116  17.432  0.00  0.00    +0.000 C 
BRANCH  17  18
ATOM     18  C   UNL     1      -2.140  10.679  17.446  0.00  0.00    +0.000 A 
ATOM     19  C   UNL     1      -3.050  10.502  16.398  0.00  0.00    +0.000 A 
ATOM     20  C   UNL     1      -4.343  11.029  16.490  0.00  0.00    +0.000 A 
ATOM     21  C   UNL     1      -4.735  11.723  17.633  0.00  0.00    +0.000 A 
ATOM     22 CL   UNL     1      -6.322  12.379  17.736  0.00  0.00    +0.000 Cl
ATOM     23  C   UNL     1      -3.850  11.886  18.694  0.00  0.00    +0.000 A 
ATOM     24  C   UNL     1      -2.559  11.359  18.601  0.00  0.00    +0.000 A 
ENDBRANCH  17  18
ENDBRANCH  13  16
ENDBRANCH   5  12
BRANCH   1  26
ATOM     25  C   UNL     1       7.240   4.966  14.177  0.00  0.00    +0.000 C 
ATOM     26  O   UNL     1       7.525   5.824  15.277  0.00  0.00    +0.000 OA
ENDBRANCH   1  26
BRANCH  11  27
ATOM     27  O   UNL     1       8.114   4.005  17.495  0.00  0.00    +0.000 OA
ATOM     28  H   UNL     1       8.436   3.928  18.407  0.00  0.00    +0.000 HD
ENDBRANCH  11  27
TORSDOF 5
ENDMDL
MODEL 5
REMARK VINA RESULT:      -8.1      1.597      1.607
REMARK  Name = 
REMARK  6 active torsions:
REMARK  status: ('A' for Active; 'I' for Inactive)
REMARK    1  A    between atoms: C_1  and  O_2
REMARK    2  A    between atoms: O_2  and  C_3
REMARK    3  A    between atoms: C_7  and  N_8
REMARK    4  A    between atoms: C_9  and  C_11
REMARK    5  A    between atoms: C_12  and  C_13
REMARK    6  A    between atoms: C_25  and  O_26
REMARK                            x       y       z     vdW  Elec       q    Type
REMARK                         _______ _______ _______ _____ _____    ______ ____
ROOT
ATOM      1  C   UNL     1       4.205   2.597  19.730  0.00  0.00    +0.000 A 
ATOM      2  C   UNL     1       4.929   3.799  19.736  0.00  0.00    +0.000 A 
ATOM      3  C   UNL     1       5.060   4.561  18.571  0.00  0.00    +0.000 A 
ATOM      4  C   UNL     1       5.815   5.801  18.542  0.00  0.00    +0.000 A 
ATOM      5  C   UNL     1       5.988   6.495  17.406  0.00  0.00    +0.000 A 
ATOM      6  C   UNL     1       5.385   5.981  16.135  0.00  0.00    +0.000 A 
ATOM      7  O   UNL     1       5.584   6.567  15.072  0.00  0.00    +0.000 OA
ATOM      8  O   UNL     1       4.589   4.842  16.206  0.00  0.00    +0.000 OA
ATOM      9  C   UNL     1       4.447   4.124  17.408  0.00  0.00    +0.000 A 
ATOM     10  C   UNL     1       3.689   2.957  17.382  0.00  0.00    +0.000 A 
ATOM     11  C   UNL     1       3.569   2.195  18.548  0.00  0.00    +0.000 A 
ENDROOT
BRANCH   5  12
ATOM     12  N   UNL     1       6.706   7.683  17.298  0.00  0.00    +0.000 N 
ATOM     13  C   UNL     1       7.856   8.010  17.984  0.00  0.00    +0.000 C 
ATOM     14  O   UNL     1       8.412   7.298  18.812  0.00  0.00    +0.000 OA
ATOM     15  H   UNL     1       6.314   8.353  16.638  0.00  0.00    +0.000 HD
BRANCH  13  16
ATOM     16  C   UNL     1       8.419   9.352  17.649  0.00  0.00    +0.000 C 
ATOM     17  C   UNL     1       9.047  10.001  18.644  0.00  0.00    +0.000 C 
BRANCH  17  18
ATOM     18  C   UNL     1       9.701  11.313  18.576  0.00  0.00    +0.000 A 
ATOM     19  C   UNL     1       9.245  12.350  17.753  0.00  0.00    +0.000 A 
ATOM     20  C   UNL     1       9.888  13.593  17.765  0.00  0.00    +0.000 A 
ATOM     21  C   UNL     1      10.978  13.808  18.605  0.00  0.00    +0.000 A 
ATOM     22 CL   UNL     1      11.771  15.335  18.606  0.00  0.00    +0.000 Cl
ATOM     23  C   UNL     1      11.427  12.796  19.447  0.00  0.00    +0.000 A 
ATOM     24  C   UNL     1      10.785  11.555  19.435  0.00  0.00    +0.000 A 
ENDBRANCH  17  18
ENDBRANCH  13  16
ENDBRANCH   5  12
BRANCH   1  26
ATOM     25  C   UNL     1       5.261   1.115  21.254  0.00  0.00    +0.000 C 
ATOM     26  O   UNL     1       4.161   1.964  20.944  0.00  0.00    +0.000 OA
ENDBRANCH   1  26
BRANCH  11  27
ATOM     27  O   UNL     1       2.799   1.066  18.512  0.00  0.00    +0.000 OA
ATOM     28  H   UNL     1       2.934   0.609  17.667  0.00  0.00    +0.000 HD
ENDBRANCH  11  27
TORSDOF 5
ENDMDL
MODEL 6
REMARK VINA RESULT:      -8.1      6.245      8.814
REMARK  Name = 
REMARK  6 active torsions:
REMARK  status: ('A' for Active; 'I' for Inactive)
REMARK    1  A    between atoms: C_1  and  O_2
REMARK    2  A    between atoms: O_2  and  C_3
REMARK    3  A    between atoms: C_7  and  N_8
REMARK    4  A    between atoms: C_9  and  C_11
REMARK    5  A    between atoms: C_12  and  C_13
REMARK    6  A    between atoms: C_25  and  O_26
REMARK                            x       y       z     vdW  Elec       q    Type
REMARK                         _______ _______ _______ _____ _____    ______ ____
ROOT
ATOM      1  C   UNL     1       6.835   5.455  16.331  0.00  0.00    +0.000 A 
ATOM      2  C   UNL     1       5.693   6.265  16.237  0.00  0.00    +0.000 A 
ATOM      3  C   UNL     1       4.792   6.354  17.302  0.00  0.00    +0.000 A 
ATOM      4  C   UNL     1       3.593   7.171  17.231  0.00  0.00    +0.000 A 
ATOM      5  C   UNL     1       2.700   7.203  18.232  0.00  0.00    +0.000 A 
ATOM      6  C   UNL     1       2.945   6.377  19.458  0.00  0.00    +0.000 A 
ATOM      7  O   UNL     1       2.109   6.344  20.360  0.00  0.00    +0.000 OA
ATOM      8  O   UNL     1       4.144   5.677  19.542  0.00  0.00    +0.000 OA
ATOM      9  C   UNL     1       5.048   5.644  18.464  0.00  0.00    +0.000 A 
ATOM     10  C   UNL     1       6.193   4.865  18.600  0.00  0.00    +0.000 A 
ATOM     11  C   UNL     1       7.087   4.774  17.529  0.00  0.00    +0.000 A 
ENDROOT
BRANCH   5  12
ATOM     12  N   UNL     1       1.527   7.953  18.231  0.00  0.00    +0.000 N 
ATOM     13  C   UNL     1       1.416   9.300  17.961  0.00  0.00    +0.000 C 
ATOM     14  O   UNL     1       2.350  10.047  17.694  0.00  0.00    +0.000 OA
ATOM     15  H   UNL     1       0.687   7.420  18.455  0.00  0.00    +0.000 HD
BRANCH  13  16
ATOM     16  C   UNL     1       0.022   9.832  18.015  0.00  0.00    +0.000 C 
ATOM     17  C   UNL     1      -0.253  10.686  19.016  0.00  0.00    +0.000 C 
BRANCH  17  18
ATOM     18  C   UNL     1      -1.527  11.362  19.282  0.00  0.00    +0.000 A 
ATOM     19  C   UNL     1      -2.627  11.285  18.420  0.00  0.00    +0.000 A 
ATOM     20  C   UNL     1      -3.829  11.919  18.751  0.00  0.00    +0.000 A 
ATOM     21  C   UNL     1      -3.942  12.620  19.950  0.00  0.00    +0.000 A 
ATOM     22 CL   UNL     1      -5.420  13.407  20.347  0.00  0.00    +0.000 Cl
ATOM     23  C   UNL     1      -2.867  12.685  20.830  0.00  0.00    +0.000 A 
ATOM     24  C   UNL     1      -1.666  12.052  20.498  0.00  0.00    +0.000 A 
ENDBRANCH  17  18
ENDBRANCH  13  16
ENDBRANCH   5  12
BRANCH   1  26
ATOM     25  C   UNL     1       7.097   4.834  14.055  0.00  0.00    +0.000 C 
ATOM     26  O   UNL     1       7.626   5.472  15.212  0.00  0.00    +0.000 OA
ENDBRANCH   1  26
BRANCH  11  27
ATOM     27  O   UNL     1       8.220   4.026  17.688  0.00  0.00    +0.000 OA
ATOM     28  H   UNL     1       8.757   4.077  16.882  0.00  0.00    +0.000 HD
ENDBRANCH  11  27
TORSDOF 5
ENDMDL
MODEL 7
REMARK VINA RESULT:      -8.1      1.197      1.453
REMARK  Name = 
REMARK  6 active torsions:
REMARK  status: ('A' for Active; 'I' for Inactive)
REMARK    1  A    between atoms: C_1  and  O_2
REMARK    2  A    between atoms: O_2  and  C_3
REMARK    3  A    between atoms: C_7  and  N_8
REMARK    4  A    between atoms: C_9  and  C_11
REMARK    5  A    between atoms: C_12  and  C_13
REMARK    6  A    between atoms: C_25  and  O_26
REMARK                            x       y       z     vdW  Elec       q    Type
REMARK                         _______ _______ _______ _____ _____    ______ ____
ROOT
ATOM      1  C   UNL     1       3.059   2.989  19.433  0.00  0.00    +0.000 A 
ATOM      2  C   UNL     1       3.973   4.016  19.709  0.00  0.00    +0.000 A 
ATOM      3  C   UNL     1       4.850   4.477  18.723  0.00  0.00    +0.000 A 
ATOM      4  C   UNL     1       5.818   5.528  18.982  0.00  0.00    +0.000 A 
ATOM      5  C   UNL     1       6.698   5.922  18.049  0.00  0.00    +0.000 A 
ATOM      6  C   UNL     1       6.682   5.265  16.702  0.00  0.00    +0.000 A 
ATOM      7  O   UNL     1       7.520   5.567  15.855  0.00  0.00    +0.000 OA
ATOM      8  O   UNL     1       5.686   4.328  16.448  0.00  0.00    +0.000 OA
ATOM      9  C   UNL     1       4.793   3.918  17.456  0.00  0.00    +0.000 A 
ATOM     10  C   UNL     1       3.869   2.927  17.142  0.00  0.00    +0.000 A 
ATOM     11  C   UNL     1       3.001   2.464  18.135  0.00  0.00    +0.000 A 
ENDROOT
BRANCH   5  12
ATOM     12  N   UNL     1       7.660   6.914  18.227  0.00  0.00    +0.000 N 
ATOM     13  C   UNL     1       7.586   8.216  17.780  0.00  0.00    +0.000 C 
ATOM     14  O   UNL     1       6.656   8.692  17.139  0.00  0.00    +0.000 OA
ATOM     15  H   UNL     1       8.485   6.612  18.743  0.00  0.00    +0.000 HD
BRANCH  13  16
ATOM     16  C   UNL     1       8.762   9.063  18.137  0.00  0.00    +0.000 C 
ATOM     17  C   UNL     1       8.510  10.360  18.385  0.00  0.00    +0.000 C 
BRANCH  17  18
ATOM     18  C   UNL     1       9.476  11.395  18.772  0.00  0.00    +0.000 A 
ATOM     19  C   UNL     1      10.817  11.117  19.059  0.00  0.00    +0.000 A 
ATOM     20  C   UNL     1      11.699  12.154  19.382  0.00  0.00    +0.000 A 
ATOM     21  C   UNL     1      11.247  13.472  19.407  0.00  0.00    +0.000 A 
ATOM     22 CL   UNL     1      12.333  14.742  19.816  0.00  0.00    +0.000 Cl
ATOM     23  C   UNL     1       9.923  13.768  19.100  0.00  0.00    +0.000 A 
ATOM     24  C   UNL     1       9.044  12.731  18.778  0.00  0.00    +0.000 A 
ENDBRANCH  17  18
ENDBRANCH  13  16
ENDBRANCH   5  12
BRANCH   1  26
ATOM     25  C   UNL     1       2.447   3.398  21.690  0.00  0.00    +0.000 C 
ATOM     26  O   UNL     1       2.263   2.646  20.494  0.00  0.00    +0.000 OA
ENDBRANCH   1  26
BRANCH  11  27
ATOM     27  O   UNL     1       2.081   1.509  17.803  0.00  0.00    +0.000 OA
ATOM     28  H   UNL     1       2.118   0.786  18.449  0.00  0.00    +0.000 HD
ENDBRANCH  11  27
TORSDOF 5
ENDMDL
MODEL 8
REMARK VINA RESULT:      -7.6      7.324      8.839
REMARK  Name = 
REMARK  6 active torsions:
REMARK  status: ('A' for Active; 'I' for Inactive)
REMARK    1  A    between atoms: C_1  and  O_2
REMARK    2  A    between atoms: O_2  and  C_3
REMARK    3  A    between atoms: C_7  and  N_8
REMARK    4  A    between atoms: C_9  and  C_11
REMARK    5  A    between atoms: C_12  and  C_13
REMARK    6  A    between atoms: C_25  and  O_26
REMARK                            x       y       z     vdW  Elec       q    Type
REMARK                         _______ _______ _______ _____ _____    ______ ____
ROOT
ATOM      1  C   UNL     1       3.109   3.825  19.927  0.00  0.00    +0.000 A 
ATOM      2  C   UNL     1       2.395   4.894  20.490  0.00  0.00    +0.000 A 
ATOM      3  C   UNL     1       2.285   6.113  19.816  0.00  0.00    +0.000 A 
ATOM      4  C   UNL     1       1.566   7.243  20.379  0.00  0.00    +0.000 A 
ATOM      5  C   UNL     1       1.517   8.430  19.755  0.00  0.00    +0.000 A 
ATOM      6  C   UNL     1       2.219   8.596  18.442  0.00  0.00    +0.000 A 
ATOM      7  O   UNL     1       2.240   9.693  17.884  0.00  0.00    +0.000 OA
ATOM      8  O   UNL     1       2.821   7.476  17.880  0.00  0.00    +0.000 OA
ATOM      9  C   UNL     1       2.876   6.251  18.570  0.00  0.00    +0.000 A 
ATOM     10  C   UNL     1       3.556   5.196  17.971  0.00  0.00    +0.000 A 
ATOM     11  C   UNL     1       3.670   3.981  18.653  0.00  0.00    +0.000 A 
ENDROOT
BRANCH   5  12
ATOM     12  N   UNL     1       0.858   9.558  20.236  0.00  0.00    +0.000 N 
ATOM     13  C   UNL     1       0.913  10.053  21.521  0.00  0.00    +0.000 C 
ATOM     14  O   UNL     1       1.547   9.555  22.444  0.00  0.00    +0.000 OA
ATOM     15  H   UNL     1       0.289  10.041  19.542  0.00  0.00    +0.000 HD
BRANCH  13  16
ATOM     16  C   UNL     1       0.115  11.295  21.744  0.00  0.00    +0.000 C 
ATOM     17  C   UNL     1      -0.843  11.229  22.684  0.00  0.00    +0.000 C 
BRANCH  17  18
ATOM     18  C   UNL     1      -1.748  12.303  23.109  0.00  0.00    +0.000 A 
ATOM     19  C   UNL     1      -3.040  12.067  23.590  0.00  0.00    +0.000 A 
ATOM     20  C   UNL     1      -3.839  13.132  24.019  0.00  0.00    +0.000 A 
ATOM     21  C   UNL     1      -3.346  14.435  23.980  0.00  0.00    +0.000 A 
ATOM     22 CL   UNL     1      -4.337  15.742  24.498  0.00  0.00    +0.000 Cl
ATOM     23  C   UNL     1      -2.054  14.684  23.529  0.00  0.00    +0.000 A 
ATOM     24  C   UNL     1      -1.257  13.619  23.101  0.00  0.00    +0.000 A 
ENDBRANCH  17  18
ENDBRANCH  13  16
ENDBRANCH   5  12
BRANCH   1  26
ATOM     25  C   UNL     1       2.213   2.662  21.793  0.00  0.00    +0.000 C 
ATOM     26  O   UNL     1       3.126   2.694  20.701  0.00  0.00    +0.000 OA
ENDBRANCH   1  26
BRANCH  11  27
ATOM     27  O   UNL     1       4.317   2.946  18.038  0.00  0.00    +0.000 OA
ATOM     28  H   UNL     1       3.677   2.416  17.537  0.00  0.00    +0.000 HD
ENDBRANCH  11  27
TORSDOF 5
ENDMDL
MODEL 9
REMARK VINA RESULT:      -7.5      0.979      1.051
REMARK  Name = 
REMARK  6 active torsions:
REMARK  status: ('A' for Active; 'I' for Inactive)
REMARK    1  A    between atoms: C_1  and  O_2
REMARK    2  A    between atoms: O_2  and  C_3
REMARK    3  A    between atoms: C_7  and  N_8
REMARK    4  A    between atoms: C_9  and  C_11
REMARK    5  A    between atoms: C_12  and  C_13
REMARK    6  A    between atoms: C_25  and  O_26
REMARK                            x       y       z     vdW  Elec       q    Type
REMARK                         _______ _______ _______ _____ _____    ______ ____
ROOT
ATOM      1  C   UNL     1       2.120   3.467  19.054  0.00  0.00    +0.000 A 
ATOM      2  C   UNL     1       2.983   4.542  19.316  0.00  0.00    +0.000 A 
ATOM      3  C   UNL     1       3.987   4.890  18.407  0.00  0.00    +0.000 A 
ATOM      4  C   UNL     1       4.905   5.989  18.655  0.00  0.00    +0.000 A 
ATOM      5  C   UNL     1       5.905   6.277  17.809  0.00  0.00    +0.000 A 
ATOM      6  C   UNL     1       6.080   5.450  16.572  0.00  0.00    +0.000 A 
ATOM      7  O   UNL     1       7.027   5.658  15.816  0.00  0.00    +0.000 OA
ATOM      8  O   UNL     1       5.133   4.465  16.310  0.00  0.00    +0.000 OA
ATOM      9  C   UNL     1       4.110   4.170  17.229  0.00  0.00    +0.000 A 
ATOM     10  C   UNL     1       3.243   3.125  16.925  0.00  0.00    +0.000 A 
ATOM     11  C   UNL     1       2.247   2.776  17.841  0.00  0.00    +0.000 A 
ENDROOT
BRANCH   5  12
ATOM     12  N   UNL     1       6.828   7.305  17.985  0.00  0.00    +0.000 N 
ATOM     13  C   UNL     1       8.020   7.226  18.672  0.00  0.00    +0.000 C 
ATOM     14  O   UNL     1       8.439   6.230  19.249  0.00  0.00    +0.000 OA
ATOM     15  H   UNL     1       6.563   8.187  17.548  0.00  0.00    +0.000 HD
BRANCH  13  16
ATOM     16  C   UNL     1       8.819   8.488  18.678  0.00  0.00    +0.000 C 
ATOM     17  C   UNL     1       8.300   9.526  17.998  0.00  0.00    +0.000 C 
BRANCH  17  18
ATOM     18  C   UNL     1       8.868  10.871  17.863  0.00  0.00    +0.000 A 
ATOM     19  C   UNL     1       8.082  12.026  17.780  0.00  0.00    +0.000 A 
ATOM     20  C   UNL     1       8.686  13.285  17.694  0.00  0.00    +0.000 A 
ATOM     21  C   UNL     1      10.075  13.396  17.702  0.00  0.00    +0.000 A 
ATOM     22 CL   UNL     1      10.811  14.947  17.585  0.00  0.00    +0.000 Cl
ATOM     23  C   UNL     1      10.870  12.260  17.809  0.00  0.00    +0.000 A 
ATOM     24  C   UNL     1      10.266  11.003  17.896  0.00  0.00    +0.000 A 
ENDBRANCH  17  18
ENDBRANCH  13  16
ENDBRANCH   5  12
BRANCH   1  26
ATOM     25  C   UNL     1       1.632   2.545  21.186  0.00  0.00    +0.000 C 
ATOM     26  O   UNL     1       1.186   3.248  20.031  0.00  0.00    +0.000 OA
ENDBRANCH   1  26
BRANCH  11  27
ATOM     27  O   UNL     1       1.387   1.765  17.515  0.00  0.00    +0.000 OA
ATOM     28  H   UNL     1       1.760   0.917  17.804  0.00  0.00    +0.000 HD
ENDBRANCH  11  27
TORSDOF 5
ENDMDL
