MODEL 1
REMARK VINA RESULT:      -7.3      0.000      0.000
REMARK  Name = 
REMARK  4 active torsions:
REMARK  status: ('A' for Active; 'I' for Inactive)
REMARK    1  A    between atoms: C_1  and  C_2
REMARK    2  A    between atoms: C_5  and  N_6
REMARK    3  A    between atoms: N_9  and  C_10
REMARK    4  A    between atoms: C_10  and  C_11
REMARK                            x       y       z     vdW  Elec       q    Type
REMARK                         _______ _______ _______ _____ _____    ______ ____
ROOT
ATOM      1  N   UNL     1       1.487   8.595  21.671  0.00  0.00    +0.000 N 
ATOM      2  C   UNL     1       1.689   8.169  20.367  0.00  0.00    +0.000 C 
ATOM      3  O   UNL     1       1.229   8.672  19.357  0.00  0.00    +0.000 OA
ATOM      4  N   UNL     1       2.492   7.042  20.303  0.00  0.00    +0.000 N 
ATOM      5  H   UNL     1       1.881   8.034  22.418  0.00  0.00    +0.000 HD
ATOM      6  H   UNL     1       3.223   7.003  20.988  0.00  0.00    +0.000 HD
ENDROOT
BRANCH   1  11
ATOM      7  C   UNL     1      -1.719  13.026  23.073  0.00  0.00    +0.000 C 
ATOM      8  C   UNL     1      -0.852  11.867  22.699  0.00  0.00    +0.000 A 
ATOM      9  N   UNL     1       0.068  12.039  21.746  0.00  0.00    +0.000 NA
ATOM     10  C   UNL     1       0.816  10.955  21.436  0.00  0.00    +0.000 A 
ATOM     11  C   UNL     1       0.689   9.713  22.024  0.00  0.00    +0.000 A 
ATOM     12  C   UNL     1      -0.293   9.656  22.997  0.00  0.00    +0.000 A 
ATOM     13  N   UNL     1      -1.069  10.709  23.351  0.00  0.00    +0.000 NA
ENDBRANCH   1  11
BRANCH   4  14
ATOM     14  C   UNL     1       2.781   6.520  18.966  0.00  0.00    +0.000 C 
BRANCH  14  15
ATOM     15  C   UNL     1       3.091   5.007  18.919  0.00  0.00    +0.000 C 
ATOM     16  C   UNL     1       2.922   4.310  20.278  0.00  0.00    +0.000 C 
ATOM     17  C   UNL     1       1.469   4.058  20.674  0.00  0.00    +0.000 C 
ATOM     18  C   UNL     1       0.967   2.684  20.238  0.00  0.00    +0.000 C 
ATOM     19  C   UNL     1       0.826   2.499  18.728  0.00  0.00    +0.000 C 
ATOM     20  C   UNL     1       2.067   2.836  17.898  0.00  0.00    +0.000 C 
ATOM     21  C   UNL     1       2.300   4.345  17.768  0.00  0.00    +0.000 C 
ENDBRANCH  14  15
ENDBRANCH   4  14
TORSDOF 3
ENDMDL
MODEL 2
REMARK VINA RESULT:      -7.3      0.063      1.077
REMARK  Name = 
REMARK  4 active torsions:
REMARK  status: ('A' for Active; 'I' for Inactive)
REMARK    1  A    between atoms: C_1  and  C_2
REMARK    2  A    between atoms: C_5  and  N_6
REMARK    3  A    between atoms: N_9  and  C_10
REMARK    4  A    between atoms: C_10  and  C_11
REMARK                            x       y       z     vdW  Elec       q    Type
REMARK                         _______ _______ _______ _____ _____    ______ ____
ROOT
ATOM      1  N   UNL     1       1.442   8.610  21.662  0.00  0.00    +0.000 N 
ATOM      2  C   UNL     1       1.647   8.199  20.354  0.00  0.00    +0.000 C 
ATOM      3  O   UNL     1       1.204   8.722  19.347  0.00  0.00    +0.000 OA
ATOM      4  N   UNL     1       2.432   7.059  20.282  0.00  0.00    +0.000 N 
ATOM      5  H   UNL     1       1.819   8.033  22.404  0.00  0.00    +0.000 HD
ATOM      6  H   UNL     1       3.156   6.999  20.973  0.00  0.00    +0.000 HD
ENDROOT
BRANCH   1  11
ATOM      7  C   UNL     1      -1.644  13.115  23.099  0.00  0.00    +0.000 C 
ATOM      8  C   UNL     1      -0.845  11.909  22.721  0.00  0.00    +0.000 A 
ATOM      9  N   UNL     1      -1.096  10.756  23.346  0.00  0.00    +0.000 NA
ATOM     10  C   UNL     1      -0.337   9.699  22.977  0.00  0.00    +0.000 A 
ATOM     11  C   UNL     1       0.659   9.737  22.023  0.00  0.00    +0.000 A 
ATOM     12  C   UNL     1       0.826  10.982  21.442  0.00  0.00    +0.000 A 
ATOM     13  N   UNL     1       0.093  12.073  21.770  0.00  0.00    +0.000 NA
ENDBRANCH   1  11
BRANCH   4  14
ATOM     14  C   UNL     1       2.723   6.550  18.940  0.00  0.00    +0.000 C 
BRANCH  14  15
ATOM     15  C   UNL     1       3.060   5.043  18.884  0.00  0.00    +0.000 C 
ATOM     16  C   UNL     1       2.961   4.346  20.249  0.00  0.00    +0.000 C 
ATOM     17  C   UNL     1       1.530   4.067  20.705  0.00  0.00    +0.000 C 
ATOM     18  C   UNL     1       1.037   2.683  20.292  0.00  0.00    +0.000 C 
ATOM     19  C   UNL     1       0.838   2.491  18.790  0.00  0.00    +0.000 C 
ATOM     20  C   UNL     1       2.037   2.851  17.909  0.00  0.00    +0.000 C 
ATOM     21  C   UNL     1       2.236   4.363  17.766  0.00  0.00    +0.000 C 
ENDBRANCH  14  15
ENDBRANCH   4  14
TORSDOF 3
ENDMDL
MODEL 3
REMARK VINA RESULT:      -7.3      1.259      1.784
REMARK  Name = 
REMARK  4 active torsions:
REMARK  status: ('A' for Active; 'I' for Inactive)
REMARK    1  A    between atoms: C_1  and  C_2
REMARK    2  A    between atoms: C_5  and  N_6
REMARK    3  A    between atoms: N_9  and  C_10
REMARK    4  A    between atoms: C_10  and  C_11
REMARK                            x       y       z     vdW  Elec       q    Type
REMARK                         _______ _______ _______ _____ _____    ______ ____
ROOT
ATOM      1  N   UNL     1       1.494   7.847  21.169  0.00  0.00    +0.000 N 
ATOM      2  C   UNL     1       2.029   7.749  19.893  0.00  0.00    +0.000 C 
ATOM      3  O   UNL     1       1.901   8.552  18.986  0.00  0.00    +0.000 OA
ATOM      4  N   UNL     1       2.752   6.579  19.719  0.00  0.00    +0.000 N 
ATOM      5  H   UNL     1       1.628   7.065  21.799  0.00  0.00    +0.000 HD
ATOM      6  H   UNL     1       3.256   6.268  20.526  0.00  0.00    +0.000 HD
ENDROOT
BRANCH   1  11
ATOM      7  C   UNL     1      -1.674  12.189  22.898  0.00  0.00    +0.000 C 
ATOM      8  C   UNL     1      -0.842  11.028  22.458  0.00  0.00    +0.000 A 
ATOM      9  N   UNL     1      -0.200  10.314  23.388  0.00  0.00    +0.000 NA
ATOM     10  C   UNL     1       0.550   9.283  22.936  0.00  0.00    +0.000 A 
ATOM     11  C   UNL     1       0.694   8.933  21.610  0.00  0.00    +0.000 A 
ATOM     12  C   UNL     1      -0.018   9.740  20.740  0.00  0.00    +0.000 A 
ATOM     13  N   UNL     1      -0.787  10.783  21.136  0.00  0.00    +0.000 NA
ENDBRANCH   1  11
BRANCH   4  14
ATOM     14  C   UNL     1       3.374   6.387  18.407  0.00  0.00    +0.000 C 
BRANCH  14  15
ATOM     15  C   UNL     1       3.064   5.027  17.742  0.00  0.00    +0.000 C 
ATOM     16  C   UNL     1       4.249   4.051  17.773  0.00  0.00    +0.000 C 
ATOM     17  C   UNL     1       4.484   3.396  19.133  0.00  0.00    +0.000 C 
ATOM     18  C   UNL     1       3.759   2.060  19.279  0.00  0.00    +0.000 C 
ATOM     19  C   UNL     1       2.236   2.157  19.333  0.00  0.00    +0.000 C 
ATOM     20  C   UNL     1       1.577   2.931  18.189  0.00  0.00    +0.000 C 
ATOM     21  C   UNL     1       1.753   4.447  18.321  0.00  0.00    +0.000 C 
ENDBRANCH  14  15
ENDBRANCH   4  14
TORSDOF 3
ENDMDL
MODEL 4
REMARK VINA RESULT:      -7.2      4.798      8.113
REMARK  Name = 
REMARK  4 active torsions:
REMARK  status: ('A' for Active; 'I' for Inactive)
REMARK    1  A    between atoms: C_1  and  C_2
REMARK    2  A    between atoms: C_5  and  N_6
REMARK    3  A    between atoms: N_9  and  C_10
REMARK    4  A    between atoms: C_10  and  C_11
REMARK                            x       y       z     vdW  Elec       q    Type
REMARK                         _______ _______ _______ _____ _____    ______ ____
ROOT
ATOM      1  N   UNL     1       5.629   4.669  17.736  0.00  0.00    +0.000 N 
ATOM      2  C   UNL     1       4.542   5.411  18.172  0.00  0.00    +0.000 C 
ATOM      3  O   UNL     1       3.857   6.164  17.502  0.00  0.00    +0.000 OA
ATOM      4  N   UNL     1       4.293   5.229  19.524  0.00  0.00    +0.000 N 
ATOM      5  H   UNL     1       6.146   4.136  18.427  0.00  0.00    +0.000 HD
ATOM      6  H   UNL     1       4.471   4.305  19.867  0.00  0.00    +0.000 HD
ENDROOT
BRANCH   1  11
ATOM      7  C   UNL     1       7.556   4.764  12.430  0.00  0.00    +0.000 C 
ATOM      8  C   UNL     1       7.042   4.716  13.833  0.00  0.00    +0.000 A 
ATOM      9  N   UNL     1       6.020   3.902  14.112  0.00  0.00    +0.000 NA
ATOM     10  C   UNL     1       5.585   3.907  15.392  0.00  0.00    +0.000 A 
ATOM     11  C   UNL     1       6.113   4.684  16.403  0.00  0.00    +0.000 A 
ATOM     12  C   UNL     1       7.166   5.484  15.998  0.00  0.00    +0.000 A 
ATOM     13  N   UNL     1       7.646   5.517  14.731  0.00  0.00    +0.000 NA
ENDBRANCH   1  11
BRANCH   4  14
ATOM     14  C   UNL     1       3.152   5.958  20.082  0.00  0.00    +0.000 C 
BRANCH  14  15
ATOM     15  C   UNL     1       1.994   5.061  20.572  0.00  0.00    +0.000 C 
ATOM     16  C   UNL     1       0.922   4.813  19.500  0.00  0.00    +0.000 C 
ATOM     17  C   UNL     1       1.329   3.800  18.432  0.00  0.00    +0.000 C 
ATOM     18  C   UNL     1       0.899   2.376  18.772  0.00  0.00    +0.000 C 
ATOM     19  C   UNL     1       1.622   1.752  19.964  0.00  0.00    +0.000 C 
ATOM     20  C   UNL     1       1.608   2.573  21.255  0.00  0.00    +0.000 C 
ATOM     21  C   UNL     1       2.562   3.771  21.206  0.00  0.00    +0.000 C 
ENDBRANCH  14  15
ENDBRANCH   4  14
TORSDOF 3
ENDMDL
MODEL 5
REMARK VINA RESULT:      -7.1      6.018      6.897
REMARK  Name = 
REMARK  4 active torsions:
REMARK  status: ('A' for Active; 'I' for Inactive)
REMARK    1  A    between atoms: C_1  and  C_2
REMARK    2  A    between atoms: C_5  and  N_6
REMARK    3  A    between atoms: N_9  and  C_10
REMARK    4  A    between atoms: C_10  and  C_11
REMARK                            x       y       z     vdW  Elec       q    Type
REMARK                         _______ _______ _______ _____ _____    ______ ____
ROOT
ATOM      1  N   UNL     1       6.214   4.716  17.533  0.00  0.00    +0.000 N 
ATOM      2  C   UNL     1       4.851   4.607  17.297  0.00  0.00    +0.000 C 
ATOM      3  O   UNL     1       4.047   5.520  17.238  0.00  0.00    +0.000 OA
ATOM      4  N   UNL     1       4.452   3.289  17.141  0.00  0.00    +0.000 N 
ATOM      5  H   UNL     1       6.748   3.860  17.622  0.00  0.00    +0.000 HD
ATOM      6  H   UNL     1       5.115   2.697  16.679  0.00  0.00    +0.000 HD
ENDROOT
BRANCH   1  11
ATOM      7  C   UNL     1       8.870   9.618  18.424  0.00  0.00    +0.000 C 
ATOM      8  C   UNL     1       8.169   8.323  18.166  0.00  0.00    +0.000 A 
ATOM      9  N   UNL     1       7.315   8.253  17.140  0.00  0.00    +0.000 NA
ATOM     10  C   UNL     1       6.696   7.064  16.958  0.00  0.00    +0.000 A 
ATOM     11  C   UNL     1       6.883   5.948  17.748  0.00  0.00    +0.000 A 
ATOM     12  C   UNL     1       7.790   6.138  18.776  0.00  0.00    +0.000 A 
ATOM     13  N   UNL     1       8.441   7.305  19.003  0.00  0.00    +0.000 NA
ENDBRANCH   1  11
BRANCH   4  14
ATOM     14  C   UNL     1       3.030   3.066  16.870  0.00  0.00    +0.000 C 
BRANCH  14  15
ATOM     15  C   UNL     1       2.286   2.264  17.961  0.00  0.00    +0.000 C 
ATOM     16  C   UNL     1       3.222   1.683  19.033  0.00  0.00    +0.000 C 
ATOM     17  C   UNL     1       3.721   2.710  20.048  0.00  0.00    +0.000 C 
ATOM     18  C   UNL     1       2.834   2.795  21.287  0.00  0.00    +0.000 C 
ATOM     19  C   UNL     1       1.442   3.374  21.045  0.00  0.00    +0.000 C 
ATOM     20  C   UNL     1       0.632   2.714  19.927  0.00  0.00    +0.000 C 
ATOM     21  C   UNL     1       1.121   3.106  18.529  0.00  0.00    +0.000 C 
ENDBRANCH  14  15
ENDBRANCH   4  14
TORSDOF 3
ENDMDL
MODEL 6
REMARK VINA RESULT:      -7.1      5.074      8.292
REMARK  Name = 
REMARK  4 active torsions:
REMARK  status: ('A' for Active; 'I' for Inactive)
REMARK    1  A    between atoms: C_1  and  C_2
REMARK    2  A    between atoms: C_5  and  N_6
REMARK    3  A    between atoms: N_9  and  C_10
REMARK    4  A    between atoms: C_10  and  C_11
REMARK                            x       y       z     vdW  Elec       q    Type
REMARK                         _______ _______ _______ _____ _____    ______ ____
ROOT
ATOM      1  N   UNL     1       5.729   4.310  17.425  0.00  0.00    +0.000 N 
ATOM      2  C   UNL     1       4.801   5.169  17.995  0.00  0.00    +0.000 C 
ATOM      3  O   UNL     1       4.258   6.116  17.456  0.00  0.00    +0.000 OA
ATOM      4  N   UNL     1       4.541   4.853  19.319  0.00  0.00    +0.000 N 
ATOM      5  H   UNL     1       6.148   3.605  18.020  0.00  0.00    +0.000 HD
ATOM      6  H   UNL     1       4.551   3.873  19.531  0.00  0.00    +0.000 HD
ENDROOT
BRANCH   1  11
ATOM      7  C   UNL     1       7.569   4.708  12.102  0.00  0.00    +0.000 C 
ATOM      8  C   UNL     1       7.084   4.625  13.514  0.00  0.00    +0.000 A 
ATOM      9  N   UNL     1       7.662   5.403  14.434  0.00  0.00    +0.000 NA
ATOM     10  C   UNL     1       7.196   5.279  15.698  0.00  0.00    +0.000 A 
ATOM     11  C   UNL     1       6.191   4.419  16.089  0.00  0.00    +0.000 A 
ATOM     12  C   UNL     1       5.667   3.667  15.052  0.00  0.00    +0.000 A 
ATOM     13  N   UNL     1       6.092   3.752  13.768  0.00  0.00    +0.000 NA
ENDBRANCH   1  11
BRANCH   4  14
ATOM     14  C   UNL     1       3.559   5.692  20.010  0.00  0.00    +0.000 C 
BRANCH  14  15
ATOM     15  C   UNL     1       2.311   4.935  20.517  0.00  0.00    +0.000 C 
ATOM     16  C   UNL     1       1.177   4.872  19.483  0.00  0.00    +0.000 C 
ATOM     17  C   UNL     1       1.407   3.857  18.365  0.00  0.00    +0.000 C 
ATOM     18  C   UNL     1       0.805   2.489  18.675  0.00  0.00    +0.000 C 
ATOM     19  C   UNL     1       1.482   1.730  19.814  0.00  0.00    +0.000 C 
ATOM     20  C   UNL     1       1.625   2.495  21.131  0.00  0.00    +0.000 C 
ATOM     21  C   UNL     1       2.727   3.558  21.084  0.00  0.00    +0.000 C 
ENDBRANCH  14  15
ENDBRANCH   4  14
TORSDOF 3
ENDMDL
MODEL 7
REMARK VINA RESULT:      -7.1      1.841      2.889
REMARK  Name = 
REMARK  4 active torsions:
REMARK  status: ('A' for Active; 'I' for Inactive)
REMARK    1  A    between atoms: C_1  and  C_2
REMARK    2  A    between atoms: C_5  and  N_6
REMARK    3  A    between atoms: N_9  and  C_10
REMARK    4  A    between atoms: C_10  and  C_11
REMARK                            x       y       z     vdW  Elec       q    Type
REMARK                         _______ _______ _______ _____ _____    ______ ____
ROOT
ATOM      1  N   UNL     1       1.547   8.166  21.555  0.00  0.00    +0.000 N 
ATOM      2  C   UNL     1       1.737   7.722  20.255  0.00  0.00    +0.000 C 
ATOM      3  O   UNL     1       1.337   8.257  19.237  0.00  0.00    +0.000 OA
ATOM      4  N   UNL     1       2.449   6.534  20.207  0.00  0.00    +0.000 N 
ATOM      5  H   UNL     1       1.881   7.577  22.309  0.00  0.00    +0.000 HD
ATOM      6  H   UNL     1       3.162   6.439  20.905  0.00  0.00    +0.000 HD
ENDROOT
BRANCH   1  11
ATOM      7  C   UNL     1      -1.321  12.840  22.899  0.00  0.00    +0.000 C 
ATOM      8  C   UNL     1      -0.544  11.615  22.539  0.00  0.00    +0.000 A 
ATOM      9  N   UNL     1       0.303  11.677  21.507  0.00  0.00    +0.000 NA
ATOM     10  C   UNL     1       0.971  10.538  21.213  0.00  0.00    +0.000 A 
ATOM     11  C   UNL     1       0.834   9.345  21.892  0.00  0.00    +0.000 A 
ATOM     12  C   UNL     1      -0.067   9.401  22.941  0.00  0.00    +0.000 A 
ATOM     13  N   UNL     1      -0.761  10.514  23.282  0.00  0.00    +0.000 NA
ENDBRANCH   1  11
BRANCH   4  14
ATOM     14  C   UNL     1       2.719   5.988  18.876  0.00  0.00    +0.000 C 
BRANCH  14  15
ATOM     15  C   UNL     1       4.214   5.958  18.484  0.00  0.00    +0.000 C 
ATOM     16  C   UNL     1       4.760   4.537  18.278  0.00  0.00    +0.000 C 
ATOM     17  C   UNL     1       4.343   3.894  16.957  0.00  0.00    +0.000 C 
ATOM     18  C   UNL     1       5.356   4.129  15.840  0.00  0.00    +0.000 C 
ATOM     19  C   UNL     1       5.465   5.575  15.363  0.00  0.00    +0.000 C 
ATOM     20  C   UNL     1       5.712   6.619  16.454  0.00  0.00    +0.000 C 
ATOM     21  C   UNL     1       4.463   6.910  17.292  0.00  0.00    +0.000 C 
ENDBRANCH  14  15
ENDBRANCH   4  14
TORSDOF 3
ENDMDL
MODEL 8
REMARK VINA RESULT:      -7.0      1.832      3.076
REMARK  Name = 
REMARK  4 active torsions:
REMARK  status: ('A' for Active; 'I' for Inactive)
REMARK    1  A    between atoms: C_1  and  C_2
REMARK    2  A    between atoms: C_5  and  N_6
REMARK    3  A    between atoms: N_9  and  C_10
REMARK    4  A    between atoms: C_10  and  C_11
REMARK                            x       y       z     vdW  Elec       q    Type
REMARK                         _______ _______ _______ _____ _____    ______ ____
ROOT
ATOM      1  N   UNL     1       1.595   8.195  21.594  0.00  0.00    +0.000 N 
ATOM      2  C   UNL     1       1.755   7.727  20.299  0.00  0.00    +0.000 C 
ATOM      3  O   UNL     1       1.297   8.220  19.284  0.00  0.00    +0.000 OA
ATOM      4  N   UNL     1       2.514   6.568  20.252  0.00  0.00    +0.000 N 
ATOM      5  H   UNL     1       1.980   7.639  22.349  0.00  0.00    +0.000 HD
ATOM      6  H   UNL     1       3.255   6.519  20.925  0.00  0.00    +0.000 HD
ENDROOT
BRANCH   1  11
ATOM      7  C   UNL     1      -1.353  12.821  22.930  0.00  0.00    +0.000 C 
ATOM      8  C   UNL     1      -0.591  11.583  22.580  0.00  0.00    +0.000 A 
ATOM      9  N   UNL     1      -0.808  10.477  23.297  0.00  0.00    +0.000 NA
ATOM     10  C   UNL     1      -0.082   9.389  22.950  0.00  0.00    +0.000 A 
ATOM     11  C   UNL     1       0.847   9.352  21.930  0.00  0.00    +0.000 A 
ATOM     12  C   UNL     1       0.983  10.554  21.258  0.00  0.00    +0.000 A 
ATOM     13  N   UNL     1       0.282  11.673  21.560  0.00  0.00    +0.000 NA
ENDBRANCH   1  11
BRANCH   4  14
ATOM     14  C   UNL     1       2.758   6.000  18.924  0.00  0.00    +0.000 C 
BRANCH  14  15
ATOM     15  C   UNL     1       4.247   5.935  18.516  0.00  0.00    +0.000 C 
ATOM     16  C   UNL     1       4.748   4.504  18.274  0.00  0.00    +0.000 C 
ATOM     17  C   UNL     1       4.299   3.901  16.944  0.00  0.00    +0.000 C 
ATOM     18  C   UNL     1       5.308   4.131  15.821  0.00  0.00    +0.000 C 
ATOM     19  C   UNL     1       5.454   5.584  15.374  0.00  0.00    +0.000 C 
ATOM     20  C   UNL     1       5.744   6.596  16.485  0.00  0.00    +0.000 C 
ATOM     21  C   UNL     1       4.511   6.904  17.342  0.00  0.00    +0.000 C 
ENDBRANCH  14  15
ENDBRANCH   4  14
TORSDOF 3
ENDMDL
MODEL 9
REMARK VINA RESULT:      -7.0      5.901      7.025
REMARK  Name = 
REMARK  4 active torsions:
REMARK  status: ('A' for Active; 'I' for Inactive)
REMARK    1  A    between atoms: C_1  and  C_2
REMARK    2  A    between atoms: C_5  and  N_6
REMARK    3  A    between atoms: N_9  and  C_10
REMARK    4  A    between atoms: C_10  and  C_11
REMARK                            x       y       z     vdW  Elec       q    Type
REMARK                         _______ _______ _______ _____ _____    ______ ____
ROOT
ATOM      1  N   UNL     1       6.225   4.351  17.600  0.00  0.00    +0.000 N 
ATOM      2  C   UNL     1       4.874   4.185  17.336  0.00  0.00    +0.000 C 
ATOM      3  O   UNL     1       4.041   5.065  17.213  0.00  0.00    +0.000 OA
ATOM      4  N   UNL     1       4.522   2.848  17.234  0.00  0.00    +0.000 N 
ATOM      5  H   UNL     1       6.784   3.518  17.743  0.00  0.00    +0.000 HD
ATOM      6  H   UNL     1       5.216   2.257  16.817  0.00  0.00    +0.000 HD
ENDROOT
BRANCH   1  11
ATOM      7  C   UNL     1       8.710   9.378  18.250  0.00  0.00    +0.000 C 
ATOM      8  C   UNL     1       8.050   8.046  18.100  0.00  0.00    +0.000 A 
ATOM      9  N   UNL     1       8.342   7.086  18.984  0.00  0.00    +0.000 NA
ATOM     10  C   UNL     1       7.729   5.895  18.795  0.00  0.00    +0.000 A 
ATOM     11  C   UNL     1       6.847   5.614  17.772  0.00  0.00    +0.000 A 
ATOM     12  C   UNL     1       6.621   6.682  16.923  0.00  0.00    +0.000 A 
ATOM     13  N   UNL     1       7.203   7.897  17.065  0.00  0.00    +0.000 NA
ENDBRANCH   1  11
BRANCH   4  14
ATOM     14  C   UNL     1       3.116   2.563  16.939  0.00  0.00    +0.000 C 
BRANCH  14  15
ATOM     15  C   UNL     1       2.300   2.041  18.142  0.00  0.00    +0.000 C 
ATOM     16  C   UNL     1       3.170   1.674  19.353  0.00  0.00    +0.000 C 
ATOM     17  C   UNL     1       3.676   2.878  20.146  0.00  0.00    +0.000 C 
ATOM     18  C   UNL     1       2.749   3.258  21.298  0.00  0.00    +0.000 C 
ATOM     19  C   UNL     1       1.393   3.819  20.876  0.00  0.00    +0.000 C 
ATOM     20  C   UNL     1       0.596   2.961  19.890  0.00  0.00    +0.000 C 
ATOM     21  C   UNL     1       1.152   3.025  18.464  0.00  0.00    +0.000 C 
ENDBRANCH  14  15
ENDBRANCH   4  14
TORSDOF 3
ENDMDL
