MODEL 1
REMARK VINA RESULT:      -7.4      0.000      0.000
REMARK  Name = 
REMARK  7 active torsions:
REMARK  status: ('A' for Active; 'I' for Inactive)
REMARK    1  A    between atoms: C_1  and  O_2
REMARK    2  A    between atoms: O_2  and  C_3
REMARK    3  A    between atoms: C_6  and  C_7
REMARK    4  A    between atoms: C_7  and  N_8
REMARK    5  A    between atoms: C_9  and  C_11
REMARK    6  A    between atoms: C_16  and  N_17
REMARK    7  A    between atoms: C_24  and  O_25
REMARK                            x       y       z     vdW  Elec       q    Type
REMARK                         _______ _______ _______ _____ _____    ______ ____
ROOT
ATOM      1  N   UNL     1       2.082   7.323  20.109  0.00  0.00    +0.000 N 
ATOM      2  C   UNL     1       2.308   6.287  19.218  0.00  0.00    +0.000 C 
ATOM      3  O   UNL     1       2.315   6.453  18.006  0.00  0.00    +0.000 OA
ATOM      4  H   UNL     1       1.929   7.124  21.089  0.00  0.00    +0.000 HD
ENDROOT
BRANCH   2   5
ATOM      5  C   UNL     1       2.552   4.950  19.836  0.00  0.00    +0.000 A 
ATOM      6  C   UNL     1       1.685   4.599  20.877  0.00  0.00    +0.000 A 
ATOM      7  N   UNL     1       1.756   3.460  21.600  0.00  0.00    +0.000 NA
ATOM      8  C   UNL     1       2.765   2.633  21.286  0.00  0.00    +0.000 A 
ATOM      9  C   UNL     1       3.699   2.903  20.293  0.00  0.00    +0.000 A 
ATOM     10  C   UNL     1       3.632   4.088  19.536  0.00  0.00    +0.000 A 
BRANCH  10  11
ATOM     11  N   UNL     1       4.617   4.340  18.595  0.00  0.00    +0.000 N 
ATOM     12  C   UNL     1       5.917   4.943  18.947  0.00  0.00    +0.000 C 
ATOM     13  C   UNL     1       6.335   5.929  17.842  0.00  0.00    +0.000 C 
ATOM     14  O   UNL     1       6.366   5.299  16.548  0.00  0.00    +0.000 OA
ATOM     15  C   UNL     1       5.062   4.779  16.224  0.00  0.00    +0.000 C 
ATOM     16  C   UNL     1       4.621   3.726  17.256  0.00  0.00    +0.000 C 
ENDBRANCH  10  11
ENDBRANCH   2   5
BRANCH   1  17
ATOM     17  C   UNL     1       1.817   8.679  19.671  0.00  0.00    +0.000 C 
BRANCH  17  21
ATOM     18  C   UNL     1      -0.813  10.655  22.507  0.00  0.00    +0.000 A 
ATOM     19  C   UNL     1      -0.840  10.989  21.147  0.00  0.00    +0.000 A 
ATOM     20  C   UNL     1       0.004  10.360  20.225  0.00  0.00    +0.000 A 
ATOM     21  C   UNL     1       0.909   9.383  20.651  0.00  0.00    +0.000 A 
ATOM     22  C   UNL     1       0.960   9.066  22.017  0.00  0.00    +0.000 A 
ATOM     23  C   UNL     1       0.096   9.681  22.934  0.00  0.00    +0.000 A 
BRANCH  18  25
ATOM     24  C   UNL     1      -2.530  12.321  22.587  0.00  0.00    +0.000 C 
ATOM     25  O   UNL     1      -1.722  11.359  23.249  0.00  0.00    +0.000 OA
ENDBRANCH  18  25
BRANCH  23  26
ATOM     26  O   UNL     1       0.163   9.291  24.242  0.00  0.00    +0.000 OA
ATOM     27  H   UNL     1      -0.718   9.010  24.537  0.00  0.00    +0.000 HD
ENDBRANCH  23  26
ENDBRANCH  17  21
ENDBRANCH   1  17
TORSDOF 6
ENDMDL
MODEL 2
REMARK VINA RESULT:      -7.3      1.725      2.302
REMARK  Name = 
REMARK  7 active torsions:
REMARK  status: ('A' for Active; 'I' for Inactive)
REMARK    1  A    between atoms: C_1  and  O_2
REMARK    2  A    between atoms: O_2  and  C_3
REMARK    3  A    between atoms: C_6  and  C_7
REMARK    4  A    between atoms: C_7  and  N_8
REMARK    5  A    between atoms: C_9  and  C_11
REMARK    6  A    between atoms: C_16  and  N_17
REMARK    7  A    between atoms: C_24  and  O_25
REMARK                            x       y       z     vdW  Elec       q    Type
REMARK                         _______ _______ _______ _____ _____    ______ ____
ROOT
ATOM      1  N   UNL     1       2.066   7.136  18.138  0.00  0.00    +0.000 N 
ATOM      2  C   UNL     1       3.153   6.413  17.677  0.00  0.00    +0.000 C 
ATOM      3  O   UNL     1       4.137   6.948  17.184  0.00  0.00    +0.000 OA
ATOM      4  H   UNL     1       1.211   6.659  18.394  0.00  0.00    +0.000 HD
ENDROOT
BRANCH   2   5
ATOM      5  C   UNL     1       3.050   4.932  17.829  0.00  0.00    +0.000 A 
ATOM      6  C   UNL     1       1.893   4.469  18.468  0.00  0.00    +0.000 A 
ATOM      7  N   UNL     1       1.620   3.176  18.747  0.00  0.00    +0.000 NA
ATOM      8  C   UNL     1       2.566   2.292  18.392  0.00  0.00    +0.000 A 
ATOM      9  C   UNL     1       3.763   2.650  17.783  0.00  0.00    +0.000 A 
ATOM     10  C   UNL     1       4.054   3.995  17.490  0.00  0.00    +0.000 A 
BRANCH  10  11
ATOM     11  N   UNL     1       5.283   4.310  16.933  0.00  0.00    +0.000 N 
ATOM     12  C   UNL     1       6.464   4.643  17.752  0.00  0.00    +0.000 C 
ATOM     13  C   UNL     1       7.250   5.779  17.072  0.00  0.00    +0.000 C 
ATOM     14  O   UNL     1       7.608   5.445  15.719  0.00  0.00    +0.000 OA
ATOM     15  C   UNL     1       6.420   5.187  14.946  0.00  0.00    +0.000 C 
ATOM     16  C   UNL     1       5.630   4.005  15.534  0.00  0.00    +0.000 C 
ENDBRANCH  10  11
ENDBRANCH   2   5
BRANCH   1  17
ATOM     17  C   UNL     1       2.004   8.582  18.054  0.00  0.00    +0.000 C 
BRANCH  17  21
ATOM     18  C   UNL     1       0.451  10.296  21.729  0.00  0.00    +0.000 A 
ATOM     19  C   UNL     1       0.876   8.962  21.681  0.00  0.00    +0.000 A 
ATOM     20  C   UNL     1       1.377   8.399  20.502  0.00  0.00    +0.000 A 
ATOM     21  C   UNL     1       1.451   9.163  19.333  0.00  0.00    +0.000 A 
ATOM     22  C   UNL     1       0.998  10.490  19.370  0.00  0.00    +0.000 A 
ATOM     23  C   UNL     1       0.521  11.058  20.559  0.00  0.00    +0.000 A 
BRANCH  18  25
ATOM     24  C   UNL     1      -1.357  11.014  23.126  0.00  0.00    +0.000 C 
ATOM     25  O   UNL     1       0.013  10.673  22.970  0.00  0.00    +0.000 OA
ENDBRANCH  18  25
BRANCH  23  26
ATOM     26  O   UNL     1       0.141  12.372  20.538  0.00  0.00    +0.000 OA
ATOM     27  H   UNL     1       0.211  12.738  21.434  0.00  0.00    +0.000 HD
ENDBRANCH  23  26
ENDBRANCH  17  21
ENDBRANCH   1  17
TORSDOF 6
ENDMDL
MODEL 3
REMARK VINA RESULT:      -7.3      1.008      1.088
REMARK  Name = 
REMARK  7 active torsions:
REMARK  status: ('A' for Active; 'I' for Inactive)
REMARK    1  A    between atoms: C_1  and  O_2
REMARK    2  A    between atoms: O_2  and  C_3
REMARK    3  A    between atoms: C_6  and  C_7
REMARK    4  A    between atoms: C_7  and  N_8
REMARK    5  A    between atoms: C_9  and  C_11
REMARK    6  A    between atoms: C_16  and  N_17
REMARK    7  A    between atoms: C_24  and  O_25
REMARK                            x       y       z     vdW  Elec       q    Type
REMARK                         _______ _______ _______ _____ _____    ______ ____
ROOT
ATOM      1  N   UNL     1       2.093   7.508  19.186  0.00  0.00    +0.000 N 
ATOM      2  C   UNL     1       3.030   6.743  18.510  0.00  0.00    +0.000 C 
ATOM      3  O   UNL     1       3.654   7.166  17.547  0.00  0.00    +0.000 OA
ATOM      4  H   UNL     1       1.488   7.079  19.873  0.00  0.00    +0.000 HD
ENDROOT
BRANCH   2   5
ATOM      5  C   UNL     1       3.235   5.363  19.042  0.00  0.00    +0.000 A 
ATOM      6  C   UNL     1       2.245   4.899  19.917  0.00  0.00    +0.000 A 
ATOM      7  N   UNL     1       2.257   3.703  20.545  0.00  0.00    +0.000 NA
ATOM      8  C   UNL     1       3.330   2.933  20.308  0.00  0.00    +0.000 A 
ATOM      9  C   UNL     1       4.382   3.312  19.484  0.00  0.00    +0.000 A 
ATOM     10  C   UNL     1       4.377   4.557  18.827  0.00  0.00    +0.000 A 
BRANCH  10  11
ATOM     11  N   UNL     1       5.473   4.915  18.059  0.00  0.00    +0.000 N 
ATOM     12  C   UNL     1       6.651   5.599  18.626  0.00  0.00    +0.000 C 
ATOM     13  C   UNL     1       7.158   6.653  17.625  0.00  0.00    +0.000 C 
ATOM     14  O   UNL     1       7.437   6.076  16.337  0.00  0.00    +0.000 OA
ATOM     15  C   UNL     1       6.243   5.474  15.799  0.00  0.00    +0.000 C 
ATOM     16  C   UNL     1       5.732   4.354  16.722  0.00  0.00    +0.000 C 
ENDBRANCH  10  11
ENDBRANCH   2   5
BRANCH   1  17
ATOM     17  C   UNL     1       1.769   8.864  18.789  0.00  0.00    +0.000 C 
BRANCH  17  21
ATOM     18  C   UNL     1      -0.619  10.767  21.878  0.00  0.00    +0.000 A 
ATOM     19  C   UNL     1      -0.843  11.043  20.523  0.00  0.00    +0.000 A 
ATOM     20  C   UNL     1      -0.078  10.437  19.520  0.00  0.00    +0.000 A 
ATOM     21  C   UNL     1       0.943   9.543  19.856  0.00  0.00    +0.000 A 
ATOM     22  C   UNL     1       1.189   9.286  21.213  0.00  0.00    +0.000 A 
ATOM     23  C   UNL     1       0.405   9.876  22.214  0.00  0.00    +0.000 A 
BRANCH  18  25
ATOM     24  C   UNL     1      -1.202  12.800  23.002  0.00  0.00    +0.000 C 
ATOM     25  O   UNL     1      -1.476  11.437  22.709  0.00  0.00    +0.000 OA
ENDBRANCH  18  25
BRANCH  23  26
ATOM     26  O   UNL     1       0.667   9.544  23.514  0.00  0.00    +0.000 OA
ATOM     27  H   UNL     1       1.610   9.331  23.605  0.00  0.00    +0.000 HD
ENDBRANCH  23  26
ENDBRANCH  17  21
ENDBRANCH   1  17
TORSDOF 6
ENDMDL
MODEL 4
REMARK VINA RESULT:      -7.3      1.176      1.647
REMARK  Name = 
REMARK  7 active torsions:
REMARK  status: ('A' for Active; 'I' for Inactive)
REMARK    1  A    between atoms: C_1  and  O_2
REMARK    2  A    between atoms: O_2  and  C_3
REMARK    3  A    between atoms: C_6  and  C_7
REMARK    4  A    between atoms: C_7  and  N_8
REMARK    5  A    between atoms: C_9  and  C_11
REMARK    6  A    between atoms: C_16  and  N_17
REMARK    7  A    between atoms: C_24  and  O_25
REMARK                            x       y       z     vdW  Elec       q    Type
REMARK                         _______ _______ _______ _____ _____    ______ ____
ROOT
ATOM      1  N   UNL     1       2.167   7.298  19.321  0.00  0.00    +0.000 N 
ATOM      2  C   UNL     1       3.070   6.555  18.579  0.00  0.00    +0.000 C 
ATOM      3  O   UNL     1       3.625   7.000  17.584  0.00  0.00    +0.000 OA
ATOM      4  H   UNL     1       1.613   6.852  20.041  0.00  0.00    +0.000 HD
ENDROOT
BRANCH   2   5
ATOM      5  C   UNL     1       3.330   5.174  19.081  0.00  0.00    +0.000 A 
ATOM      6  C   UNL     1       2.381   4.667  19.976  0.00  0.00    +0.000 A 
ATOM      7  N   UNL     1       2.445   3.462  20.583  0.00  0.00    +0.000 NA
ATOM      8  C   UNL     1       3.533   2.727  20.302  0.00  0.00    +0.000 A 
ATOM      9  C   UNL     1       4.548   3.151  19.454  0.00  0.00    +0.000 A 
ATOM     10  C   UNL     1       4.489   4.405  18.819  0.00  0.00    +0.000 A 
BRANCH  10  11
ATOM     11  N   UNL     1       5.551   4.808  18.026  0.00  0.00    +0.000 N 
ATOM     12  C   UNL     1       6.738   5.491  18.574  0.00  0.00    +0.000 C 
ATOM     13  C   UNL     1       7.192   6.588  17.594  0.00  0.00    +0.000 C 
ATOM     14  O   UNL     1       7.434   6.060  16.278  0.00  0.00    +0.000 OA
ATOM     15  C   UNL     1       6.231   5.456  15.761  0.00  0.00    +0.000 C 
ATOM     16  C   UNL     1       5.770   4.297  16.661  0.00  0.00    +0.000 C 
ENDBRANCH  10  11
ENDBRANCH   2   5
BRANCH   1  17
ATOM     17  C   UNL     1       1.796   8.652  18.962  0.00  0.00    +0.000 C 
BRANCH  17  21
ATOM     18  C   UNL     1      -0.256  10.612  22.250  0.00  0.00    +0.000 A 
ATOM     19  C   UNL     1      -0.089   9.221  22.233  0.00  0.00    +0.000 A 
ATOM     20  C   UNL     1       0.569   8.579  21.177  0.00  0.00    +0.000 A 
ATOM     21  C   UNL     1       1.067   9.322  20.103  0.00  0.00    +0.000 A 
ATOM     22  C   UNL     1       0.877  10.712  20.102  0.00  0.00    +0.000 A 
ATOM     23  C   UNL     1       0.239  11.354  21.173  0.00  0.00    +0.000 A 
BRANCH  18  25
ATOM     24  C   UNL     1      -2.171  11.680  23.211  0.00  0.00    +0.000 C 
ATOM     25  O   UNL     1      -0.904  11.058  23.370  0.00  0.00    +0.000 OA
ENDBRANCH  18  25
BRANCH  23  26
ATOM     26  O   UNL     1       0.130  12.716  21.133  0.00  0.00    +0.000 OA
ATOM     27  H   UNL     1       0.855  13.078  20.599  0.00  0.00    +0.000 HD
ENDBRANCH  23  26
ENDBRANCH  17  21
ENDBRANCH   1  17
TORSDOF 6
ENDMDL
MODEL 5
REMARK VINA RESULT:      -7.2      1.496      2.381
REMARK  Name = 
REMARK  7 active torsions:
REMARK  status: ('A' for Active; 'I' for Inactive)
REMARK    1  A    between atoms: C_1  and  O_2
REMARK    2  A    between atoms: O_2  and  C_3
REMARK    3  A    between atoms: C_6  and  C_7
REMARK    4  A    between atoms: C_7  and  N_8
REMARK    5  A    between atoms: C_9  and  C_11
REMARK    6  A    between atoms: C_16  and  N_17
REMARK    7  A    between atoms: C_24  and  O_25
REMARK                            x       y       z     vdW  Elec       q    Type
REMARK                         _______ _______ _______ _____ _____    ______ ____
ROOT
ATOM      1  N   UNL     1       3.013   6.718  18.710  0.00  0.00    +0.000 N 
ATOM      2  C   UNL     1       2.476   5.486  18.378  0.00  0.00    +0.000 C 
ATOM      3  O   UNL     1       1.595   5.357  17.538  0.00  0.00    +0.000 OA
ATOM      4  H   UNL     1       3.623   6.806  19.513  0.00  0.00    +0.000 HD
ENDROOT
BRANCH   2   5
ATOM      5  C   UNL     1       3.049   4.317  19.109  0.00  0.00    +0.000 A 
ATOM      6  C   UNL     1       2.259   3.805  20.145  0.00  0.00    +0.000 A 
ATOM      7  N   UNL     1       2.605   2.784  20.959  0.00  0.00    +0.000 NA
ATOM      8  C   UNL     1       3.821   2.258  20.747  0.00  0.00    +0.000 A 
ATOM      9  C   UNL     1       4.696   2.714  19.768  0.00  0.00    +0.000 A 
ATOM     10  C   UNL     1       4.343   3.778  18.917  0.00  0.00    +0.000 A 
BRANCH  10  11
ATOM     11  N   UNL     1       5.268   4.235  17.993  0.00  0.00    +0.000 N 
ATOM     12  C   UNL     1       5.007   4.236  16.541  0.00  0.00    +0.000 C 
ATOM     13  C   UNL     1       6.293   3.841  15.792  0.00  0.00    +0.000 C 
ATOM     14  O   UNL     1       7.397   4.694  16.143  0.00  0.00    +0.000 OA
ATOM     15  C   UNL     1       7.651   4.613  17.559  0.00  0.00    +0.000 C 
ATOM     16  C   UNL     1       6.422   5.073  18.362  0.00  0.00    +0.000 C 
ENDBRANCH  10  11
ENDBRANCH   2   5
BRANCH   1  17
ATOM     17  C   UNL     1       2.559   7.952  18.101  0.00  0.00    +0.000 C 
BRANCH  17  21
ATOM     18  C   UNL     1      -0.039  10.158  20.793  0.00  0.00    +0.000 A 
ATOM     19  C   UNL     1       0.712   9.069  21.251  0.00  0.00    +0.000 A 
ATOM     20  C   UNL     1       1.551   8.350  20.392  0.00  0.00    +0.000 A 
ATOM     21  C   UNL     1       1.647   8.703  19.042  0.00  0.00    +0.000 A 
ATOM     22  C   UNL     1       0.874   9.775  18.573  0.00  0.00    +0.000 A 
ATOM     23  C   UNL     1       0.053  10.509  19.442  0.00  0.00    +0.000 A 
BRANCH  18  25
ATOM     24  C   UNL     1      -0.757  10.171  23.077  0.00  0.00    +0.000 C 
ATOM     25  O   UNL     1      -0.782  10.748  21.779  0.00  0.00    +0.000 OA
ENDBRANCH  18  25
BRANCH  23  26
ATOM     26  O   UNL     1      -0.636  11.573  18.930  0.00  0.00    +0.000 OA
ATOM     27  H   UNL     1      -0.242  12.396  19.261  0.00  0.00    +0.000 HD
ENDBRANCH  23  26
ENDBRANCH  17  21
ENDBRANCH   1  17
TORSDOF 6
ENDMDL
MODEL 6
REMARK VINA RESULT:      -7.1      1.367      1.978
REMARK  Name = 
REMARK  7 active torsions:
REMARK  status: ('A' for Active; 'I' for Inactive)
REMARK    1  A    between atoms: C_1  and  O_2
REMARK    2  A    between atoms: O_2  and  C_3
REMARK    3  A    between atoms: C_6  and  C_7
REMARK    4  A    between atoms: C_7  and  N_8
REMARK    5  A    between atoms: C_9  and  C_11
REMARK    6  A    between atoms: C_16  and  N_17
REMARK    7  A    between atoms: C_24  and  O_25
REMARK                            x       y       z     vdW  Elec       q    Type
REMARK                         _______ _______ _______ _____ _____    ______ ____
ROOT
ATOM      1  N   UNL     1       3.036   6.684  18.466  0.00  0.00    +0.000 N 
ATOM      2  C   UNL     1       2.407   5.468  18.262  0.00  0.00    +0.000 C 
ATOM      3  O   UNL     1       1.456   5.339  17.503  0.00  0.00    +0.000 OA
ATOM      4  H   UNL     1       3.713   6.786  19.211  0.00  0.00    +0.000 HD
ENDROOT
BRANCH   2   5
ATOM      5  C   UNL     1       2.973   4.316  19.024  0.00  0.00    +0.000 A 
ATOM      6  C   UNL     1       2.164   3.814  20.049  0.00  0.00    +0.000 A 
ATOM      7  N   UNL     1       2.499   2.808  20.887  0.00  0.00    +0.000 NA
ATOM      8  C   UNL     1       3.724   2.289  20.711  0.00  0.00    +0.000 A 
ATOM      9  C   UNL     1       4.617   2.737  19.745  0.00  0.00    +0.000 A 
ATOM     10  C   UNL     1       4.275   3.784  18.869  0.00  0.00    +0.000 A 
BRANCH  10  11
ATOM     11  N   UNL     1       5.217   4.234  17.959  0.00  0.00    +0.000 N 
ATOM     12  C   UNL     1       4.984   4.224  16.503  0.00  0.00    +0.000 C 
ATOM     13  C   UNL     1       6.284   3.824  15.782  0.00  0.00    +0.000 C 
ATOM     14  O   UNL     1       7.381   4.680  16.146  0.00  0.00    +0.000 OA
ATOM     15  C   UNL     1       7.608   4.611  17.567  0.00  0.00    +0.000 C 
ATOM     16  C   UNL     1       6.364   5.076  18.344  0.00  0.00    +0.000 C 
ENDBRANCH  10  11
ENDBRANCH   2   5
BRANCH   1  17
ATOM     17  C   UNL     1       2.602   7.902  17.811  0.00  0.00    +0.000 C 
BRANCH  17  21
ATOM     18  C   UNL     1       0.017  10.169  20.465  0.00  0.00    +0.000 A 
ATOM     19  C   UNL     1       0.053  10.440  19.092  0.00  0.00    +0.000 A 
ATOM     20  C   UNL     1       0.884   9.717  18.228  0.00  0.00    +0.000 A 
ATOM     21  C   UNL     1       1.711   8.707  18.727  0.00  0.00    +0.000 A 
ATOM     22  C   UNL     1       1.700   8.452  20.107  0.00  0.00    +0.000 A 
ATOM     23  C   UNL     1       0.848   9.161  20.966  0.00  0.00    +0.000 A 
BRANCH  18  25
ATOM     24  C   UNL     1      -0.376  12.144  21.761  0.00  0.00    +0.000 C 
ATOM     25  O   UNL     1      -0.867  10.962  21.144  0.00  0.00    +0.000 OA
ENDBRANCH  18  25
BRANCH  23  26
ATOM     26  O   UNL     1       0.850   8.829  22.292  0.00  0.00    +0.000 OA
ATOM     27  H   UNL     1      -0.046   8.563  22.555  0.00  0.00    +0.000 HD
ENDBRANCH  23  26
ENDBRANCH  17  21
ENDBRANCH   1  17
TORSDOF 6
ENDMDL
MODEL 7
REMARK VINA RESULT:      -7.0      1.607      2.275
REMARK  Name = 
REMARK  7 active torsions:
REMARK  status: ('A' for Active; 'I' for Inactive)
REMARK    1  A    between atoms: C_1  and  O_2
REMARK    2  A    between atoms: O_2  and  C_3
REMARK    3  A    between atoms: C_6  and  C_7
REMARK    4  A    between atoms: C_7  and  N_8
REMARK    5  A    between atoms: C_9  and  C_11
REMARK    6  A    between atoms: C_16  and  N_17
REMARK    7  A    between atoms: C_24  and  O_25
REMARK                            x       y       z     vdW  Elec       q    Type
REMARK                         _______ _______ _______ _____ _____    ______ ____
ROOT
ATOM      1  N   UNL     1       2.098   7.418  18.371  0.00  0.00    +0.000 N 
ATOM      2  C   UNL     1       3.285   6.747  18.130  0.00  0.00    +0.000 C 
ATOM      3  O   UNL     1       4.217   7.257  17.525  0.00  0.00    +0.000 OA
ATOM      4  H   UNL     1       1.297   6.918  18.735  0.00  0.00    +0.000 HD
ENDROOT
BRANCH   2   5
ATOM      5  C   UNL     1       3.356   5.356  18.669  0.00  0.00    +0.000 A 
ATOM      6  C   UNL     1       2.431   5.049  19.673  0.00  0.00    +0.000 A 
ATOM      7  N   UNL     1       2.352   3.869  20.326  0.00  0.00    +0.000 NA
ATOM      8  C   UNL     1       3.263   2.948  19.977  0.00  0.00    +0.000 A 
ATOM      9  C   UNL     1       4.245   3.164  19.017  0.00  0.00    +0.000 A 
ATOM     10  C   UNL     1       4.334   4.391  18.333  0.00  0.00    +0.000 A 
BRANCH  10  11
ATOM     11  N   UNL     1       5.363   4.580  17.424  0.00  0.00    +0.000 N 
ATOM     12  C   UNL     1       6.748   4.871  17.841  0.00  0.00    +0.000 C 
ATOM     13  C   UNL     1       7.362   5.903  16.878  0.00  0.00    +0.000 C 
ATOM     14  O   UNL     1       7.291   5.465  15.509  0.00  0.00    +0.000 OA
ATOM     15  C   UNL     1       5.917   5.251  15.132  0.00  0.00    +0.000 C 
ATOM     16  C   UNL     1       5.269   4.168  16.013  0.00  0.00    +0.000 C 
ENDBRANCH  10  11
ENDBRANCH   2   5
BRANCH   1  17
ATOM     17  C   UNL     1       1.863   8.771  17.906  0.00  0.00    +0.000 C 
BRANCH  17  21
ATOM     18  C   UNL     1      -0.747  10.936  20.619  0.00  0.00    +0.000 A 
ATOM     19  C   UNL     1       0.180  10.004  21.103  0.00  0.00    +0.000 A 
ATOM     20  C   UNL     1       1.024   9.299  20.238  0.00  0.00    +0.000 A 
ATOM     21  C   UNL     1       0.950   9.507  18.857  0.00  0.00    +0.000 A 
ATOM     22  C   UNL     1       0.003  10.418  18.366  0.00  0.00    +0.000 A 
ATOM     23  C   UNL     1      -0.824  11.140  19.238  0.00  0.00    +0.000 A 
BRANCH  18  25
ATOM     24  C   UNL     1      -1.123  11.254  22.963  0.00  0.00    +0.000 C 
ATOM     25  O   UNL     1      -1.468  11.538  21.614  0.00  0.00    +0.000 OA
ENDBRANCH  18  25
BRANCH  23  26
ATOM     26  O   UNL     1      -1.691  12.049  18.697  0.00  0.00    +0.000 OA
ATOM     27  H   UNL     1      -1.193  12.677  18.149  0.00  0.00    +0.000 HD
ENDBRANCH  23  26
ENDBRANCH  17  21
ENDBRANCH   1  17
TORSDOF 6
ENDMDL
MODEL 8
REMARK VINA RESULT:      -7.0      1.048      1.793
REMARK  Name = 
REMARK  7 active torsions:
REMARK  status: ('A' for Active; 'I' for Inactive)
REMARK    1  A    between atoms: C_1  and  O_2
REMARK    2  A    between atoms: O_2  and  C_3
REMARK    3  A    between atoms: C_6  and  C_7
REMARK    4  A    between atoms: C_7  and  N_8
REMARK    5  A    between atoms: C_9  and  C_11
REMARK    6  A    between atoms: C_16  and  N_17
REMARK    7  A    between atoms: C_24  and  O_25
REMARK                            x       y       z     vdW  Elec       q    Type
REMARK                         _______ _______ _______ _____ _____    ______ ____
ROOT
ATOM      1  N   UNL     1       2.062   7.371  19.582  0.00  0.00    +0.000 N 
ATOM      2  C   UNL     1       2.755   6.505  18.752  0.00  0.00    +0.000 C 
ATOM      3  O   UNL     1       3.154   6.834  17.644  0.00  0.00    +0.000 OA
ATOM      4  H   UNL     1       1.615   7.022  20.419  0.00  0.00    +0.000 HD
ENDROOT
BRANCH   2   5
ATOM      5  C   UNL     1       2.994   5.139  19.306  0.00  0.00    +0.000 A 
ATOM      6  C   UNL     1       2.102   4.728  20.304  0.00  0.00    +0.000 A 
ATOM      7  N   UNL     1       2.163   3.553  20.968  0.00  0.00    +0.000 NA
ATOM      8  C   UNL     1       3.187   2.751  20.638  0.00  0.00    +0.000 A 
ATOM      9  C   UNL     1       4.145   3.079  19.687  0.00  0.00    +0.000 A 
ATOM     10  C   UNL     1       4.089   4.301  18.991  0.00  0.00    +0.000 A 
BRANCH  10  11
ATOM     11  N   UNL     1       5.096   4.608  18.091  0.00  0.00    +0.000 N 
ATOM     12  C   UNL     1       4.930   4.464  16.633  0.00  0.00    +0.000 C 
ATOM     13  C   UNL     1       6.237   3.928  16.022  0.00  0.00    +0.000 C 
ATOM     14  O   UNL     1       7.363   4.759  16.357  0.00  0.00    +0.000 OA
ATOM     15  C   UNL     1       7.520   4.821  17.788  0.00  0.00    +0.000 C 
ATOM     16  C   UNL     1       6.269   5.425  18.450  0.00  0.00    +0.000 C 
ENDBRANCH  10  11
ENDBRANCH   2   5
BRANCH   1  17
ATOM     17  C   UNL     1       1.739   8.728  19.189  0.00  0.00    +0.000 C 
BRANCH  17  21
ATOM     18  C   UNL     1      -0.404  10.779  22.362  0.00  0.00    +0.000 A 
ATOM     19  C   UNL     1      -0.286   9.383  22.359  0.00  0.00    +0.000 A 
ATOM     20  C   UNL     1       0.400   8.712  21.341  0.00  0.00    +0.000 A 
ATOM     21  C   UNL     1       0.978   9.430  20.289  0.00  0.00    +0.000 A 
ATOM     22  C   UNL     1       0.838  10.826  20.273  0.00  0.00    +0.000 A 
ATOM     23  C   UNL     1       0.170  11.496  21.308  0.00  0.00    +0.000 A 
BRANCH  18  25
ATOM     24  C   UNL     1      -2.401  11.765  23.242  0.00  0.00    +0.000 C 
ATOM     25  O   UNL     1      -1.091  11.255  23.446  0.00  0.00    +0.000 OA
ENDBRANCH  18  25
BRANCH  23  26
ATOM     26  O   UNL     1       0.112  12.861  21.256  0.00  0.00    +0.000 OA
ATOM     27  H   UNL     1       0.429  13.161  20.389  0.00  0.00    +0.000 HD
ENDBRANCH  23  26
ENDBRANCH  17  21
ENDBRANCH   1  17
TORSDOF 6
ENDMDL
MODEL 9
REMARK VINA RESULT:      -7.0      1.389      1.978
REMARK  Name = 
REMARK  7 active torsions:
REMARK  status: ('A' for Active; 'I' for Inactive)
REMARK    1  A    between atoms: C_1  and  O_2
REMARK    2  A    between atoms: O_2  and  C_3
REMARK    3  A    between atoms: C_6  and  C_7
REMARK    4  A    between atoms: C_7  and  N_8
REMARK    5  A    between atoms: C_9  and  C_11
REMARK    6  A    between atoms: C_16  and  N_17
REMARK    7  A    between atoms: C_24  and  O_25
REMARK                            x       y       z     vdW  Elec       q    Type
REMARK                         _______ _______ _______ _____ _____    ______ ____
ROOT
ATOM      1  N   UNL     1       2.705   6.669  18.844  0.00  0.00    +0.000 N 
ATOM      2  C   UNL     1       2.337   5.405  18.413  0.00  0.00    +0.000 C 
ATOM      3  O   UNL     1       1.477   5.226  17.561  0.00  0.00    +0.000 OA
ATOM      4  H   UNL     1       3.302   6.774  19.653  0.00  0.00    +0.000 HD
ENDROOT
BRANCH   2   5
ATOM      5  C   UNL     1       3.067   4.271  19.052  0.00  0.00    +0.000 A 
ATOM      6  C   UNL     1       2.377   3.607  20.073  0.00  0.00    +0.000 A 
ATOM      7  N   UNL     1       2.867   2.587  20.811  0.00  0.00    +0.000 NA
ATOM      8  C   UNL     1       4.128   2.222  20.533  0.00  0.00    +0.000 A 
ATOM      9  C   UNL     1       4.910   2.837  19.563  0.00  0.00    +0.000 A 
ATOM     10  C   UNL     1       4.407   3.901  18.791  0.00  0.00    +0.000 A 
BRANCH  10  11
ATOM     11  N   UNL     1       5.241   4.519  17.875  0.00  0.00    +0.000 N 
ATOM     12  C   UNL     1       6.459   5.249  18.275  0.00  0.00    +0.000 C 
ATOM     13  C   UNL     1       6.607   6.509  17.403  0.00  0.00    +0.000 C 
ATOM     14  O   UNL     1       6.606   6.190  16.000  0.00  0.00    +0.000 OA
ATOM     15  C   UNL     1       5.373   5.533  15.646  0.00  0.00    +0.000 C 
ATOM     16  C   UNL     1       5.207   4.221  16.432  0.00  0.00    +0.000 C 
ENDBRANCH  10  11
ENDBRANCH   2   5
BRANCH   1  17
ATOM     17  C   UNL     1       2.085   7.874  18.331  0.00  0.00    +0.000 C 
BRANCH  17  21
ATOM     18  C   UNL     1       0.553  10.323  21.575  0.00  0.00    +0.000 A 
ATOM     19  C   UNL     1       1.003   9.017  21.809  0.00  0.00    +0.000 A 
ATOM     20  C   UNL     1       1.497   8.219  20.772  0.00  0.00    +0.000 A 
ATOM     21  C   UNL     1       1.540   8.711  19.464  0.00  0.00    +0.000 A 
ATOM     22  C   UNL     1       1.063  10.008  19.219  0.00  0.00    +0.000 A 
ATOM     23  C   UNL     1       0.592  10.813  20.266  0.00  0.00    +0.000 A 
BRANCH  18  25
ATOM     24  C   UNL     1      -1.240  10.829  23.079  0.00  0.00    +0.000 C 
ATOM     25  O   UNL     1       0.127  10.954  22.712  0.00  0.00    +0.000 OA
ENDBRANCH  18  25
BRANCH  23  26
ATOM     26  O   UNL     1       0.188  12.085  19.967  0.00  0.00    +0.000 OA
ATOM     27  H   UNL     1       0.641  12.710  20.556  0.00  0.00    +0.000 HD
ENDBRANCH  23  26
ENDBRANCH  17  21
ENDBRANCH   1  17
TORSDOF 6
ENDMDL
