MODEL 1
REMARK VINA RESULT:      -7.9      0.000      0.000
REMARK  Name = 
REMARK  4 active torsions:
REMARK  status: ('A' for Active; 'I' for Inactive)
REMARK    1  A    between atoms: C_1  and  C_2
REMARK    2  A    between atoms: N_4  and  C_5
REMARK    3  A    between atoms: C_7  and  C_8
REMARK    4  A    between atoms: C_19  and  C_20
REMARK                            x       y       z     vdW  Elec       q    Type
REMARK                         _______ _______ _______ _____ _____    ______ ____
ROOT
ATOM      1  C   UNL     1       6.303   3.928  14.102  0.00  0.00    +0.000 A 
ATOM      2  C   UNL     1       5.416   3.708  15.164  0.00  0.00    +0.000 A 
ATOM      3  C   UNL     1       5.249   4.625  16.210  0.00  0.00    +0.000 A 
ATOM      4  C   UNL     1       6.053   5.765  16.217  0.00  0.00    +0.000 A 
ATOM      5  C   UNL     1       6.974   5.992  15.190  0.00  0.00    +0.000 A 
ATOM      6  C   UNL     1       7.103   5.088  14.117  0.00  0.00    +0.000 A 
ATOM      7  C   UNL     1       8.075   5.425  13.020  0.00  0.00    +0.000 C 
ENDROOT
BRANCH   3   8
ATOM      8  C   UNL     1       4.267   4.401  17.282  0.00  0.00    +0.000 A 
ATOM      9  N   UNL     1       3.242   3.577  17.191  0.00  0.00    +0.000 NA
ATOM     10  C   UNL     1       2.511   3.588  18.366  0.00  0.00    +0.000 A 
ATOM     11  C   UNL     1       1.341   2.847  18.615  0.00  0.00    +0.000 A 
ATOM     12  C   UNL     1       0.703   2.951  19.857  0.00  0.00    +0.000 A 
ATOM     13  C   UNL     1       1.216   3.785  20.846  0.00  0.00    +0.000 A 
ATOM     14  C   UNL     1       2.372   4.534  20.621  0.00  0.00    +0.000 A 
ATOM     15  C   UNL     1       3.004   4.419  19.373  0.00  0.00    +0.000 A 
ATOM     16  S   UNL     1       4.427   5.188  18.809  0.00  0.00    +0.000 S 
ENDBRANCH   3   8
BRANCH   1  20
ATOM     17  C   UNL     1       5.792   1.688  11.096  0.00  0.00    +0.000 C 
ATOM     18  C   UNL     1       5.461   2.823  12.030  0.00  0.00    +0.000 C 
ATOM     19  O   UNL     1       4.461   3.503  11.830  0.00  0.00    +0.000 OA
ATOM     20  N   UNL     1       6.401   2.992  13.041  0.00  0.00    +0.000 N 
ATOM     21  H   UNL     1       7.272   2.488  12.951  0.00  0.00    +0.000 HD
ENDBRANCH   1  20
TORSDOF 2
ENDMDL
MODEL 2
REMARK VINA RESULT:      -7.6      1.024      1.206
REMARK  Name = 
REMARK  4 active torsions:
REMARK  status: ('A' for Active; 'I' for Inactive)
REMARK    1  A    between atoms: C_1  and  C_2
REMARK    2  A    between atoms: N_4  and  C_5
REMARK    3  A    between atoms: C_7  and  C_8
REMARK    4  A    between atoms: C_19  and  C_20
REMARK                            x       y       z     vdW  Elec       q    Type
REMARK                         _______ _______ _______ _____ _____    ______ ____
ROOT
ATOM      1  C   UNL     1       6.263   3.910  14.394  0.00  0.00    +0.000 A 
ATOM      2  C   UNL     1       5.429   3.615  15.479  0.00  0.00    +0.000 A 
ATOM      3  C   UNL     1       5.272   4.482  16.568  0.00  0.00    +0.000 A 
ATOM      4  C   UNL     1       6.036   5.650  16.592  0.00  0.00    +0.000 A 
ATOM      5  C   UNL     1       6.906   5.951  15.540  0.00  0.00    +0.000 A 
ATOM      6  C   UNL     1       7.023   5.097  14.426  0.00  0.00    +0.000 A 
ATOM      7  C   UNL     1       7.937   5.513  13.306  0.00  0.00    +0.000 C 
ENDROOT
BRANCH   3   8
ATOM      8  C   UNL     1       4.342   4.180  17.668  0.00  0.00    +0.000 A 
ATOM      9  N   UNL     1       4.623   3.383  18.680  0.00  0.00    +0.000 NA
ATOM     10  C   UNL     1       3.546   3.309  19.545  0.00  0.00    +0.000 A 
ATOM     11  C   UNL     1       3.483   2.536  20.719  0.00  0.00    +0.000 A 
ATOM     12  C   UNL     1       2.326   2.560  21.507  0.00  0.00    +0.000 A 
ATOM     13  C   UNL     1       1.236   3.341  21.137  0.00  0.00    +0.000 A 
ATOM     14  C   UNL     1       1.272   4.113  19.974  0.00  0.00    +0.000 A 
ATOM     15  C   UNL     1       2.438   4.083  19.194  0.00  0.00    +0.000 A 
ATOM     16  S   UNL     1       2.786   4.921  17.741  0.00  0.00    +0.000 S 
ENDBRANCH   3   8
BRANCH   1  20
ATOM     17  C   UNL     1       5.759   1.869  11.248  0.00  0.00    +0.000 C 
ATOM     18  C   UNL     1       5.463   2.980  12.221  0.00  0.00    +0.000 C 
ATOM     19  O   UNL     1       4.534   3.749  12.002  0.00  0.00    +0.000 OA
ATOM     20  N   UNL     1       6.351   3.022  13.291  0.00  0.00    +0.000 N 
ATOM     21  H   UNL     1       7.183   2.453  13.223  0.00  0.00    +0.000 HD
ENDBRANCH   1  20
TORSDOF 2
ENDMDL
MODEL 3
REMARK VINA RESULT:      -7.6      0.912      1.284
REMARK  Name = 
REMARK  4 active torsions:
REMARK  status: ('A' for Active; 'I' for Inactive)
REMARK    1  A    between atoms: C_1  and  C_2
REMARK    2  A    between atoms: N_4  and  C_5
REMARK    3  A    between atoms: C_7  and  C_8
REMARK    4  A    between atoms: C_19  and  C_20
REMARK                            x       y       z     vdW  Elec       q    Type
REMARK                         _______ _______ _______ _____ _____    ______ ____
ROOT
ATOM      1  C   UNL     1       6.308   3.905  14.129  0.00  0.00    +0.000 A 
ATOM      2  C   UNL     1       5.422   3.645  15.181  0.00  0.00    +0.000 A 
ATOM      3  C   UNL     1       5.229   4.538  16.243  0.00  0.00    +0.000 A 
ATOM      4  C   UNL     1       6.006   5.697  16.275  0.00  0.00    +0.000 A 
ATOM      5  C   UNL     1       6.926   5.964  15.257  0.00  0.00    +0.000 A 
ATOM      6  C   UNL     1       7.081   5.084  14.168  0.00  0.00    +0.000 A 
ATOM      7  C   UNL     1       8.049   5.463  13.082  0.00  0.00    +0.000 C 
ENDROOT
BRANCH   3   8
ATOM      8  C   UNL     1       4.248   4.272  17.307  0.00  0.00    +0.000 A 
ATOM      9  N   UNL     1       3.694   5.204  18.057  0.00  0.00    +0.000 NA
ATOM     10  C   UNL     1       2.813   4.634  18.959  0.00  0.00    +0.000 A 
ATOM     11  C   UNL     1       2.063   5.326  19.927  0.00  0.00    +0.000 A 
ATOM     12  C   UNL     1       1.201   4.619  20.775  0.00  0.00    +0.000 A 
ATOM     13  C   UNL     1       1.083   3.238  20.669  0.00  0.00    +0.000 A 
ATOM     14  C   UNL     1       1.821   2.528  19.719  0.00  0.00    +0.000 A 
ATOM     15  C   UNL     1       2.679   3.247  18.873  0.00  0.00    +0.000 A 
ATOM     16  S   UNL     1       3.690   2.669  17.617  0.00  0.00    +0.000 S 
ENDBRANCH   3   8
BRANCH   1  20
ATOM     17  C   UNL     1       5.863   1.711  11.079  0.00  0.00    +0.000 C 
ATOM     18  C   UNL     1       5.502   2.820  12.031  0.00  0.00    +0.000 C 
ATOM     19  O   UNL     1       4.488   3.482  11.838  0.00  0.00    +0.000 OA
ATOM     20  N   UNL     1       6.432   2.992  13.050  0.00  0.00    +0.000 N 
ATOM     21  H   UNL     1       7.315   2.509  12.956  0.00  0.00    +0.000 HD
ENDBRANCH   1  20
TORSDOF 2
ENDMDL
MODEL 4
REMARK VINA RESULT:      -7.5      4.415      5.781
REMARK  Name = 
REMARK  4 active torsions:
REMARK  status: ('A' for Active; 'I' for Inactive)
REMARK    1  A    between atoms: C_1  and  C_2
REMARK    2  A    between atoms: N_4  and  C_5
REMARK    3  A    between atoms: C_7  and  C_8
REMARK    4  A    between atoms: C_19  and  C_20
REMARK                            x       y       z     vdW  Elec       q    Type
REMARK                         _______ _______ _______ _____ _____    ______ ____
ROOT
ATOM      1  C   UNL     1       3.609   4.769  17.654  0.00  0.00    +0.000 A 
ATOM      2  C   UNL     1       2.849   5.675  18.405  0.00  0.00    +0.000 A 
ATOM      3  C   UNL     1       2.958   7.063  18.249  0.00  0.00    +0.000 A 
ATOM      4  C   UNL     1       3.912   7.550  17.355  0.00  0.00    +0.000 A 
ATOM      5  C   UNL     1       4.712   6.669  16.620  0.00  0.00    +0.000 A 
ATOM      6  C   UNL     1       4.564   5.274  16.748  0.00  0.00    +0.000 A 
ATOM      7  C   UNL     1       5.420   4.388  15.885  0.00  0.00    +0.000 C 
ENDROOT
BRANCH   3   8
ATOM      8  C   UNL     1       2.105   7.993  19.005  0.00  0.00    +0.000 A 
ATOM      9  N   UNL     1       1.803   7.854  20.281  0.00  0.00    +0.000 NA
ATOM     10  C   UNL     1       0.989   8.893  20.697  0.00  0.00    +0.000 A 
ATOM     11  C   UNL     1       0.456   9.055  21.989  0.00  0.00    +0.000 A 
ATOM     12  C   UNL     1      -0.352  10.162  22.274  0.00  0.00    +0.000 A 
ATOM     13  C   UNL     1      -0.635  11.102  21.289  0.00  0.00    +0.000 A 
ATOM     14  C   UNL     1      -0.122  10.961  19.998  0.00  0.00    +0.000 A 
ATOM     15  C   UNL     1       0.689   9.848  19.725  0.00  0.00    +0.000 A 
ATOM     16  S   UNL     1       1.467   9.413  18.262  0.00  0.00    +0.000 S 
ENDBRANCH   3   8
BRANCH   1  20
ATOM     17  C   UNL     1       3.746   1.116  18.627  0.00  0.00    +0.000 C 
ATOM     18  C   UNL     1       4.068   2.581  18.761  0.00  0.00    +0.000 C 
ATOM     19  O   UNL     1       4.804   2.962  19.664  0.00  0.00    +0.000 OA
ATOM     20  N   UNL     1       3.427   3.372  17.813  0.00  0.00    +0.000 N 
ATOM     21  H   UNL     1       2.695   2.937  17.269  0.00  0.00    +0.000 HD
ENDBRANCH   1  20
TORSDOF 2
ENDMDL
MODEL 5
REMARK VINA RESULT:      -7.4      4.707      6.816
REMARK  Name = 
REMARK  4 active torsions:
REMARK  status: ('A' for Active; 'I' for Inactive)
REMARK    1  A    between atoms: C_1  and  C_2
REMARK    2  A    between atoms: N_4  and  C_5
REMARK    3  A    between atoms: C_7  and  C_8
REMARK    4  A    between atoms: C_19  and  C_20
REMARK                            x       y       z     vdW  Elec       q    Type
REMARK                         _______ _______ _______ _____ _____    ______ ____
ROOT
ATOM      1  C   UNL     1       4.072   4.785  19.101  0.00  0.00    +0.000 A 
ATOM      2  C   UNL     1       3.460   6.041  19.180  0.00  0.00    +0.000 A 
ATOM      3  C   UNL     1       2.333   6.283  19.976  0.00  0.00    +0.000 A 
ATOM      4  C   UNL     1       1.770   5.205  20.660  0.00  0.00    +0.000 A 
ATOM      5  C   UNL     1       2.338   3.931  20.570  0.00  0.00    +0.000 A 
ATOM      6  C   UNL     1       3.498   3.705  19.803  0.00  0.00    +0.000 A 
ATOM      7  C   UNL     1       4.086   2.321  19.796  0.00  0.00    +0.000 C 
ENDROOT
BRANCH   3   8
ATOM      8  C   UNL     1       1.743   7.626  20.092  0.00  0.00    +0.000 A 
ATOM      9  N   UNL     1       1.224   8.117  21.200  0.00  0.00    +0.000 NA
ATOM     10  C   UNL     1       0.758   9.401  20.983  0.00  0.00    +0.000 A 
ATOM     11  C   UNL     1       0.124  10.220  21.937  0.00  0.00    +0.000 A 
ATOM     12  C   UNL     1      -0.293  11.508  21.581  0.00  0.00    +0.000 A 
ATOM     13  C   UNL     1      -0.090  11.984  20.290  0.00  0.00    +0.000 A 
ATOM     14  C   UNL     1       0.533  11.190  19.325  0.00  0.00    +0.000 A 
ATOM     15  C   UNL     1       0.950   9.901  19.694  0.00  0.00    +0.000 A 
ATOM     16  S   UNL     1       1.743   8.712  18.751  0.00  0.00    +0.000 S 
ENDBRANCH   3   8
BRANCH   1  20
ATOM     17  C   UNL     1       7.559   4.706  17.635  0.00  0.00    +0.000 C 
ATOM     18  C   UNL     1       6.533   4.926  18.716  0.00  0.00    +0.000 C 
ATOM     19  O   UNL     1       6.888   5.323  19.820  0.00  0.00    +0.000 OA
ATOM     20  N   UNL     1       5.241   4.601  18.318  0.00  0.00    +0.000 N 
ATOM     21  H   UNL     1       5.139   4.094  17.450  0.00  0.00    +0.000 HD
ENDBRANCH   1  20
TORSDOF 2
ENDMDL
MODEL 6
REMARK VINA RESULT:      -7.3      6.094      8.163
REMARK  Name = 
REMARK  4 active torsions:
REMARK  status: ('A' for Active; 'I' for Inactive)
REMARK    1  A    between atoms: C_1  and  C_2
REMARK    2  A    between atoms: N_4  and  C_5
REMARK    3  A    between atoms: C_7  and  C_8
REMARK    4  A    between atoms: C_19  and  C_20
REMARK                            x       y       z     vdW  Elec       q    Type
REMARK                         _______ _______ _______ _____ _____    ______ ____
ROOT
ATOM      1  C   UNL     1       2.533   6.315  19.788  0.00  0.00    +0.000 A 
ATOM      2  C   UNL     1       1.770   7.344  20.354  0.00  0.00    +0.000 A 
ATOM      3  C   UNL     1       1.470   8.527  19.667  0.00  0.00    +0.000 A 
ATOM      4  C   UNL     1       2.015   8.703  18.394  0.00  0.00    +0.000 A 
ATOM      5  C   UNL     1       2.812   7.708  17.819  0.00  0.00    +0.000 A 
ATOM      6  C   UNL     1       3.071   6.501  18.499  0.00  0.00    +0.000 A 
ATOM      7  C   UNL     1       3.891   5.454  17.797  0.00  0.00    +0.000 C 
ENDROOT
BRANCH   3   8
ATOM      8  C   UNL     1       0.614   9.568  20.258  0.00  0.00    +0.000 A 
ATOM      9  N   UNL     1       0.234   9.589  21.520  0.00  0.00    +0.000 NA
ATOM     10  C   UNL     1      -0.558  10.696  21.765  0.00  0.00    +0.000 A 
ATOM     11  C   UNL     1      -1.157  11.026  22.995  0.00  0.00    +0.000 A 
ATOM     12  C   UNL     1      -1.933  12.186  23.103  0.00  0.00    +0.000 A 
ATOM     13  C   UNL     1      -2.120  13.014  22.001  0.00  0.00    +0.000 A 
ATOM     14  C   UNL     1      -1.540  12.707  20.769  0.00  0.00    +0.000 A 
ATOM     15  C   UNL     1      -0.762  11.542  20.674  0.00  0.00    +0.000 A 
ATOM     16  S   UNL     1       0.079  10.914  19.320  0.00  0.00    +0.000 S 
ENDBRANCH   3   8
BRANCH   1  20
ATOM     17  C   UNL     1       2.344   2.999  21.599  0.00  0.00    +0.000 C 
ATOM     18  C   UNL     1       1.832   4.110  20.720  0.00  0.00    +0.000 C 
ATOM     19  O   UNL     1       0.702   4.041  20.251  0.00  0.00    +0.000 OA
ATOM     20  N   UNL     1       2.768   5.115  20.507  0.00  0.00    +0.000 N 
ATOM     21  H   UNL     1       3.720   4.928  20.790  0.00  0.00    +0.000 HD
ENDBRANCH   1  20
TORSDOF 2
ENDMDL
MODEL 7
REMARK VINA RESULT:      -7.3      4.574      6.130
REMARK  Name = 
REMARK  4 active torsions:
REMARK  status: ('A' for Active; 'I' for Inactive)
REMARK    1  A    between atoms: C_1  and  C_2
REMARK    2  A    between atoms: N_4  and  C_5
REMARK    3  A    between atoms: C_7  and  C_8
REMARK    4  A    between atoms: C_19  and  C_20
REMARK                            x       y       z     vdW  Elec       q    Type
REMARK                         _______ _______ _______ _____ _____    ______ ____
ROOT
ATOM      1  C   UNL     1       3.496   5.258  18.351  0.00  0.00    +0.000 A 
ATOM      2  C   UNL     1       2.724   6.107  19.153  0.00  0.00    +0.000 A 
ATOM      3  C   UNL     1       2.545   7.465  18.861  0.00  0.00    +0.000 A 
ATOM      4  C   UNL     1       3.222   7.995  17.762  0.00  0.00    +0.000 A 
ATOM      5  C   UNL     1       4.031   7.178  16.965  0.00  0.00    +0.000 A 
ATOM      6  C   UNL     1       4.169   5.804  17.238  0.00  0.00    +0.000 A 
ATOM      7  C   UNL     1       5.011   4.976  16.306  0.00  0.00    +0.000 C 
ENDROOT
BRANCH   3   8
ATOM      8  C   UNL     1       1.679   8.324  19.685  0.00  0.00    +0.000 A 
ATOM      9  N   UNL     1       1.398   8.098  20.953  0.00  0.00    +0.000 NA
ATOM     10  C   UNL     1       0.564   9.086  21.443  0.00  0.00    +0.000 A 
ATOM     11  C   UNL     1       0.045   9.154  22.749  0.00  0.00    +0.000 A 
ATOM     12  C   UNL     1      -0.787  10.219  23.113  0.00  0.00    +0.000 A 
ATOM     13  C   UNL     1      -1.108  11.211  22.193  0.00  0.00    +0.000 A 
ATOM     14  C   UNL     1      -0.609  11.164  20.889  0.00  0.00    +0.000 A 
ATOM     15  C   UNL     1       0.227  10.093  20.537  0.00  0.00    +0.000 A 
ATOM     16  S   UNL     1       0.995   9.770  19.040  0.00  0.00    +0.000 S 
ENDBRANCH   3   8
BRANCH   1  20
ATOM     17  C   UNL     1       3.139   1.505  18.671  0.00  0.00    +0.000 C 
ATOM     18  C   UNL     1       2.869   2.860  18.069  0.00  0.00    +0.000 C 
ATOM     19  O   UNL     1       2.087   2.964  17.132  0.00  0.00    +0.000 OA
ATOM     20  N   UNL     1       3.608   3.879  18.661  0.00  0.00    +0.000 N 
ATOM     21  H   UNL     1       4.359   3.605  19.280  0.00  0.00    +0.000 HD
ENDBRANCH   1  20
TORSDOF 2
ENDMDL
MODEL 8
REMARK VINA RESULT:      -7.2      4.835      6.860
REMARK  Name = 
REMARK  4 active torsions:
REMARK  status: ('A' for Active; 'I' for Inactive)
REMARK    1  A    between atoms: C_1  and  C_2
REMARK    2  A    between atoms: N_4  and  C_5
REMARK    3  A    between atoms: C_7  and  C_8
REMARK    4  A    between atoms: C_19  and  C_20
REMARK                            x       y       z     vdW  Elec       q    Type
REMARK                         _______ _______ _______ _____ _____    ______ ____
ROOT
ATOM      1  C   UNL     1       4.029   4.922  19.084  0.00  0.00    +0.000 A 
ATOM      2  C   UNL     1       3.440   6.191  19.129  0.00  0.00    +0.000 A 
ATOM      3  C   UNL     1       2.325   6.478  19.927  0.00  0.00    +0.000 A 
ATOM      4  C   UNL     1       1.748   5.432  20.648  0.00  0.00    +0.000 A 
ATOM      5  C   UNL     1       2.292   4.145  20.592  0.00  0.00    +0.000 A 
ATOM      6  C   UNL     1       3.441   3.875  19.824  0.00  0.00    +0.000 A 
ATOM      7  C   UNL     1       4.003   2.480  19.854  0.00  0.00    +0.000 C 
ENDROOT
BRANCH   3   8
ATOM      8  C   UNL     1       1.761   7.835  20.006  0.00  0.00    +0.000 A 
ATOM      9  N   UNL     1       1.685   8.668  18.987  0.00  0.00    +0.000 NA
ATOM     10  C   UNL     1       1.102   9.859  19.383  0.00  0.00    +0.000 A 
ATOM     11  C   UNL     1       0.882  10.981  18.564  0.00  0.00    +0.000 A 
ATOM     12  C   UNL     1       0.273  12.124  19.098  0.00  0.00    +0.000 A 
ATOM     13  C   UNL     1      -0.112  12.159  20.434  0.00  0.00    +0.000 A 
ATOM     14  C   UNL     1       0.100  11.060  21.268  0.00  0.00    +0.000 A 
ATOM     15  C   UNL     1       0.708   9.919  20.721  0.00  0.00    +0.000 A 
ATOM     16  S   UNL     1       1.083   8.428  21.477  0.00  0.00    +0.000 S 
ENDBRANCH   3   8
BRANCH   1  20
ATOM     17  C   UNL     1       7.508   4.693  17.616  0.00  0.00    +0.000 C 
ATOM     18  C   UNL     1       6.494   4.947  18.700  0.00  0.00    +0.000 C 
ATOM     19  O   UNL     1       6.868   5.307  19.810  0.00  0.00    +0.000 OA
ATOM     20  N   UNL     1       5.187   4.693  18.298  0.00  0.00    +0.000 N 
ATOM     21  H   UNL     1       5.060   4.206  17.421  0.00  0.00    +0.000 HD
ENDBRANCH   1  20
TORSDOF 2
ENDMDL
MODEL 9
REMARK VINA RESULT:      -7.2      6.317      8.380
REMARK  Name = 
REMARK  4 active torsions:
REMARK  status: ('A' for Active; 'I' for Inactive)
REMARK    1  A    between atoms: C_1  and  C_2
REMARK    2  A    between atoms: N_4  and  C_5
REMARK    3  A    between atoms: C_7  and  C_8
REMARK    4  A    between atoms: C_19  and  C_20
REMARK                            x       y       z     vdW  Elec       q    Type
REMARK                         _______ _______ _______ _____ _____    ______ ____
ROOT
ATOM      1  C   UNL     1       2.377   6.519  19.908  0.00  0.00    +0.000 A 
ATOM      2  C   UNL     1       1.613   7.515  20.528  0.00  0.00    +0.000 A 
ATOM      3  C   UNL     1       1.260   8.707  19.882  0.00  0.00    +0.000 A 
ATOM      4  C   UNL     1       1.753   8.926  18.595  0.00  0.00    +0.000 A 
ATOM      5  C   UNL     1       2.550   7.965  17.965  0.00  0.00    +0.000 A 
ATOM      6  C   UNL     1       2.861   6.749  18.604  0.00  0.00    +0.000 A 
ATOM      7  C   UNL     1       3.677   5.738  17.845  0.00  0.00    +0.000 C 
ENDROOT
BRANCH   3   8
ATOM      8  C   UNL     1       0.405   9.713  20.531  0.00  0.00    +0.000 A 
ATOM      9  N   UNL     1      -0.264  10.648  19.886  0.00  0.00    +0.000 NA
ATOM     10  C   UNL     1      -0.975  11.431  20.777  0.00  0.00    +0.000 A 
ATOM     11  C   UNL     1      -1.782  12.535  20.443  0.00  0.00    +0.000 A 
ATOM     12  C   UNL     1      -2.453  13.238  21.451  0.00  0.00    +0.000 A 
ATOM     13  C   UNL     1      -2.325  12.855  22.782  0.00  0.00    +0.000 A 
ATOM     14  C   UNL     1      -1.527  11.766  23.140  0.00  0.00    +0.000 A 
ATOM     15  C   UNL     1      -0.862  11.068  22.120  0.00  0.00    +0.000 A 
ATOM     16  S   UNL     1       0.163   9.701  22.239  0.00  0.00    +0.000 S 
ENDBRANCH   3   8
BRANCH   1  20
ATOM     17  C   UNL     1       2.340   3.135  21.600  0.00  0.00    +0.000 C 
ATOM     18  C   UNL     1       1.780   4.249  20.756  0.00  0.00    +0.000 C 
ATOM     19  O   UNL     1       0.658   4.142  20.274  0.00  0.00    +0.000 OA
ATOM     20  N   UNL     1       2.667   5.307  20.586  0.00  0.00    +0.000 N 
ATOM     21  H   UNL     1       3.625   5.157  20.872  0.00  0.00    +0.000 HD
ENDBRANCH   1  20
TORSDOF 2
ENDMDL
