MODEL 1
REMARK VINA RESULT:      -7.7      0.000      0.000
REMARK  Name = 
REMARK  5 active torsions:
REMARK  status: ('A' for Active; 'I' for Inactive)
REMARK    1  A    between atoms: C_1  and  N_2
REMARK    2  A    between atoms: N_2  and  C_19
REMARK    3  A    between atoms: N_8  and  C_9
REMARK    4  A    between atoms: C_12  and  C_13
REMARK    5  A    between atoms: C_13  and  O_15
REMARK                            x       y       z     vdW  Elec       q    Type
REMARK                         _______ _______ _______ _____ _____    ______ ____
ROOT
ATOM      1  C   UNL     1       4.771   3.332  18.297  0.00  0.00    +0.000 C 
ATOM      2  N   UNL     1       4.679   4.741  18.691  0.00  0.00    +0.000 N 
ATOM      3  C   UNL     1       3.469   5.148  19.313  0.00  0.00    +0.000 A 
ATOM      4  C   UNL     1       2.787   4.311  20.180  0.00  0.00    +0.000 A 
ATOM      5  C   UNL     1       1.664   4.810  20.786  0.00  0.00    +0.000 A 
ATOM      6  N   UNL     1       1.219   6.055  20.597  0.00  0.00    +0.000 NA
ATOM      7  C   UNL     1       1.919   6.826  19.753  0.00  0.00    +0.000 A 
ATOM      8  N   UNL     1       1.486   8.129  19.502  0.00  0.00    +0.000 N 
ATOM      9  N   UNL     1       3.013   6.406  19.098  0.00  0.00    +0.000 NA
ATOM     10  H   UNL     1       2.090   8.554  18.811  0.00  0.00    +0.000 HD
ENDROOT
BRANCH   2  11
ATOM     11  C   UNL     1       5.820   5.576  18.495  0.00  0.00    +0.000 A 
ATOM     12  C   UNL     1       6.866   5.497  19.452  0.00  0.00    +0.000 A 
ATOM     13  C   UNL     1       8.045   6.246  19.362  0.00  0.00    +0.000 A 
ATOM     14  C   UNL     1       8.237   7.111  18.299  0.00  0.00    +0.000 A 
ATOM     15  C   UNL     1       7.241   7.224  17.335  0.00  0.00    +0.000 A 
ATOM     16  C   UNL     1       6.049   6.477  17.424  0.00  0.00    +0.000 A 
ATOM     17 CL   UNL     1       4.917   6.834  16.160  0.00  0.00    +0.000 Cl
ENDBRANCH   2  11
BRANCH   8  18
ATOM     18  C   UNL     1       0.841   9.023  20.372  0.00  0.00    +0.000 A 
ATOM     19  C   UNL     1       0.974   8.955  21.766  0.00  0.00    +0.000 A 
ATOM     20  C   UNL     1       0.306   9.857  22.602  0.00  0.00    +0.000 A 
ATOM     21  C   UNL     1      -0.534  10.831  22.055  0.00  0.00    +0.000 A 
ATOM     22  C   UNL     1      -0.677  10.915  20.667  0.00  0.00    +0.000 A 
ATOM     23  C   UNL     1       0.009  10.017  19.837  0.00  0.00    +0.000 A 
BRANCH  21  24
ATOM     24  C   UNL     1      -1.202  11.776  22.987  0.00  0.00    +0.000 C 
ATOM     25  O   UNL     1      -2.339  11.611  23.394  0.00  0.00    +0.000 OA
BRANCH  24  26
ATOM     26  O   UNL     1      -0.452  12.851  23.313  0.00  0.00    +0.000 OA
ATOM     27  H   UNL     1      -0.512  13.598  22.691  0.00  0.00    +0.000 HD
ENDBRANCH  24  26
ENDBRANCH  21  24
ENDBRANCH   8  18
TORSDOF 4
ENDMDL
MODEL 2
REMARK VINA RESULT:      -7.7      2.350      4.245
REMARK  Name = 
REMARK  5 active torsions:
REMARK  status: ('A' for Active; 'I' for Inactive)
REMARK    1  A    between atoms: C_1  and  N_2
REMARK    2  A    between atoms: N_2  and  C_19
REMARK    3  A    between atoms: N_8  and  C_9
REMARK    4  A    between atoms: C_12  and  C_13
REMARK    5  A    between atoms: C_13  and  O_15
REMARK                            x       y       z     vdW  Elec       q    Type
REMARK                         _______ _______ _______ _____ _____    ______ ____
ROOT
ATOM      1  C   UNL     1       4.092   5.839  18.029  0.00  0.00    +0.000 C 
ATOM      2  N   UNL     1       2.940   6.065  18.906  0.00  0.00    +0.000 N 
ATOM      3  C   UNL     1       2.446   7.395  18.976  0.00  0.00    +0.000 A 
ATOM      4  C   UNL     1       2.433   8.218  17.863  0.00  0.00    +0.000 A 
ATOM      5  C   UNL     1       1.879   9.463  18.005  0.00  0.00    +0.000 A 
ATOM      6  N   UNL     1       1.339   9.901  19.146  0.00  0.00    +0.000 NA
ATOM      7  C   UNL     1       1.372   9.063  20.192  0.00  0.00    +0.000 A 
ATOM      8  N   UNL     1       0.842   9.477  21.415  0.00  0.00    +0.000 N 
ATOM      9  N   UNL     1       1.921   7.838  20.144  0.00  0.00    +0.000 NA
ATOM     10  H   UNL     1       0.990   8.753  22.105  0.00  0.00    +0.000 HD
ENDROOT
BRANCH   2  11
ATOM     11  C   UNL     1       2.353   4.939  19.559  0.00  0.00    +0.000 A 
ATOM     12  C   UNL     1       2.659   4.742  20.932  0.00  0.00    +0.000 A 
ATOM     13  C   UNL     1       2.130   3.691  21.690  0.00  0.00    +0.000 A 
ATOM     14  C   UNL     1       1.260   2.786  21.109  0.00  0.00    +0.000 A 
ATOM     15  C   UNL     1       0.930   2.937  19.767  0.00  0.00    +0.000 A 
ATOM     16  C   UNL     1       1.464   3.989  18.996  0.00  0.00    +0.000 A 
ATOM     17 CL   UNL     1       0.979   3.939  17.332  0.00  0.00    +0.000 Cl
ENDBRANCH   2  11
BRANCH   8  18
ATOM     18  C   UNL     1      -0.250  10.327  21.656  0.00  0.00    +0.000 A 
ATOM     19  C   UNL     1      -0.880  11.060  20.640  0.00  0.00    +0.000 A 
ATOM     20  C   UNL     1      -1.958  11.906  20.921  0.00  0.00    +0.000 A 
ATOM     21  C   UNL     1      -2.410  12.055  22.234  0.00  0.00    +0.000 A 
ATOM     22  C   UNL     1      -1.795  11.331  23.260  0.00  0.00    +0.000 A 
ATOM     23  C   UNL     1      -0.726  10.473  22.966  0.00  0.00    +0.000 A 
BRANCH  21  24
ATOM     24  C   UNL     1      -3.573  12.950  22.473  0.00  0.00    +0.000 C 
ATOM     25  O   UNL     1      -4.726  12.598  22.296  0.00  0.00    +0.000 OA
BRANCH  24  26
ATOM     26  O   UNL     1      -3.236  14.197  22.867  0.00  0.00    +0.000 OA
ATOM     27  H   UNL     1      -3.858  14.896  22.597  0.00  0.00    +0.000 HD
ENDBRANCH  24  26
ENDBRANCH  21  24
ENDBRANCH   8  18
TORSDOF 4
ENDMDL
MODEL 3
REMARK VINA RESULT:      -7.4      2.619      3.184
REMARK  Name = 
REMARK  5 active torsions:
REMARK  status: ('A' for Active; 'I' for Inactive)
REMARK    1  A    between atoms: C_1  and  N_2
REMARK    2  A    between atoms: N_2  and  C_19
REMARK    3  A    between atoms: N_8  and  C_9
REMARK    4  A    between atoms: C_12  and  C_13
REMARK    5  A    between atoms: C_13  and  O_15
REMARK                            x       y       z     vdW  Elec       q    Type
REMARK                         _______ _______ _______ _____ _____    ______ ____
ROOT
ATOM      1  C   UNL     1       3.941   2.882  18.840  0.00  0.00    +0.000 C 
ATOM      2  N   UNL     1       4.086   4.245  18.321  0.00  0.00    +0.000 N 
ATOM      3  C   UNL     1       3.220   5.229  18.869  0.00  0.00    +0.000 A 
ATOM      4  C   UNL     1       2.859   5.207  20.205  0.00  0.00    +0.000 A 
ATOM      5  C   UNL     1       2.073   6.233  20.663  0.00  0.00    +0.000 A 
ATOM      6  N   UNL     1       1.666   7.246  19.893  0.00  0.00    +0.000 NA
ATOM      7  C   UNL     1       2.048   7.221  18.609  0.00  0.00    +0.000 A 
ATOM      8  N   UNL     1       1.632   8.245  17.755  0.00  0.00    +0.000 N 
ATOM      9  N   UNL     1       2.793   6.241  18.074  0.00  0.00    +0.000 NA
ATOM     10  H   UNL     1       1.961   8.052  16.818  0.00  0.00    +0.000 HD
ENDROOT
BRANCH   2  11
ATOM     11  C   UNL     1       5.121   4.503  17.372  0.00  0.00    +0.000 A 
ATOM     12  C   UNL     1       4.897   4.105  16.028  0.00  0.00    +0.000 A 
ATOM     13  C   UNL     1       5.822   4.322  15.001  0.00  0.00    +0.000 A 
ATOM     14  C   UNL     1       7.021   4.957  15.271  0.00  0.00    +0.000 A 
ATOM     15  C   UNL     1       7.288   5.366  16.573  0.00  0.00    +0.000 A 
ATOM     16  C   UNL     1       6.363   5.145  17.613  0.00  0.00    +0.000 A 
ATOM     17 CL   UNL     1       6.934   5.665  19.165  0.00  0.00    +0.000 Cl
ENDBRANCH   2  11
BRANCH   8  18
ATOM     18  C   UNL     1       1.411   9.599  18.050  0.00  0.00    +0.000 A 
ATOM     19  C   UNL     1       2.423  10.567  17.980  0.00  0.00    +0.000 A 
ATOM     20  C   UNL     1       2.167  11.906  18.294  0.00  0.00    +0.000 A 
ATOM     21  C   UNL     1       0.893  12.298  18.711  0.00  0.00    +0.000 A 
ATOM     22  C   UNL     1      -0.130  11.347  18.784  0.00  0.00    +0.000 A 
ATOM     23  C   UNL     1       0.133  10.011  18.452  0.00  0.00    +0.000 A 
BRANCH  21  24
ATOM     24  C   UNL     1       0.670  13.737  19.010  0.00  0.00    +0.000 C 
ATOM     25  O   UNL     1       1.416  14.388  19.721  0.00  0.00    +0.000 OA
BRANCH  24  26
ATOM     26  O   UNL     1      -0.449  14.248  18.455  0.00  0.00    +0.000 OA
ATOM     27  H   UNL     1      -0.879  13.677  17.794  0.00  0.00    +0.000 HD
ENDBRANCH  24  26
ENDBRANCH  21  24
ENDBRANCH   8  18
TORSDOF 4
ENDMDL
MODEL 4
REMARK VINA RESULT:      -7.2      2.353      4.367
REMARK  Name = 
REMARK  5 active torsions:
REMARK  status: ('A' for Active; 'I' for Inactive)
REMARK    1  A    between atoms: C_1  and  N_2
REMARK    2  A    between atoms: N_2  and  C_19
REMARK    3  A    between atoms: N_8  and  C_9
REMARK    4  A    between atoms: C_12  and  C_13
REMARK    5  A    between atoms: C_13  and  O_15
REMARK                            x       y       z     vdW  Elec       q    Type
REMARK                         _______ _______ _______ _____ _____    ______ ____
ROOT
ATOM      1  C   UNL     1       4.648   5.451  18.468  0.00  0.00    +0.000 C 
ATOM      2  N   UNL     1       3.328   5.774  19.016  0.00  0.00    +0.000 N 
ATOM      3  C   UNL     1       2.874   7.108  18.833  0.00  0.00    +0.000 A 
ATOM      4  C   UNL     1       3.151   7.810  17.672  0.00  0.00    +0.000 A 
ATOM      5  C   UNL     1       2.617   9.067  17.553  0.00  0.00    +0.000 A 
ATOM      6  N   UNL     1       1.836   9.625  18.482  0.00  0.00    +0.000 NA
ATOM      7  C   UNL     1       1.595   8.900  19.584  0.00  0.00    +0.000 A 
ATOM      8  N   UNL     1       0.802   9.444  20.597  0.00  0.00    +0.000 N 
ATOM      9  N   UNL     1       2.101   7.674  19.792  0.00  0.00    +0.000 NA
ATOM     10  H   UNL     1       0.760   8.795  21.371  0.00  0.00    +0.000 HD
ENDROOT
BRANCH   2  11
ATOM     11  C   UNL     1       2.569   4.727  19.620  0.00  0.00    +0.000 A 
ATOM     12  C   UNL     1       2.839   4.418  20.979  0.00  0.00    +0.000 A 
ATOM     13  C   UNL     1       2.148   3.430  21.691  0.00  0.00    +0.000 A 
ATOM     14  C   UNL     1       1.145   2.704  21.073  0.00  0.00    +0.000 A 
ATOM     15  C   UNL     1       0.844   2.970  19.742  0.00  0.00    +0.000 A 
ATOM     16  C   UNL     1       1.539   3.960  19.018  0.00  0.00    +0.000 A 
ATOM     17 CL   UNL     1       1.054   4.068  17.357  0.00  0.00    +0.000 Cl
ENDBRANCH   2  11
BRANCH   8  18
ATOM     18  C   UNL     1      -0.288  10.321  20.483  0.00  0.00    +0.000 A 
ATOM     19  C   UNL     1      -1.043  10.447  19.309  0.00  0.00    +0.000 A 
ATOM     20  C   UNL     1      -2.116  11.341  19.230  0.00  0.00    +0.000 A 
ATOM     21  C   UNL     1      -2.438  12.149  20.323  0.00  0.00    +0.000 A 
ATOM     22  C   UNL     1      -1.698  12.036  21.504  0.00  0.00    +0.000 A 
ATOM     23  C   UNL     1      -0.634  11.125  21.578  0.00  0.00    +0.000 A 
BRANCH  21  24
ATOM     24  C   UNL     1      -3.601  13.065  20.193  0.00  0.00    +0.000 C 
ATOM     25  O   UNL     1      -3.825  13.966  20.983  0.00  0.00    +0.000 OA
BRANCH  24  26
ATOM     26  O   UNL     1      -4.405  12.788  19.144  0.00  0.00    +0.000 OA
ATOM     27  H   UNL     1      -5.075  13.468  18.948  0.00  0.00    +0.000 HD
ENDBRANCH  24  26
ENDBRANCH  21  24
ENDBRANCH   8  18
TORSDOF 4
ENDMDL
MODEL 5
REMARK VINA RESULT:      -7.2      2.617      3.189
REMARK  Name = 
REMARK  5 active torsions:
REMARK  status: ('A' for Active; 'I' for Inactive)
REMARK    1  A    between atoms: C_1  and  N_2
REMARK    2  A    between atoms: N_2  and  C_19
REMARK    3  A    between atoms: N_8  and  C_9
REMARK    4  A    between atoms: C_12  and  C_13
REMARK    5  A    between atoms: C_13  and  O_15
REMARK                            x       y       z     vdW  Elec       q    Type
REMARK                         _______ _______ _______ _____ _____    ______ ____
ROOT
ATOM      1  C   UNL     1       3.881   2.876  18.903  0.00  0.00    +0.000 C 
ATOM      2  N   UNL     1       4.062   4.240  18.399  0.00  0.00    +0.000 N 
ATOM      3  C   UNL     1       3.201   5.235  18.936  0.00  0.00    +0.000 A 
ATOM      4  C   UNL     1       2.810   5.208  20.264  0.00  0.00    +0.000 A 
ATOM      5  C   UNL     1       2.032   6.243  20.713  0.00  0.00    +0.000 A 
ATOM      6  N   UNL     1       1.659   7.270  19.944  0.00  0.00    +0.000 NA
ATOM      7  C   UNL     1       2.069   7.249  18.668  0.00  0.00    +0.000 A 
ATOM      8  N   UNL     1       1.690   8.286  17.813  0.00  0.00    +0.000 N 
ATOM      9  N   UNL     1       2.809   6.260  18.142  0.00  0.00    +0.000 NA
ATOM     10  H   UNL     1       2.037   8.095  16.883  0.00  0.00    +0.000 HD
ENDROOT
BRANCH   2  11
ATOM     11  C   UNL     1       5.122   4.488  17.476  0.00  0.00    +0.000 A 
ATOM     12  C   UNL     1       4.919   4.109  16.123  0.00  0.00    +0.000 A 
ATOM     13  C   UNL     1       5.871   4.319  15.118  0.00  0.00    +0.000 A 
ATOM     14  C   UNL     1       7.076   4.927  15.421  0.00  0.00    +0.000 A 
ATOM     15  C   UNL     1       7.322   5.317  16.733  0.00  0.00    +0.000 A 
ATOM     16  C   UNL     1       6.370   5.102  17.751  0.00  0.00    +0.000 A 
ATOM     17 CL   UNL     1       6.918   5.594  19.321  0.00  0.00    +0.000 Cl
ENDBRANCH   2  11
BRANCH   8  18
ATOM     18  C   UNL     1       1.486   9.643  18.116  0.00  0.00    +0.000 A 
ATOM     19  C   UNL     1       0.277  10.133  18.628  0.00  0.00    +0.000 A 
ATOM     20  C   UNL     1       0.107  11.493  18.906  0.00  0.00    +0.000 A 
ATOM     21  C   UNL     1       1.141  12.397  18.649  0.00  0.00    +0.000 A 
ATOM     22  C   UNL     1       2.356  11.926  18.140  0.00  0.00    +0.000 A 
ATOM     23  C   UNL     1       2.521  10.558  17.880  0.00  0.00    +0.000 A 
BRANCH  21  24
ATOM     24  C   UNL     1       0.915  13.827  18.983  0.00  0.00    +0.000 C 
ATOM     25  O   UNL     1      -0.105  14.423  18.684  0.00  0.00    +0.000 OA
BRANCH  24  26
ATOM     26  O   UNL     1       1.953  14.416  19.614  0.00  0.00    +0.000 OA
ATOM     27  H   UNL     1       2.786  14.433  19.109  0.00  0.00    +0.000 HD
ENDBRANCH  24  26
ENDBRANCH  21  24
ENDBRANCH   8  18
TORSDOF 4
ENDMDL
MODEL 6
REMARK VINA RESULT:      -7.2      2.364      4.077
REMARK  Name = 
REMARK  5 active torsions:
REMARK  status: ('A' for Active; 'I' for Inactive)
REMARK    1  A    between atoms: C_1  and  N_2
REMARK    2  A    between atoms: N_2  and  C_19
REMARK    3  A    between atoms: N_8  and  C_9
REMARK    4  A    between atoms: C_12  and  C_13
REMARK    5  A    between atoms: C_13  and  O_15
REMARK                            x       y       z     vdW  Elec       q    Type
REMARK                         _______ _______ _______ _____ _____    ______ ____
ROOT
ATOM      1  C   UNL     1       3.885   5.585  17.361  0.00  0.00    +0.000 C 
ATOM      2  N   UNL     1       2.988   5.815  18.497  0.00  0.00    +0.000 N 
ATOM      3  C   UNL     1       2.470   7.130  18.641  0.00  0.00    +0.000 A 
ATOM      4  C   UNL     1       2.134   7.897  17.537  0.00  0.00    +0.000 A 
ATOM      5  C   UNL     1       1.580   9.128  17.770  0.00  0.00    +0.000 A 
ATOM      6  N   UNL     1       1.333   9.604  18.994  0.00  0.00    +0.000 NA
ATOM      7  C   UNL     1       1.673   8.819  20.027  0.00  0.00    +0.000 A 
ATOM      8  N   UNL     1       1.457   9.276  21.329  0.00  0.00    +0.000 N 
ATOM      9  N   UNL     1       2.245   7.613  19.887  0.00  0.00    +0.000 NA
ATOM     10  H   UNL     1       1.810   8.592  21.985  0.00  0.00    +0.000 HD
ENDROOT
BRANCH   2  11
ATOM     11  C   UNL     1       2.641   4.705  19.324  0.00  0.00    +0.000 A 
ATOM     12  C   UNL     1       1.287   4.589  19.737  0.00  0.00    +0.000 A 
ATOM     13  C   UNL     1       0.816   3.535  20.528  0.00  0.00    +0.000 A 
ATOM     14  C   UNL     1       1.681   2.538  20.941  0.00  0.00    +0.000 A 
ATOM     15  C   UNL     1       3.017   2.606  20.562  0.00  0.00    +0.000 A 
ATOM     16  C   UNL     1       3.499   3.668  19.771  0.00  0.00    +0.000 A 
ATOM     17 CL   UNL     1       5.208   3.593  19.485  0.00  0.00    +0.000 Cl
ENDBRANCH   2  11
BRANCH   8  18
ATOM     18  C   UNL     1       0.427  10.100  21.811  0.00  0.00    +0.000 A 
ATOM     19  C   UNL     1       0.164  11.373  21.286  0.00  0.00    +0.000 A 
ATOM     20  C   UNL     1      -0.864  12.170  21.801  0.00  0.00    +0.000 A 
ATOM     21  C   UNL     1      -1.634  11.716  22.874  0.00  0.00    +0.000 A 
ATOM     22  C   UNL     1      -1.388  10.448  23.410  0.00  0.00    +0.000 A 
ATOM     23  C   UNL     1      -0.366   9.650  22.876  0.00  0.00    +0.000 A 
BRANCH  21  24
ATOM     24  C   UNL     1      -2.727  12.594  23.367  0.00  0.00    +0.000 C 
ATOM     25  O   UNL     1      -2.673  13.811  23.315  0.00  0.00    +0.000 OA
BRANCH  24  26
ATOM     26  O   UNL     1      -3.766  11.926  23.911  0.00  0.00    +0.000 OA
ATOM     27  H   UNL     1      -3.693  11.758  24.868  0.00  0.00    +0.000 HD
ENDBRANCH  24  26
ENDBRANCH  21  24
ENDBRANCH   8  18
TORSDOF 4
ENDMDL
MODEL 7
REMARK VINA RESULT:      -7.2      2.174      2.796
REMARK  Name = 
REMARK  5 active torsions:
REMARK  status: ('A' for Active; 'I' for Inactive)
REMARK    1  A    between atoms: C_1  and  N_2
REMARK    2  A    between atoms: N_2  and  C_19
REMARK    3  A    between atoms: N_8  and  C_9
REMARK    4  A    between atoms: C_12  and  C_13
REMARK    5  A    between atoms: C_13  and  O_15
REMARK                            x       y       z     vdW  Elec       q    Type
REMARK                         _______ _______ _______ _____ _____    ______ ____
ROOT
ATOM      1  C   UNL     1       3.868   2.355  18.247  0.00  0.00    +0.000 C 
ATOM      2  N   UNL     1       4.066   3.784  17.988  0.00  0.00    +0.000 N 
ATOM      3  C   UNL     1       3.240   4.681  18.716  0.00  0.00    +0.000 A 
ATOM      4  C   UNL     1       2.880   4.425  20.028  0.00  0.00    +0.000 A 
ATOM      5  C   UNL     1       2.135   5.377  20.674  0.00  0.00    +0.000 A 
ATOM      6  N   UNL     1       1.766   6.531  20.110  0.00  0.00    +0.000 NA
ATOM      7  C   UNL     1       2.145   6.730  18.840  0.00  0.00    +0.000 A 
ATOM      8  N   UNL     1       1.769   7.909  18.194  0.00  0.00    +0.000 N 
ATOM      9  N   UNL     1       2.852   5.838  18.127  0.00  0.00    +0.000 NA
ATOM     10  H   UNL     1       2.089   7.881  17.235  0.00  0.00    +0.000 HD
ENDROOT
BRANCH   2  11
ATOM     11  C   UNL     1       5.110   4.174  17.096  0.00  0.00    +0.000 A 
ATOM     12  C   UNL     1       4.950   3.862  15.720  0.00  0.00    +0.000 A 
ATOM     13  C   UNL     1       5.889   4.210  14.742  0.00  0.00    +0.000 A 
ATOM     14  C   UNL     1       7.037   4.897  15.096  0.00  0.00    +0.000 A 
ATOM     15  C   UNL     1       7.239   5.225  16.433  0.00  0.00    +0.000 A 
ATOM     16  C   UNL     1       6.300   4.872  17.422  0.00  0.00    +0.000 A 
ATOM     17 CL   UNL     1       6.792   5.312  19.026  0.00  0.00    +0.000 Cl
ENDBRANCH   2  11
BRANCH   8  18
ATOM     18  C   UNL     1       1.601   9.193  18.737  0.00  0.00    +0.000 A 
ATOM     19  C   UNL     1       0.934   9.424  19.948  0.00  0.00    +0.000 A 
ATOM     20  C   UNL     1       0.776  10.720  20.452  0.00  0.00    +0.000 A 
ATOM     21  C   UNL     1       1.262  11.816  19.735  0.00  0.00    +0.000 A 
ATOM     22  C   UNL     1       1.932  11.605  18.526  0.00  0.00    +0.000 A 
ATOM     23  C   UNL     1       2.099  10.301  18.037  0.00  0.00    +0.000 A 
BRANCH  21  24
ATOM     24  C   UNL     1       1.087  13.168  20.327  0.00  0.00    +0.000 C 
ATOM     25  O   UNL     1       1.142  13.377  21.526  0.00  0.00    +0.000 OA
BRANCH  24  26
ATOM     26  O   UNL     1       0.824  14.135  19.422  0.00  0.00    +0.000 OA
ATOM     27  H   UNL     1      -0.119  14.265  19.220  0.00  0.00    +0.000 HD
ENDBRANCH  24  26
ENDBRANCH  21  24
ENDBRANCH   8  18
TORSDOF 4
ENDMDL
MODEL 8
REMARK VINA RESULT:      -7.2      2.186      2.894
REMARK  Name = 
REMARK  5 active torsions:
REMARK  status: ('A' for Active; 'I' for Inactive)
REMARK    1  A    between atoms: C_1  and  N_2
REMARK    2  A    between atoms: N_2  and  C_19
REMARK    3  A    between atoms: N_8  and  C_9
REMARK    4  A    between atoms: C_12  and  C_13
REMARK    5  A    between atoms: C_13  and  O_15
REMARK                            x       y       z     vdW  Elec       q    Type
REMARK                         _______ _______ _______ _____ _____    ______ ____
ROOT
ATOM      1  C   UNL     1       3.849   2.499  18.494  0.00  0.00    +0.000 C 
ATOM      2  N   UNL     1       4.061   3.913  18.173  0.00  0.00    +0.000 N 
ATOM      3  C   UNL     1       3.228   4.848  18.845  0.00  0.00    +0.000 A 
ATOM      4  C   UNL     1       2.845   4.655  20.161  0.00  0.00    +0.000 A 
ATOM      5  C   UNL     1       2.095   5.640  20.750  0.00  0.00    +0.000 A 
ATOM      6  N   UNL     1       1.744   6.768  20.126  0.00  0.00    +0.000 NA
ATOM      7  C   UNL     1       2.146   6.907  18.855  0.00  0.00    +0.000 A 
ATOM      8  N   UNL     1       1.788   8.057  18.149  0.00  0.00    +0.000 N 
ATOM      9  N   UNL     1       2.858   5.979  18.196  0.00  0.00    +0.000 NA
ATOM     10  H   UNL     1       2.124   7.983  17.198  0.00  0.00    +0.000 HD
ENDROOT
BRANCH   2  11
ATOM     11  C   UNL     1       5.122   4.255  17.281  0.00  0.00    +0.000 A 
ATOM     12  C   UNL     1       4.983   3.880  15.919  0.00  0.00    +0.000 A 
ATOM     13  C   UNL     1       5.941   4.178  14.942  0.00  0.00    +0.000 A 
ATOM     14  C   UNL     1       7.087   4.874  15.284  0.00  0.00    +0.000 A 
ATOM     15  C   UNL     1       7.268   5.263  16.607  0.00  0.00    +0.000 A 
ATOM     16  C   UNL     1       6.311   4.961  17.596  0.00  0.00    +0.000 A 
ATOM     17 CL   UNL     1       6.778   5.472  19.186  0.00  0.00    +0.000 Cl
ENDBRANCH   2  11
BRANCH   8  18
ATOM     18  C   UNL     1       1.620   9.366  18.630  0.00  0.00    +0.000 A 
ATOM     19  C   UNL     1       2.180  10.485  17.998  0.00  0.00    +0.000 A 
ATOM     20  C   UNL     1       2.000  11.773  18.514  0.00  0.00    +0.000 A 
ATOM     21  C   UNL     1       1.274  11.962  19.692  0.00  0.00    +0.000 A 
ATOM     22  C   UNL     1       0.705  10.857  20.335  0.00  0.00    +0.000 A 
ATOM     23  C   UNL     1       0.879   9.572  19.801  0.00  0.00    +0.000 A 
BRANCH  21  24
ATOM     24  C   UNL     1       1.095  13.353  20.184  0.00  0.00    +0.000 C 
ATOM     25  O   UNL     1       0.757  14.273  19.459  0.00  0.00    +0.000 OA
BRANCH  24  26
ATOM     26  O   UNL     1       1.375  13.514  21.495  0.00  0.00    +0.000 OA
ATOM     27  H   UNL     1       1.768  12.737  21.931  0.00  0.00    +0.000 HD
ENDBRANCH  24  26
ENDBRANCH  21  24
ENDBRANCH   8  18
TORSDOF 4
ENDMDL
MODEL 9
REMARK VINA RESULT:      -7.2      5.034      8.927
REMARK  Name = 
REMARK  5 active torsions:
REMARK  status: ('A' for Active; 'I' for Inactive)
REMARK    1  A    between atoms: C_1  and  N_2
REMARK    2  A    between atoms: N_2  and  C_19
REMARK    3  A    between atoms: N_8  and  C_9
REMARK    4  A    between atoms: C_12  and  C_13
REMARK    5  A    between atoms: C_13  and  O_15
REMARK                            x       y       z     vdW  Elec       q    Type
REMARK                         _______ _______ _______ _____ _____    ______ ____
ROOT
ATOM      1  C   UNL     1      -1.949  12.384  20.367  0.00  0.00    +0.000 C 
ATOM      2  N   UNL     1      -1.623  11.326  19.406  0.00  0.00    +0.000 N 
ATOM      3  C   UNL     1      -0.540  10.471  19.746  0.00  0.00    +0.000 A 
ATOM      4  C   UNL     1      -0.311  10.086  21.056  0.00  0.00    +0.000 A 
ATOM      5  C   UNL     1       0.716   9.207  21.283  0.00  0.00    +0.000 A 
ATOM      6  N   UNL     1       1.477   8.698  20.310  0.00  0.00    +0.000 NA
ATOM      7  C   UNL     1       1.209   9.100  19.060  0.00  0.00    +0.000 A 
ATOM      8  N   UNL     1       1.987   8.616  18.007  0.00  0.00    +0.000 N 
ATOM      9  N   UNL     1       0.241   9.978  18.754  0.00  0.00    +0.000 NA
ATOM     10  H   UNL     1       1.690   9.052  17.144  0.00  0.00    +0.000 HD
ENDROOT
BRANCH   2  11
ATOM     11  C   UNL     1      -2.449  11.181  18.251  0.00  0.00    +0.000 A 
ATOM     12  C   UNL     1      -1.846  10.672  17.071  0.00  0.00    +0.000 A 
ATOM     13  C   UNL     1      -2.552  10.461  15.880  0.00  0.00    +0.000 A 
ATOM     14  C   UNL     1      -3.904  10.745  15.817  0.00  0.00    +0.000 A 
ATOM     15  C   UNL     1      -4.540  11.246  16.947  0.00  0.00    +0.000 A 
ATOM     16  C   UNL     1      -3.834  11.466  18.147  0.00  0.00    +0.000 A 
ATOM     17 CL   UNL     1      -4.807  12.167  19.400  0.00  0.00    +0.000 Cl
ENDBRANCH   2  11
BRANCH   8  18
ATOM     18  C   UNL     1       2.594   7.357  17.870  0.00  0.00    +0.000 A 
ATOM     19  C   UNL     1       3.937   7.197  17.501  0.00  0.00    +0.000 A 
ATOM     20  C   UNL     1       4.503   5.925  17.363  0.00  0.00    +0.000 A 
ATOM     21  C   UNL     1       3.724   4.784  17.567  0.00  0.00    +0.000 A 
ATOM     22  C   UNL     1       2.383   4.924  17.939  0.00  0.00    +0.000 A 
ATOM     23  C   UNL     1       1.829   6.203  18.090  0.00  0.00    +0.000 A 
BRANCH  21  24
ATOM     24  C   UNL     1       4.382   3.458  17.429  0.00  0.00    +0.000 C 
ATOM     25  O   UNL     1       3.982   2.459  18.001  0.00  0.00    +0.000 OA
BRANCH  24  26
ATOM     26  O   UNL     1       5.480   3.468  16.645  0.00  0.00    +0.000 OA
ATOM     27  H   UNL     1       5.671   2.627  16.192  0.00  0.00    +0.000 HD
ENDBRANCH  24  26
ENDBRANCH  21  24
ENDBRANCH   8  18
TORSDOF 4
ENDMDL
