MODEL 1
REMARK VINA RESULT:      -5.9      0.000      0.000
REMARK  Name = 
REMARK  3 active torsions:
REMARK  status: ('A' for Active; 'I' for Inactive)
REMARK    1  A    between atoms: C_1  and  C_2
REMARK    2  A    between atoms: C_2  and  C_3
REMARK    3  A    between atoms: C_6  and  N_8
REMARK                            x       y       z     vdW  Elec       q    Type
REMARK                         _______ _______ _______ _____ _____    ______ ____
ROOT
ATOM      1  C   UNL     1       3.386   5.170  19.317  0.00  0.00    +0.000 C 
ATOM      2  C   UNL     1       4.351   4.204  18.626  0.00  0.00    +0.000 C 
ATOM      3  C   UNL     1       3.761   2.793  18.677  0.00  0.00    +0.000 C 
ATOM      4  O   UNL     1       4.517   4.506  17.240  0.00  0.00    +0.000 OA
ATOM      5  C   UNL     1       5.282   5.684  16.978  0.00  0.00    +0.000 C 
ATOM      6  C   UNL     1       6.622   5.683  17.698  0.00  0.00    +0.000 C 
ATOM      7 BR   UNL     1       7.460   7.445  17.557  0.00  0.00    +0.000 Br
ATOM      8  C   UNL     1       6.426   5.295  19.155  0.00  0.00    +0.000 C 
ATOM      9  O   UNL     1       5.606   4.134  19.304  0.00  0.00    +0.000 OA
ENDROOT
BRANCH   6  10
ATOM     10  N   UNL     1       7.596   4.731  17.032  0.00  0.00    +0.000 N 
ATOM     11  O   UNL     1       8.373   4.089  17.756  0.00  0.00    +0.000 OA
ATOM     12  O   UNL     1       7.520   4.588  15.801  0.00  0.00    +0.000 OA
ENDBRANCH   6  10
TORSDOF 1
ENDMDL
MODEL 2
REMARK VINA RESULT:      -5.7      0.829      1.198
REMARK  Name = 
REMARK  3 active torsions:
REMARK  status: ('A' for Active; 'I' for Inactive)
REMARK    1  A    between atoms: C_1  and  C_2
REMARK    2  A    between atoms: C_2  and  C_3
REMARK    3  A    between atoms: C_6  and  N_8
REMARK                            x       y       z     vdW  Elec       q    Type
REMARK                         _______ _______ _______ _____ _____    ______ ____
ROOT
ATOM      1  C   UNL     1       2.706   4.739  18.028  0.00  0.00    +0.000 C 
ATOM      2  C   UNL     1       3.941   3.854  17.837  0.00  0.00    +0.000 C 
ATOM      3  C   UNL     1       3.509   2.386  17.875  0.00  0.00    +0.000 C 
ATOM      4  O   UNL     1       4.550   4.046  16.560  0.00  0.00    +0.000 OA
ATOM      5  C   UNL     1       5.240   5.289  16.415  0.00  0.00    +0.000 C 
ATOM      6  C   UNL     1       6.239   5.537  17.535  0.00  0.00    +0.000 C 
ATOM      7 BR   UNL     1       6.899   7.376  17.449  0.00  0.00    +0.000 Br
ATOM      8  C   UNL     1       5.584   5.263  18.881  0.00  0.00    +0.000 C 
ATOM      9  O   UNL     1       4.880   4.019  18.900  0.00  0.00    +0.000 OA
ENDROOT
BRANCH   6  10
ATOM     10  N   UNL     1       7.470   4.670  17.368  0.00  0.00    +0.000 N 
ATOM     11  O   UNL     1       7.833   4.387  16.215  0.00  0.00    +0.000 OA
ATOM     12  O   UNL     1       8.096   4.343  18.389  0.00  0.00    +0.000 OA
ENDBRANCH   6  10
TORSDOF 1
ENDMDL
MODEL 3
REMARK VINA RESULT:      -5.6      2.678      3.792
REMARK  Name = 
REMARK  3 active torsions:
REMARK  status: ('A' for Active; 'I' for Inactive)
REMARK    1  A    between atoms: C_1  and  C_2
REMARK    2  A    between atoms: C_2  and  C_3
REMARK    3  A    between atoms: C_6  and  N_8
REMARK                            x       y       z     vdW  Elec       q    Type
REMARK                         _______ _______ _______ _____ _____    ______ ____
ROOT
ATOM      1  C   UNL     1       5.958   3.719  14.453  0.00  0.00    +0.000 C 
ATOM      2  C   UNL     1       6.871   4.910  14.757  0.00  0.00    +0.000 C 
ATOM      3  C   UNL     1       7.683   5.245  13.504  0.00  0.00    +0.000 C 
ATOM      4  O   UNL     1       6.131   6.091  15.067  0.00  0.00    +0.000 OA
ATOM      5  C   UNL     1       5.491   6.070  16.345  0.00  0.00    +0.000 C 
ATOM      6  C   UNL     1       6.449   5.718  17.473  0.00  0.00    +0.000 C 
ATOM      7 BR   UNL     1       5.452   5.392  19.123  0.00  0.00    +0.000 Br
ATOM      8  C   UNL     1       7.271   4.496  17.091  0.00  0.00    +0.000 C 
ATOM      9  O   UNL     1       7.823   4.601  15.776  0.00  0.00    +0.000 OA
ENDROOT
BRANCH   6  10
ATOM     10  N   UNL     1       7.365   6.883  17.791  0.00  0.00    +0.000 N 
ATOM     11  O   UNL     1       8.141   6.770  18.754  0.00  0.00    +0.000 OA
ATOM     12  O   UNL     1       7.345   7.864  17.032  0.00  0.00    +0.000 OA
ENDBRANCH   6  10
TORSDOF 1
ENDMDL
MODEL 4
REMARK VINA RESULT:      -5.5      3.637      5.050
REMARK  Name = 
REMARK  3 active torsions:
REMARK  status: ('A' for Active; 'I' for Inactive)
REMARK    1  A    between atoms: C_1  and  C_2
REMARK    2  A    between atoms: C_2  and  C_3
REMARK    3  A    between atoms: C_6  and  N_8
REMARK                            x       y       z     vdW  Elec       q    Type
REMARK                         _______ _______ _______ _____ _____    ______ ____
ROOT
ATOM      1  C   UNL     1       5.319   4.323  17.260  0.00  0.00    +0.000 C 
ATOM      2  C   UNL     1       5.165   4.543  18.767  0.00  0.00    +0.000 C 
ATOM      3  C   UNL     1       6.374   5.332  19.278  0.00  0.00    +0.000 C 
ATOM      4  O   UNL     1       4.022   5.337  19.083  0.00  0.00    +0.000 OA
ATOM      5  C   UNL     1       2.771   4.670  18.908  0.00  0.00    +0.000 C 
ATOM      6  C   UNL     1       2.717   3.331  19.629  0.00  0.00    +0.000 C 
ATOM      7 BR   UNL     1       1.122   2.339  19.083  0.00  0.00    +0.000 Br
ATOM      8  C   UNL     1       3.976   2.531  19.328  0.00  0.00    +0.000 C 
ATOM      9  O   UNL     1       5.166   3.309  19.486  0.00  0.00    +0.000 OA
ENDROOT
BRANCH   6  10
ATOM     10  N   UNL     1       2.568   3.524  21.125  0.00  0.00    +0.000 N 
ATOM     11  O   UNL     1       2.145   4.618  21.533  0.00  0.00    +0.000 OA
ATOM     12  O   UNL     1       2.807   2.556  21.864  0.00  0.00    +0.000 OA
ENDBRANCH   6  10
TORSDOF 1
ENDMDL
MODEL 5
REMARK VINA RESULT:      -5.5      1.998      2.429
REMARK  Name = 
REMARK  3 active torsions:
REMARK  status: ('A' for Active; 'I' for Inactive)
REMARK    1  A    between atoms: C_1  and  C_2
REMARK    2  A    between atoms: C_2  and  C_3
REMARK    3  A    between atoms: C_6  and  N_8
REMARK                            x       y       z     vdW  Elec       q    Type
REMARK                         _______ _______ _______ _____ _____    ______ ____
ROOT
ATOM      1  C   UNL     1       2.563   4.746  17.682  0.00  0.00    +0.000 C 
ATOM      2  C   UNL     1       3.947   5.132  18.211  0.00  0.00    +0.000 C 
ATOM      3  C   UNL     1       3.820   5.532  19.683  0.00  0.00    +0.000 C 
ATOM      4  O   UNL     1       4.860   4.034  18.185  0.00  0.00    +0.000 OA
ATOM      5  C   UNL     1       5.305   3.666  16.878  0.00  0.00    +0.000 C 
ATOM      6  C   UNL     1       5.854   4.847  16.093  0.00  0.00    +0.000 C 
ATOM      7 BR   UNL     1       6.135   4.338  14.226  0.00  0.00    +0.000 Br
ATOM      8  C   UNL     1       4.894   6.024  16.191  0.00  0.00    +0.000 C 
ATOM      9  O   UNL     1       4.475   6.273  17.535  0.00  0.00    +0.000 OA
ENDROOT
BRANCH   6  10
ATOM     10  N   UNL     1       7.224   5.249  16.601  0.00  0.00    +0.000 N 
ATOM     11  O   UNL     1       7.961   4.360  17.057  0.00  0.00    +0.000 OA
ATOM     12  O   UNL     1       7.569   6.434  16.472  0.00  0.00    +0.000 OA
ENDBRANCH   6  10
TORSDOF 1
ENDMDL
MODEL 6
REMARK VINA RESULT:      -5.5      2.769      4.051
REMARK  Name = 
REMARK  3 active torsions:
REMARK  status: ('A' for Active; 'I' for Inactive)
REMARK    1  A    between atoms: C_1  and  C_2
REMARK    2  A    between atoms: C_2  and  C_3
REMARK    3  A    between atoms: C_6  and  N_8
REMARK                            x       y       z     vdW  Elec       q    Type
REMARK                         _______ _______ _______ _____ _____    ______ ____
ROOT
ATOM      1  C   UNL     1       5.086   6.197  16.369  0.00  0.00    +0.000 C 
ATOM      2  C   UNL     1       5.364   4.728  16.698  0.00  0.00    +0.000 C 
ATOM      3  C   UNL     1       6.362   4.173  15.678  0.00  0.00    +0.000 C 
ATOM      4  O   UNL     1       5.983   4.569  17.974  0.00  0.00    +0.000 OA
ATOM      5  C   UNL     1       5.117   4.802  19.086  0.00  0.00    +0.000 C 
ATOM      6  C   UNL     1       3.829   3.996  19.003  0.00  0.00    +0.000 C 
ATOM      7 BR   UNL     1       2.568   4.605  20.368  0.00  0.00    +0.000 Br
ATOM      8  C   UNL     1       3.224   4.130  17.614  0.00  0.00    +0.000 C 
ATOM      9  O   UNL     1       4.188   3.927  16.578  0.00  0.00    +0.000 OA
ENDROOT
BRANCH   6  10
ATOM     10  N   UNL     1       4.080   2.536  19.323  0.00  0.00    +0.000 N 
ATOM     11  O   UNL     1       4.966   2.263  20.149  0.00  0.00    +0.000 OA
ATOM     12  O   UNL     1       3.341   1.689  18.797  0.00  0.00    +0.000 OA
ENDBRANCH   6  10
TORSDOF 1
ENDMDL
MODEL 7
REMARK VINA RESULT:      -5.5      0.642      1.070
REMARK  Name = 
REMARK  3 active torsions:
REMARK  status: ('A' for Active; 'I' for Inactive)
REMARK    1  A    between atoms: C_1  and  C_2
REMARK    2  A    between atoms: C_2  and  C_3
REMARK    3  A    between atoms: C_6  and  N_8
REMARK                            x       y       z     vdW  Elec       q    Type
REMARK                         _______ _______ _______ _____ _____    ______ ____
ROOT
ATOM      1  C   UNL     1       3.105   5.859  19.326  0.00  0.00    +0.000 C 
ATOM      2  C   UNL     1       3.830   4.740  18.572  0.00  0.00    +0.000 C 
ATOM      3  C   UNL     1       2.945   3.491  18.569  0.00  0.00    +0.000 C 
ATOM      4  O   UNL     1       4.045   5.066  17.199  0.00  0.00    +0.000 OA
ATOM      5  C   UNL     1       5.047   6.061  16.977  0.00  0.00    +0.000 C 
ATOM      6  C   UNL     1       6.361   5.731  17.669  0.00  0.00    +0.000 C 
ATOM      7 BR   UNL     1       7.563   7.271  17.594  0.00  0.00    +0.000 Br
ATOM      8  C   UNL     1       6.098   5.324  19.111  0.00  0.00    +0.000 C 
ATOM      9  O   UNL     1       5.044   4.363  19.222  0.00  0.00    +0.000 OA
ENDROOT
BRANCH   6  10
ATOM     10  N   UNL     1       7.096   4.623  16.941  0.00  0.00    +0.000 N 
ATOM     11  O   UNL     1       6.641   4.238  15.852  0.00  0.00    +0.000 OA
ATOM     12  O   UNL     1       8.155   4.205  17.434  0.00  0.00    +0.000 OA
ENDBRANCH   6  10
TORSDOF 1
ENDMDL
MODEL 8
REMARK VINA RESULT:      -5.4      3.672      4.581
REMARK  Name = 
REMARK  3 active torsions:
REMARK  status: ('A' for Active; 'I' for Inactive)
REMARK    1  A    between atoms: C_1  and  C_2
REMARK    2  A    between atoms: C_2  and  C_3
REMARK    3  A    between atoms: C_6  and  N_8
REMARK                            x       y       z     vdW  Elec       q    Type
REMARK                         _______ _______ _______ _____ _____    ______ ____
ROOT
ATOM      1  C   UNL     1       2.625   6.931  18.122  0.00  0.00    +0.000 C 
ATOM      2  C   UNL     1       3.635   5.793  17.956  0.00  0.00    +0.000 C 
ATOM      3  C   UNL     1       4.753   6.256  17.018  0.00  0.00    +0.000 C 
ATOM      4  O   UNL     1       4.276   5.457  19.186  0.00  0.00    +0.000 OA
ATOM      5  C   UNL     1       3.441   4.771  20.121  0.00  0.00    +0.000 C 
ATOM      6  C   UNL     1       2.761   3.553  19.512  0.00  0.00    +0.000 C 
ATOM      7 BR   UNL     1       1.399   2.865  20.736  0.00  0.00    +0.000 Br
ATOM      8  C   UNL     1       2.142   3.922  18.172  0.00  0.00    +0.000 C 
ATOM      9  O   UNL     1       3.048   4.648  17.337  0.00  0.00    +0.000 OA
ENDROOT
BRANCH   6  10
ATOM     10  N   UNL     1       3.743   2.413  19.336  0.00  0.00    +0.000 N 
ATOM     11  O   UNL     1       3.516   1.578  18.446  0.00  0.00    +0.000 OA
ATOM     12  O   UNL     1       4.763   2.409  20.043  0.00  0.00    +0.000 OA
ENDBRANCH   6  10
TORSDOF 1
ENDMDL
MODEL 9
REMARK VINA RESULT:      -5.4      2.860      4.159
REMARK  Name = 
REMARK  3 active torsions:
REMARK  status: ('A' for Active; 'I' for Inactive)
REMARK    1  A    between atoms: C_1  and  C_2
REMARK    2  A    between atoms: C_2  and  C_3
REMARK    3  A    between atoms: C_6  and  N_8
REMARK                            x       y       z     vdW  Elec       q    Type
REMARK                         _______ _______ _______ _____ _____    ______ ____
ROOT
ATOM      1  C   UNL     1       5.765   6.378  17.201  0.00  0.00    +0.000 C 
ATOM      2  C   UNL     1       6.056   4.975  17.742  0.00  0.00    +0.000 C 
ATOM      3  C   UNL     1       7.566   4.731  17.697  0.00  0.00    +0.000 C 
ATOM      4  O   UNL     1       5.681   4.837  19.112  0.00  0.00    +0.000 OA
ATOM      5  C   UNL     1       4.271   4.787  19.338  0.00  0.00    +0.000 C 
ATOM      6  C   UNL     1       3.578   3.742  18.477  0.00  0.00    +0.000 C 
ATOM      7 BR   UNL     1       1.637   3.953  18.598  0.00  0.00    +0.000 Br
ATOM      8  C   UNL     1       4.044   3.868  17.034  0.00  0.00    +0.000 C 
ATOM      9  O   UNL     1       5.466   3.960  16.928  0.00  0.00    +0.000 OA
ENDROOT
BRANCH   6  10
ATOM     10  N   UNL     1       3.853   2.343  18.993  0.00  0.00    +0.000 N 
ATOM     11  O   UNL     1       4.269   2.222  20.156  0.00  0.00    +0.000 OA
ATOM     12  O   UNL     1       3.583   1.386  18.252  0.00  0.00    +0.000 OA
ENDBRANCH   6  10
TORSDOF 1
ENDMDL
