MODEL 1
REMARK VINA RESULT:      -7.1      0.000      0.000
REMARK  Name = 
REMARK  7 active torsions:
REMARK  status: ('A' for Active; 'I' for Inactive)
REMARK    1  A    between atoms: C_1  and  C_2
REMARK    2  A    between atoms: C_7  and  N_8
REMARK    3  A    between atoms: C_12  and  O_13
REMARK    4  A    between atoms: C_15  and  O_16
REMARK    5  A    between atoms: O_16  and  C_17
REMARK    6  A    between atoms: C_17  and  C_19
REMARK    7  A    between atoms: C_24  and  C_25
REMARK                            x       y       z     vdW  Elec       q    Type
REMARK                         _______ _______ _______ _____ _____    ______ ____
ROOT
ATOM      1  N   UNL     1       2.965   6.884  19.754  0.00  0.00    +0.000 NA
ATOM      2  C   UNL     1       2.877   5.624  19.466  0.00  0.00    +0.000 C 
ATOM      3  C   UNL     1       1.851   4.850  18.777  0.00  0.00    +0.000 C 
ATOM      4 CL   UNL     1       1.067   5.188  17.337  0.00  0.00    +0.000 Cl
ATOM      5  C   UNL     1       1.706   3.876  19.673  0.00  0.00    +0.000 C 
ATOM      6  O   UNL     1       2.664   3.830  20.693  0.00  0.00    +0.000 OA
ATOM      7  C   UNL     1       3.778   4.587  20.129  0.00  0.00    +0.000 C 
ENDROOT
BRANCH   1  14
ATOM      8  C   UNL     1       1.136   8.412  21.808  0.00  0.00    +0.000 C 
ATOM      9  C   UNL     1       1.166   8.591  20.316  0.00  0.00    +0.000 A 
ATOM     10  C   UNL     1       0.300   9.593  19.815  0.00  0.00    +0.000 A 
ATOM     11  C   UNL     1       0.360  10.006  18.489  0.00  0.00    +0.000 A 
ATOM     12  C   UNL     1       1.273   9.402  17.637  0.00  0.00    +0.000 A 
ATOM     13  C   UNL     1       2.068   8.347  18.099  0.00  0.00    +0.000 A 
ATOM     14  C   UNL     1       2.013   7.884  19.427  0.00  0.00    +0.000 A 
ENDBRANCH   1  14
BRANCH   5  15
ATOM     15  O   UNL     1       0.694   2.955  19.691  0.00  0.00    +0.000 OA
ATOM     16  H   UNL     1       0.416   2.826  20.614  0.00  0.00    +0.000 HD
ENDBRANCH   5  15
BRANCH   7  17
ATOM     17  O   UNL     1       4.506   3.787  19.187  0.00  0.00    +0.000 OA
BRANCH  17  18
ATOM     18  C   UNL     1       5.659   4.372  18.750  0.00  0.00    +0.000 C 
ATOM     19  O   UNL     1       6.574   4.709  19.472  0.00  0.00    +0.000 OA
BRANCH  18  20
ATOM     20  C   UNL     1       5.655   4.544  17.248  0.00  0.00    +0.000 A 
ATOM     21  C   UNL     1       5.775   3.414  16.417  0.00  0.00    +0.000 A 
ATOM     22  C   UNL     1       5.716   3.538  15.019  0.00  0.00    +0.000 A 
ATOM     23  C   UNL     1       5.546   4.785  14.430  0.00  0.00    +0.000 A 
ATOM     24  C   UNL     1       5.481   5.922  15.234  0.00  0.00    +0.000 A 
ATOM     25  C   UNL     1       5.548   5.824  16.641  0.00  0.00    +0.000 A 
ATOM     26  C   UNL     1       5.508   7.107  17.425  0.00  0.00    +0.000 C 
ENDBRANCH  18  20
ENDBRANCH  17  18
ENDBRANCH   7  17
TORSDOF 5
ENDMDL
MODEL 2
REMARK VINA RESULT:      -7.0      1.900      2.759
REMARK  Name = 
REMARK  7 active torsions:
REMARK  status: ('A' for Active; 'I' for Inactive)
REMARK    1  A    between atoms: C_1  and  C_2
REMARK    2  A    between atoms: C_7  and  N_8
REMARK    3  A    between atoms: C_12  and  O_13
REMARK    4  A    between atoms: C_15  and  O_16
REMARK    5  A    between atoms: O_16  and  C_17
REMARK    6  A    between atoms: C_17  and  C_19
REMARK    7  A    between atoms: C_24  and  C_25
REMARK                            x       y       z     vdW  Elec       q    Type
REMARK                         _______ _______ _______ _____ _____    ______ ____
ROOT
ATOM      1  N   UNL     1       3.716   5.618  18.770  0.00  0.00    +0.000 NA
ATOM      2  C   UNL     1       3.531   4.535  18.084  0.00  0.00    +0.000 C 
ATOM      3  C   UNL     1       2.325   3.788  17.748  0.00  0.00    +0.000 C 
ATOM      4 CL   UNL     1       0.863   4.355  17.163  0.00  0.00    +0.000 Cl
ATOM      5  C   UNL     1       2.736   2.576  18.118  0.00  0.00    +0.000 C 
ATOM      6  O   UNL     1       4.099   2.452  18.412  0.00  0.00    +0.000 OA
ATOM      7  C   UNL     1       4.687   3.604  17.732  0.00  0.00    +0.000 C 
ENDROOT
BRANCH   1  14
ATOM      8  C   UNL     1       2.099   4.801  21.343  0.00  0.00    +0.000 C 
ATOM      9  C   UNL     1       1.949   6.066  20.544  0.00  0.00    +0.000 A 
ATOM     10  C   UNL     1       1.005   6.989  21.053  0.00  0.00    +0.000 A 
ATOM     11  C   UNL     1       0.899   8.276  20.539  0.00  0.00    +0.000 A 
ATOM     12  C   UNL     1       1.723   8.650  19.487  0.00  0.00    +0.000 A 
ATOM     13  C   UNL     1       2.594   7.716  18.916  0.00  0.00    +0.000 A 
ATOM     14  C   UNL     1       2.706   6.396  19.392  0.00  0.00    +0.000 A 
ENDBRANCH   1  14
BRANCH   5  15
ATOM     15  O   UNL     1       1.938   1.474  18.260  0.00  0.00    +0.000 OA
ATOM     16  H   UNL     1       1.021   1.737  18.069  0.00  0.00    +0.000 HD
ENDBRANCH   5  15
BRANCH   7  17
ATOM     17  O   UNL     1       4.801   3.354  16.325  0.00  0.00    +0.000 OA
BRANCH  17  18
ATOM     18  C   UNL     1       5.919   3.900  15.762  0.00  0.00    +0.000 C 
ATOM     19  O   UNL     1       6.371   3.578  14.683  0.00  0.00    +0.000 OA
BRANCH  18  20
ATOM     20  C   UNL     1       6.522   4.961  16.654  0.00  0.00    +0.000 A 
ATOM     21  C   UNL     1       7.435   4.590  17.660  0.00  0.00    +0.000 A 
ATOM     22  C   UNL     1       8.054   5.561  18.464  0.00  0.00    +0.000 A 
ATOM     23  C   UNL     1       7.767   6.909  18.287  0.00  0.00    +0.000 A 
ATOM     24  C   UNL     1       6.824   7.292  17.335  0.00  0.00    +0.000 A 
ATOM     25  C   UNL     1       6.181   6.334  16.520  0.00  0.00    +0.000 A 
ATOM     26  C   UNL     1       5.150   6.835  15.547  0.00  0.00    +0.000 C 
ENDBRANCH  18  20
ENDBRANCH  17  18
ENDBRANCH   7  17
TORSDOF 5
ENDMDL
MODEL 3
REMARK VINA RESULT:      -7.0      1.768      2.846
REMARK  Name = 
REMARK  7 active torsions:
REMARK  status: ('A' for Active; 'I' for Inactive)
REMARK    1  A    between atoms: C_1  and  C_2
REMARK    2  A    between atoms: C_7  and  N_8
REMARK    3  A    between atoms: C_12  and  O_13
REMARK    4  A    between atoms: C_15  and  O_16
REMARK    5  A    between atoms: O_16  and  C_17
REMARK    6  A    between atoms: C_17  and  C_19
REMARK    7  A    between atoms: C_24  and  C_25
REMARK                            x       y       z     vdW  Elec       q    Type
REMARK                         _______ _______ _______ _____ _____    ______ ____
ROOT
ATOM      1  N   UNL     1       3.786   5.782  18.910  0.00  0.00    +0.000 NA
ATOM      2  C   UNL     1       3.544   4.686  18.265  0.00  0.00    +0.000 C 
ATOM      3  C   UNL     1       2.300   3.990  17.957  0.00  0.00    +0.000 C 
ATOM      4 CL   UNL     1       0.870   4.611  17.350  0.00  0.00    +0.000 Cl
ATOM      5  C   UNL     1       2.649   2.773  18.371  0.00  0.00    +0.000 C 
ATOM      6  O   UNL     1       4.004   2.590  18.670  0.00  0.00    +0.000 OA
ATOM      7  C   UNL     1       4.650   3.684  17.948  0.00  0.00    +0.000 C 
ENDROOT
BRANCH   1  14
ATOM      8  C   UNL     1       2.698   8.461  17.668  0.00  0.00    +0.000 C 
ATOM      9  C   UNL     1       2.306   7.849  18.985  0.00  0.00    +0.000 A 
ATOM     10  C   UNL     1       1.306   8.552  19.698  0.00  0.00    +0.000 A 
ATOM     11  C   UNL     1       0.705   8.009  20.827  0.00  0.00    +0.000 A 
ATOM     12  C   UNL     1       1.115   6.762  21.275  0.00  0.00    +0.000 A 
ATOM     13  C   UNL     1       2.168   6.101  20.631  0.00  0.00    +0.000 A 
ATOM     14  C   UNL     1       2.819   6.634  19.503  0.00  0.00    +0.000 A 
ENDBRANCH   1  14
BRANCH   5  15
ATOM     15  O   UNL     1       1.795   1.720  18.554  0.00  0.00    +0.000 OA
ATOM     16  H   UNL     1       1.755   1.523  19.505  0.00  0.00    +0.000 HD
ENDBRANCH   5  15
BRANCH   7  17
ATOM     17  O   UNL     1       4.749   3.376  16.551  0.00  0.00    +0.000 OA
BRANCH  17  18
ATOM     18  C   UNL     1       5.888   3.851  15.967  0.00  0.00    +0.000 C 
ATOM     19  O   UNL     1       6.342   3.444  14.918  0.00  0.00    +0.000 OA
BRANCH  18  20
ATOM     20  C   UNL     1       6.510   4.954  16.791  0.00  0.00    +0.000 A 
ATOM     21  C   UNL     1       7.408   4.629  17.827  0.00  0.00    +0.000 A 
ATOM     22  C   UNL     1       8.045   5.635  18.570  0.00  0.00    +0.000 A 
ATOM     23  C   UNL     1       7.792   6.975  18.302  0.00  0.00    +0.000 A 
ATOM     24  C   UNL     1       6.866   7.317  17.319  0.00  0.00    +0.000 A 
ATOM     25  C   UNL     1       6.205   6.323  16.564  0.00  0.00    +0.000 A 
ATOM     26  C   UNL     1       5.192   6.784  15.552  0.00  0.00    +0.000 C 
ENDBRANCH  18  20
ENDBRANCH  17  18
ENDBRANCH   7  17
TORSDOF 5
ENDMDL
MODEL 4
REMARK VINA RESULT:      -6.8      1.161      1.966
REMARK  Name = 
REMARK  7 active torsions:
REMARK  status: ('A' for Active; 'I' for Inactive)
REMARK    1  A    between atoms: C_1  and  C_2
REMARK    2  A    between atoms: C_7  and  N_8
REMARK    3  A    between atoms: C_12  and  O_13
REMARK    4  A    between atoms: C_15  and  O_16
REMARK    5  A    between atoms: O_16  and  C_17
REMARK    6  A    between atoms: C_17  and  C_19
REMARK    7  A    between atoms: C_24  and  C_25
REMARK                            x       y       z     vdW  Elec       q    Type
REMARK                         _______ _______ _______ _____ _____    ______ ____
ROOT
ATOM      1  N   UNL     1       3.285   6.617  19.404  0.00  0.00    +0.000 NA
ATOM      2  C   UNL     1       3.113   5.349  19.202  0.00  0.00    +0.000 C 
ATOM      3  C   UNL     1       1.972   4.587  18.708  0.00  0.00    +0.000 C 
ATOM      4 CL   UNL     1       1.003   4.885  17.377  0.00  0.00    +0.000 Cl
ATOM      5  C   UNL     1       1.922   3.665  19.669  0.00  0.00    +0.000 C 
ATOM      6  O   UNL     1       3.014   3.630  20.544  0.00  0.00    +0.000 OA
ATOM      7  C   UNL     1       4.062   4.310  19.788  0.00  0.00    +0.000 C 
ENDROOT
BRANCH   1  14
ATOM      8  C   UNL     1       1.399   7.917  21.562  0.00  0.00    +0.000 C 
ATOM      9  C   UNL     1       1.460   8.248  20.096  0.00  0.00    +0.000 A 
ATOM     10  C   UNL     1       0.597   9.290  19.681  0.00  0.00    +0.000 A 
ATOM     11  C   UNL     1       0.682   9.836  18.406  0.00  0.00    +0.000 A 
ATOM     12  C   UNL     1       1.618   9.328  17.517  0.00  0.00    +0.000 A 
ATOM     13  C   UNL     1       2.412   8.236  17.887  0.00  0.00    +0.000 A 
ATOM     14  C   UNL     1       2.332   7.639  19.160  0.00  0.00    +0.000 A 
ENDBRANCH   1  14
BRANCH   5  15
ATOM     15  O   UNL     1       0.891   2.791  19.879  0.00  0.00    +0.000 OA
ATOM     16  H   UNL     1       1.219   1.890  19.716  0.00  0.00    +0.000 HD
ENDBRANCH   5  15
BRANCH   7  17
ATOM     17  O   UNL     1       4.620   3.433  18.799  0.00  0.00    +0.000 OA
BRANCH  17  18
ATOM     18  C   UNL     1       4.980   4.070  17.647  0.00  0.00    +0.000 C 
ATOM     19  O   UNL     1       4.528   3.813  16.551  0.00  0.00    +0.000 OA
BRANCH  18  20
ATOM     20  C   UNL     1       6.014   5.141  17.909  0.00  0.00    +0.000 A 
ATOM     21  C   UNL     1       6.947   4.969  18.951  0.00  0.00    +0.000 A 
ATOM     22  C   UNL     1       7.954   5.920  19.180  0.00  0.00    +0.000 A 
ATOM     23  C   UNL     1       8.042   7.057  18.385  0.00  0.00    +0.000 A 
ATOM     24  C   UNL     1       7.096   7.272  17.385  0.00  0.00    +0.000 A 
ATOM     25  C   UNL     1       6.067   6.335  17.142  0.00  0.00    +0.000 A 
ATOM     26  C   UNL     1       5.068   6.669  16.068  0.00  0.00    +0.000 C 
ENDBRANCH  18  20
ENDBRANCH  17  18
ENDBRANCH   7  17
TORSDOF 5
ENDMDL
MODEL 5
REMARK VINA RESULT:      -6.7      2.938      4.561
REMARK  Name = 
REMARK  7 active torsions:
REMARK  status: ('A' for Active; 'I' for Inactive)
REMARK    1  A    between atoms: C_1  and  C_2
REMARK    2  A    between atoms: C_7  and  N_8
REMARK    3  A    between atoms: C_12  and  O_13
REMARK    4  A    between atoms: C_15  and  O_16
REMARK    5  A    between atoms: O_16  and  C_17
REMARK    6  A    between atoms: C_17  and  C_19
REMARK    7  A    between atoms: C_24  and  C_25
REMARK                            x       y       z     vdW  Elec       q    Type
REMARK                         _______ _______ _______ _____ _____    ______ ____
ROOT
ATOM      1  N   UNL     1       3.291   4.679  17.696  0.00  0.00    +0.000 NA
ATOM      2  C   UNL     1       4.576   4.631  17.851  0.00  0.00    +0.000 C 
ATOM      3  C   UNL     1       5.410   4.111  18.928  0.00  0.00    +0.000 C 
ATOM      4 CL   UNL     1       5.305   2.644  19.725  0.00  0.00    +0.000 Cl
ATOM      5  C   UNL     1       6.193   5.176  19.101  0.00  0.00    +0.000 C 
ATOM      6  O   UNL     1       6.098   6.174  18.124  0.00  0.00    +0.000 OA
ATOM      7  C   UNL     1       5.517   5.465  16.987  0.00  0.00    +0.000 C 
ENDROOT
BRANCH   1  14
ATOM      8  C   UNL     1       2.165   6.224  20.195  0.00  0.00    +0.000 C 
ATOM      9  C   UNL     1       1.792   4.839  19.744  0.00  0.00    +0.000 A 
ATOM     10  C   UNL     1       0.792   4.205  20.519  0.00  0.00    +0.000 A 
ATOM     11  C   UNL     1       0.207   3.012  20.112  0.00  0.00    +0.000 A 
ATOM     12  C   UNL     1       0.634   2.421  18.932  0.00  0.00    +0.000 A 
ATOM     13  C   UNL     1       1.686   2.991  18.206  0.00  0.00    +0.000 A 
ATOM     14  C   UNL     1       2.321   4.183  18.605  0.00  0.00    +0.000 A 
ENDBRANCH   1  14
BRANCH   5  15
ATOM     15  O   UNL     1       7.040   5.376  20.156  0.00  0.00    +0.000 OA
ATOM     16  H   UNL     1       7.321   4.507  20.490  0.00  0.00    +0.000 HD
ENDBRANCH   5  15
BRANCH   7  17
ATOM     17  O   UNL     1       6.515   4.680  16.319  0.00  0.00    +0.000 OA
BRANCH  17  18
ATOM     18  C   UNL     1       7.130   5.338  15.293  0.00  0.00    +0.000 C 
ATOM     19  O   UNL     1       7.821   6.326  15.428  0.00  0.00    +0.000 OA
BRANCH  18  20
ATOM     20  C   UNL     1       6.843   4.675  13.965  0.00  0.00    +0.000 A 
ATOM     21  C   UNL     1       5.807   3.727  13.868  0.00  0.00    +0.000 A 
ATOM     22  C   UNL     1       5.481   3.139  12.635  0.00  0.00    +0.000 A 
ATOM     23  C   UNL     1       6.186   3.479  11.486  0.00  0.00    +0.000 A 
ATOM     24  C   UNL     1       7.250   4.373  11.571  0.00  0.00    +0.000 A 
ATOM     25  C   UNL     1       7.603   4.970  12.801  0.00  0.00    +0.000 A 
ATOM     26  C   UNL     1       8.791   5.894  12.805  0.00  0.00    +0.000 C 
ENDBRANCH  18  20
ENDBRANCH  17  18
ENDBRANCH   7  17
TORSDOF 5
ENDMDL
MODEL 6
REMARK VINA RESULT:      -6.7      1.162      1.442
REMARK  Name = 
REMARK  7 active torsions:
REMARK  status: ('A' for Active; 'I' for Inactive)
REMARK    1  A    between atoms: C_1  and  C_2
REMARK    2  A    between atoms: C_7  and  N_8
REMARK    3  A    between atoms: C_12  and  O_13
REMARK    4  A    between atoms: C_15  and  O_16
REMARK    5  A    between atoms: O_16  and  C_17
REMARK    6  A    between atoms: C_17  and  C_19
REMARK    7  A    between atoms: C_24  and  C_25
REMARK                            x       y       z     vdW  Elec       q    Type
REMARK                         _______ _______ _______ _____ _____    ______ ____
ROOT
ATOM      1  N   UNL     1       2.796   6.088  20.049  0.00  0.00    +0.000 NA
ATOM      2  C   UNL     1       2.436   4.878  19.756  0.00  0.00    +0.000 C 
ATOM      3  C   UNL     1       1.418   4.355  18.853  0.00  0.00    +0.000 C 
ATOM      4 CL   UNL     1       1.094   4.787  17.269  0.00  0.00    +0.000 Cl
ATOM      5  C   UNL     1       0.819   3.517  19.697  0.00  0.00    +0.000 C 
ATOM      6  O   UNL     1       1.478   3.292  20.911  0.00  0.00    +0.000 OA
ATOM      7  C   UNL     1       2.852   3.690  20.617  0.00  0.00    +0.000 C 
ENDROOT
BRANCH   1  14
ATOM      8  C   UNL     1       1.053   8.186  21.618  0.00  0.00    +0.000 C 
ATOM      9  C   UNL     1       1.453   8.245  20.169  0.00  0.00    +0.000 A 
ATOM     10  C   UNL     1       1.024   9.401  19.475  0.00  0.00    +0.000 A 
ATOM     11  C   UNL     1       1.481   9.688  18.194  0.00  0.00    +0.000 A 
ATOM     12  C   UNL     1       2.357   8.806  17.578  0.00  0.00    +0.000 A 
ATOM     13  C   UNL     1       2.713   7.614  18.220  0.00  0.00    +0.000 A 
ATOM     14  C   UNL     1       2.247   7.278  19.505  0.00  0.00    +0.000 A 
ENDBRANCH   1  14
BRANCH   5  15
ATOM     15  O   UNL     1      -0.382   2.898  19.485  0.00  0.00    +0.000 OA
ATOM     16  H   UNL     1      -1.091   3.531  19.692  0.00  0.00    +0.000 HD
ENDBRANCH   5  15
BRANCH   7  17
ATOM     17  O   UNL     1       3.526   2.664  19.874  0.00  0.00    +0.000 OA
BRANCH  17  18
ATOM     18  C   UNL     1       4.844   2.934  19.643  0.00  0.00    +0.000 C 
ATOM     19  O   UNL     1       5.754   2.569  20.358  0.00  0.00    +0.000 OA
BRANCH  18  20
ATOM     20  C   UNL     1       5.028   3.743  18.380  0.00  0.00    +0.000 A 
ATOM     21  C   UNL     1       4.427   3.310  17.182  0.00  0.00    +0.000 A 
ATOM     22  C   UNL     1       4.532   4.073  16.007  0.00  0.00    +0.000 A 
ATOM     23  C   UNL     1       5.244   5.267  16.005  0.00  0.00    +0.000 A 
ATOM     24  C   UNL     1       5.892   5.683  17.165  0.00  0.00    +0.000 A 
ATOM     25  C   UNL     1       5.808   4.930  18.357  0.00  0.00    +0.000 A 
ATOM     26  C   UNL     1       6.572   5.436  19.550  0.00  0.00    +0.000 C 
ENDBRANCH  18  20
ENDBRANCH  17  18
ENDBRANCH   7  17
TORSDOF 5
ENDMDL
MODEL 7
REMARK VINA RESULT:      -6.7      6.410      9.134
REMARK  Name = 
REMARK  7 active torsions:
REMARK  status: ('A' for Active; 'I' for Inactive)
REMARK    1  A    between atoms: C_1  and  C_2
REMARK    2  A    between atoms: C_7  and  N_8
REMARK    3  A    between atoms: C_12  and  O_13
REMARK    4  A    between atoms: C_15  and  O_16
REMARK    5  A    between atoms: O_16  and  C_17
REMARK    6  A    between atoms: C_17  and  C_19
REMARK    7  A    between atoms: C_24  and  C_25
REMARK                            x       y       z     vdW  Elec       q    Type
REMARK                         _______ _______ _______ _____ _____    ______ ____
ROOT
ATOM      1  N   UNL     1      -1.763  10.155  19.121  0.00  0.00    +0.000 NA
ATOM      2  C   UNL     1      -0.659  10.771  19.403  0.00  0.00    +0.000 C 
ATOM      3  C   UNL     1       0.059  11.846  18.728  0.00  0.00    +0.000 C 
ATOM      4 CL   UNL     1      -0.536  13.286  18.115  0.00  0.00    +0.000 Cl
ATOM      5  C   UNL     1       1.268  11.287  18.700  0.00  0.00    +0.000 C 
ATOM      6  O   UNL     1       1.427  10.128  19.469  0.00  0.00    +0.000 OA
ATOM      7  C   UNL     1       0.327  10.216  20.426  0.00  0.00    +0.000 C 
ENDROOT
BRANCH   1  14
ATOM      8  C   UNL     1      -4.225  12.114  19.099  0.00  0.00    +0.000 C 
ATOM      9  C   UNL     1      -3.723  11.280  17.953  0.00  0.00    +0.000 A 
ATOM     10  C   UNL     1      -4.424  11.448  16.735  0.00  0.00    +0.000 A 
ATOM     11  C   UNL     1      -3.957  10.898  15.548  0.00  0.00    +0.000 A 
ATOM     12  C   UNL     1      -2.791  10.147  15.567  0.00  0.00    +0.000 A 
ATOM     13  C   UNL     1      -2.141   9.896  16.782  0.00  0.00    +0.000 A 
ATOM     14  C   UNL     1      -2.603  10.414  18.007  0.00  0.00    +0.000 A 
ENDBRANCH   1  14
BRANCH   5  15
ATOM     15  O   UNL     1       2.333  11.732  17.967  0.00  0.00    +0.000 OA
ATOM     16  H   UNL     1       2.755  10.964  17.547  0.00  0.00    +0.000 HD
ENDBRANCH   5  15
BRANCH   7  17
ATOM     17  O   UNL     1       0.641  11.148  21.470  0.00  0.00    +0.000 OA
BRANCH  17  18
ATOM     18  C   UNL     1      -0.157  11.024  22.571  0.00  0.00    +0.000 C 
ATOM     19  O   UNL     1      -0.052  10.142  23.398  0.00  0.00    +0.000 OA
BRANCH  18  20
ATOM     20  C   UNL     1      -1.187  12.128  22.632  0.00  0.00    +0.000 A 
ATOM     21  C   UNL     1      -2.510  11.827  23.010  0.00  0.00    +0.000 A 
ATOM     22  C   UNL     1      -3.473  12.842  23.131  0.00  0.00    +0.000 A 
ATOM     23  C   UNL     1      -3.137  14.165  22.869  0.00  0.00    +0.000 A 
ATOM     24  C   UNL     1      -1.849  14.476  22.441  0.00  0.00    +0.000 A 
ATOM     25  C   UNL     1      -0.865  13.472  22.302  0.00  0.00    +0.000 A 
ATOM     26  C   UNL     1       0.487  13.895  21.797  0.00  0.00    +0.000 C 
ENDBRANCH  18  20
ENDBRANCH  17  18
ENDBRANCH   7  17
TORSDOF 5
ENDMDL
MODEL 8
REMARK VINA RESULT:      -6.6      3.129      4.703
REMARK  Name = 
REMARK  7 active torsions:
REMARK  status: ('A' for Active; 'I' for Inactive)
REMARK    1  A    between atoms: C_1  and  C_2
REMARK    2  A    between atoms: C_7  and  N_8
REMARK    3  A    between atoms: C_12  and  O_13
REMARK    4  A    between atoms: C_15  and  O_16
REMARK    5  A    between atoms: O_16  and  C_17
REMARK    6  A    between atoms: C_17  and  C_19
REMARK    7  A    between atoms: C_24  and  C_25
REMARK                            x       y       z     vdW  Elec       q    Type
REMARK                         _______ _______ _______ _____ _____    ______ ____
ROOT
ATOM      1  N   UNL     1       3.428   5.007  17.699  0.00  0.00    +0.000 NA
ATOM      2  C   UNL     1       4.705   4.855  17.858  0.00  0.00    +0.000 C 
ATOM      3  C   UNL     1       5.488   4.238  18.922  0.00  0.00    +0.000 C 
ATOM      4 CL   UNL     1       5.264   2.759  19.672  0.00  0.00    +0.000 Cl
ATOM      5  C   UNL     1       6.350   5.232  19.133  0.00  0.00    +0.000 C 
ATOM      6  O   UNL     1       6.340   6.265  18.188  0.00  0.00    +0.000 OA
ATOM      7  C   UNL     1       5.713   5.640  17.026  0.00  0.00    +0.000 C 
ENDROOT
BRANCH   1  14
ATOM      8  C   UNL     1       2.188   2.116  17.758  0.00  0.00    +0.000 C 
ATOM      9  C   UNL     1       1.825   3.274  18.646  0.00  0.00    +0.000 A 
ATOM     10  C   UNL     1       0.852   2.992  19.633  0.00  0.00    +0.000 A 
ATOM     11  C   UNL     1       0.560   3.899  20.644  0.00  0.00    +0.000 A 
ATOM     12  C   UNL     1       1.223   5.117  20.667  0.00  0.00    +0.000 A 
ATOM     13  C   UNL     1       2.119   5.444  19.643  0.00  0.00    +0.000 A 
ATOM     14  C   UNL     1       2.416   4.560  18.588  0.00  0.00    +0.000 A 
ENDBRANCH   1  14
BRANCH   5  15
ATOM     15  O   UNL     1       7.203   5.333  20.197  0.00  0.00    +0.000 OA
ATOM     16  H   UNL     1       8.112   5.234  19.868  0.00  0.00    +0.000 HD
ENDBRANCH   5  15
BRANCH   7  17
ATOM     17  O   UNL     1       6.652   4.801  16.338  0.00  0.00    +0.000 OA
BRANCH  17  18
ATOM     18  C   UNL     1       7.257   5.413  15.278  0.00  0.00    +0.000 C 
ATOM     19  O   UNL     1       7.975   6.387  15.367  0.00  0.00    +0.000 OA
BRANCH  18  20
ATOM     20  C   UNL     1       6.921   4.720  13.977  0.00  0.00    +0.000 A 
ATOM     21  C   UNL     1       5.887   3.764  13.943  0.00  0.00    +0.000 A 
ATOM     22  C   UNL     1       5.515   3.148  12.737  0.00  0.00    +0.000 A 
ATOM     23  C   UNL     1       6.171   3.465  11.554  0.00  0.00    +0.000 A 
ATOM     24  C   UNL     1       7.233   4.367  11.577  0.00  0.00    +0.000 A 
ATOM     25  C   UNL     1       7.632   4.993  12.778  0.00  0.00    +0.000 A 
ATOM     26  C   UNL     1       8.814   5.922  12.714  0.00  0.00    +0.000 C 
ENDBRANCH  18  20
ENDBRANCH  17  18
ENDBRANCH   7  17
TORSDOF 5
ENDMDL
MODEL 9
REMARK VINA RESULT:      -6.6      0.614      1.463
REMARK  Name = 
REMARK  7 active torsions:
REMARK  status: ('A' for Active; 'I' for Inactive)
REMARK    1  A    between atoms: C_1  and  C_2
REMARK    2  A    between atoms: C_7  and  N_8
REMARK    3  A    between atoms: C_12  and  O_13
REMARK    4  A    between atoms: C_15  and  O_16
REMARK    5  A    between atoms: O_16  and  C_17
REMARK    6  A    between atoms: C_17  and  C_19
REMARK    7  A    between atoms: C_24  and  C_25
REMARK                            x       y       z     vdW  Elec       q    Type
REMARK                         _______ _______ _______ _____ _____    ______ ____
ROOT
ATOM      1  N   UNL     1       3.046   6.484  20.089  0.00  0.00    +0.000 NA
ATOM      2  C   UNL     1       2.922   5.319  19.534  0.00  0.00    +0.000 C 
ATOM      3  C   UNL     1       1.861   4.734  18.723  0.00  0.00    +0.000 C 
ATOM      4 CL   UNL     1       1.049   5.393  17.416  0.00  0.00    +0.000 Cl
ATOM      5  C   UNL     1       1.715   3.589  19.388  0.00  0.00    +0.000 C 
ATOM      6  O   UNL     1       2.698   3.304  20.344  0.00  0.00    +0.000 OA
ATOM      7  C   UNL     1       3.815   4.147  19.927  0.00  0.00    +0.000 C 
ENDROOT
BRANCH   1  14
ATOM      8  C   UNL     1       2.609   8.378  17.615  0.00  0.00    +0.000 C 
ATOM      9  C   UNL     1       1.883   8.427  18.931  0.00  0.00    +0.000 A 
ATOM     10  C   UNL     1       0.870   9.411  19.021  0.00  0.00    +0.000 A 
ATOM     11  C   UNL     1      -0.012   9.447  20.094  0.00  0.00    +0.000 A 
ATOM     12  C   UNL     1       0.124   8.511  21.109  0.00  0.00    +0.000 A 
ATOM     13  C   UNL     1       1.180   7.593  21.075  0.00  0.00    +0.000 A 
ATOM     14  C   UNL     1       2.109   7.547  20.018  0.00  0.00    +0.000 A 
ENDBRANCH   1  14
BRANCH   5  15
ATOM     15  O   UNL     1       0.683   2.705  19.233  0.00  0.00    +0.000 OA
ATOM     16  H   UNL     1       1.061   1.824  19.063  0.00  0.00    +0.000 HD
ENDBRANCH   5  15
BRANCH   7  17
ATOM     17  O   UNL     1       4.500   3.561  18.812  0.00  0.00    +0.000 OA
BRANCH  17  18
ATOM     18  C   UNL     1       5.654   4.210  18.478  0.00  0.00    +0.000 C 
ATOM     19  O   UNL     1       6.531   4.499  19.266  0.00  0.00    +0.000 OA
BRANCH  18  20
ATOM     20  C   UNL     1       5.704   4.520  17.000  0.00  0.00    +0.000 A 
ATOM     21  C   UNL     1       5.851   3.471  16.072  0.00  0.00    +0.000 A 
ATOM     22  C   UNL     1       5.842   3.725  14.691  0.00  0.00    +0.000 A 
ATOM     23  C   UNL     1       5.697   5.022  14.215  0.00  0.00    +0.000 A 
ATOM     24  C   UNL     1       5.606   6.080  15.117  0.00  0.00    +0.000 A 
ATOM     25  C   UNL     1       5.622   5.852  16.511  0.00  0.00    +0.000 A 
ATOM     26  C   UNL     1       5.558   7.057  17.409  0.00  0.00    +0.000 C 
ENDBRANCH  18  20
ENDBRANCH  17  18
ENDBRANCH   7  17
TORSDOF 5
ENDMDL
