MODEL 1
REMARK VINA RESULT:      -9.1      0.000      0.000
REMARK  Name = 
REMARK  4 active torsions:
REMARK  status: ('A' for Active; 'I' for Inactive)
REMARK    1  A    between atoms: C_1  and  C_2
REMARK    2  A    between atoms: C_10  and  C_11
REMARK    3  A    between atoms: C_20  and  C_21
REMARK    4  A    between atoms: C_29  and  C_30
REMARK                            x       y       z     vdW  Elec       q    Type
REMARK                         _______ _______ _______ _____ _____    ______ ____
ROOT
ATOM      1  C   UNL     1      -1.090  12.542  18.794  0.00  0.00    +0.000 C 
ATOM      2  O   UNL     1      -1.098  13.998  18.727  0.00  0.00    +0.000 OA
ATOM      3  C   UNL     1       0.271  14.276  18.878  0.00  0.00    +0.000 C 
ATOM      4  C   UNL     1       1.073  13.273  18.542  0.00  0.00    +0.000 C 
ATOM      5  C   UNL     1       2.534  13.368  18.721  0.00  0.00    +0.000 C 
ATOM      6  O   UNL     1       3.284  12.515  18.257  0.00  0.00    +0.000 OA
ATOM      7  C   UNL     1       3.039  14.501  19.583  0.00  0.00    +0.000 C 
ATOM      8  C   UNL     1       2.229  15.775  19.344  0.00  0.00    +0.000 C 
ATOM      9  C   UNL     1       0.713  15.566  19.484  0.00  0.00    +0.000 C 
ATOM     10  C   UNL     1       0.275  12.067  18.200  0.00  0.00    +0.000 C 
ENDROOT
BRANCH   1  20
ATOM     11  C   UNL     1      -5.417  13.118  22.106  0.00  0.00    +0.000 C 
ATOM     12  C   UNL     1      -5.195  12.485  20.763  0.00  0.00    +0.000 A 
ATOM     13  C   UNL     1      -6.258  11.881  20.081  0.00  0.00    +0.000 A 
ATOM     14  C   UNL     1      -6.043  11.290  18.847  0.00  0.00    +0.000 A 
ATOM     15  C   UNL     1      -4.760  11.308  18.298  0.00  0.00    +0.000 A 
ATOM     16  O   UNL     1      -4.643  10.687  17.042  0.00  0.00    +0.000 OA
ATOM     17  C   UNL     1      -3.433  10.639  16.388  0.00  0.00    +0.000 A 
ATOM     18  O   UNL     1      -3.290  10.116  15.288  0.00  0.00    +0.000 OA
ATOM     19  C   UNL     1      -2.291  11.268  17.070  0.00  0.00    +0.000 A 
ATOM     20  C   UNL     1      -2.352  11.881  18.267  0.00  0.00    +0.000 A 
ATOM     21  C   UNL     1      -3.663  11.901  18.942  0.00  0.00    +0.000 A 
ATOM     22  C   UNL     1      -3.905  12.481  20.195  0.00  0.00    +0.000 A 
ENDBRANCH   1  20
BRANCH  10  23
ATOM     23  C   UNL     1       0.836  10.799  18.821  0.00  0.00    +0.000 A 
ATOM     24  C   UNL     1       1.411   9.841  18.072  0.00  0.00    +0.000 A 
ATOM     25  C   UNL     1       1.846   8.536  18.589  0.00  0.00    +0.000 A 
ATOM     26  O   UNL     1       2.308   7.696  17.825  0.00  0.00    +0.000 OA
ATOM     27  O   UNL     1       1.715   8.328  19.943  0.00  0.00    +0.000 OA
ATOM     28  C   UNL     1       0.985   9.238  20.728  0.00  0.00    +0.000 A 
ATOM     29  C   UNL     1       0.641   8.791  22.001  0.00  0.00    +0.000 A 
ATOM     30  C   UNL     1      -0.204   9.562  22.792  0.00  0.00    +0.000 A 
ATOM     31  C   UNL     1      -0.658  10.798  22.326  0.00  0.00    +0.000 A 
ATOM     32  C   UNL     1      -1.688  11.584  23.083  0.00  0.00    +0.000 C 
ATOM     33  C   UNL     1      -0.216  11.274  21.083  0.00  0.00    +0.000 A 
ATOM     34  C   UNL     1       0.566  10.476  20.234  0.00  0.00    +0.000 A 
ENDBRANCH  10  23
TORSDOF 2
ENDMDL
MODEL 2
REMARK VINA RESULT:      -8.7      1.489      2.793
REMARK  Name = 
REMARK  4 active torsions:
REMARK  status: ('A' for Active; 'I' for Inactive)
REMARK    1  A    between atoms: C_1  and  C_2
REMARK    2  A    between atoms: C_10  and  C_11
REMARK    3  A    between atoms: C_20  and  C_21
REMARK    4  A    between atoms: C_29  and  C_30
REMARK                            x       y       z     vdW  Elec       q    Type
REMARK                         _______ _______ _______ _____ _____    ______ ____
ROOT
ATOM      1  C   UNL     1      -1.582  12.683  19.297  0.00  0.00    +0.000 C 
ATOM      2  O   UNL     1      -1.347  14.086  18.978  0.00  0.00    +0.000 OA
ATOM      3  C   UNL     1      -0.132  14.308  19.649  0.00  0.00    +0.000 C 
ATOM      4  C   UNL     1       0.579  13.208  19.870  0.00  0.00    +0.000 C 
ATOM      5  C   UNL     1       1.838  13.253  20.637  0.00  0.00    +0.000 C 
ATOM      6  O   UNL     1       2.576  12.274  20.696  0.00  0.00    +0.000 OA
ATOM      7  C   UNL     1       2.112  14.516  21.418  0.00  0.00    +0.000 C 
ATOM      8  C   UNL     1       1.668  15.751  20.636  0.00  0.00    +0.000 C 
ATOM      9  C   UNL     1       0.212  15.671  20.148  0.00  0.00    +0.000 C 
ATOM     10  C   UNL     1      -0.181  12.007  19.437  0.00  0.00    +0.000 C 
ENDROOT
BRANCH   1  20
ATOM     11  C   UNL     1      -6.626  12.561  21.434  0.00  0.00    +0.000 C 
ATOM     12  C   UNL     1      -6.020  12.105  20.139  0.00  0.00    +0.000 A 
ATOM     13  C   UNL     1      -6.817  11.511  19.155  0.00  0.00    +0.000 A 
ATOM     14  C   UNL     1      -6.249  11.084  17.967  0.00  0.00    +0.000 A 
ATOM     15  C   UNL     1      -4.878  11.257  17.767  0.00  0.00    +0.000 A 
ATOM     16  O   UNL     1      -4.396  10.795  16.529  0.00  0.00    +0.000 OA
ATOM     17  C   UNL     1      -3.063  10.910  16.204  0.00  0.00    +0.000 A 
ATOM     18  O   UNL     1      -2.603  10.529  15.133  0.00  0.00    +0.000 OA
ATOM     19  C   UNL     1      -2.192  11.535  17.211  0.00  0.00    +0.000 A 
ATOM     20  C   UNL     1      -2.606  11.999  18.405  0.00  0.00    +0.000 A 
ATOM     21  C   UNL     1      -4.037  11.847  18.722  0.00  0.00    +0.000 A 
ATOM     22  C   UNL     1      -4.636  12.260  19.921  0.00  0.00    +0.000 A 
ENDBRANCH   1  20
BRANCH  10  23
ATOM     23  C   UNL     1      -0.115  10.877  20.450  0.00  0.00    +0.000 A 
ATOM     24  C   UNL     1      -0.490  11.052  21.729  0.00  0.00    +0.000 A 
ATOM     25  C   UNL     1      -0.321  10.047  22.787  0.00  0.00    +0.000 A 
ATOM     26  O   UNL     1      -0.638  10.311  23.941  0.00  0.00    +0.000 OA
ATOM     27  O   UNL     1       0.190   8.826  22.410  0.00  0.00    +0.000 OA
ATOM     28  C   UNL     1       0.731   8.657  21.123  0.00  0.00    +0.000 A 
ATOM     29  C   UNL     1       1.498   7.508  20.941  0.00  0.00    +0.000 A 
ATOM     30  C   UNL     1       2.193   7.331  19.749  0.00  0.00    +0.000 A 
ATOM     31  C   UNL     1       2.076   8.277  18.728  0.00  0.00    +0.000 A 
ATOM     32  C   UNL     1       2.927   8.198  17.494  0.00  0.00    +0.000 C 
ATOM     33  C   UNL     1       1.218   9.374  18.896  0.00  0.00    +0.000 A 
ATOM     34  C   UNL     1       0.576   9.617  20.119  0.00  0.00    +0.000 A 
ENDBRANCH  10  23
TORSDOF 2
ENDMDL
MODEL 3
REMARK VINA RESULT:      -8.6      2.458      5.579
REMARK  Name = 
REMARK  4 active torsions:
REMARK  status: ('A' for Active; 'I' for Inactive)
REMARK    1  A    between atoms: C_1  and  C_2
REMARK    2  A    between atoms: C_10  and  C_11
REMARK    3  A    between atoms: C_20  and  C_21
REMARK    4  A    between atoms: C_29  and  C_30
REMARK                            x       y       z     vdW  Elec       q    Type
REMARK                         _______ _______ _______ _____ _____    ______ ____
ROOT
ATOM      1  C   UNL     1      -3.327  12.907  20.977  0.00  0.00    +0.000 C 
ATOM      2  O   UNL     1      -4.276  13.018  22.078  0.00  0.00    +0.000 OA
ATOM      3  C   UNL     1      -3.544  13.813  22.977  0.00  0.00    +0.000 C 
ATOM      4  C   UNL     1      -2.594  14.546  22.410  0.00  0.00    +0.000 C 
ATOM      5  C   UNL     1      -1.679  15.371  23.220  0.00  0.00    +0.000 C 
ATOM      6  O   UNL     1      -0.917  16.174  22.691  0.00  0.00    +0.000 OA
ATOM      7  C   UNL     1      -1.659  15.102  24.706  0.00  0.00    +0.000 C 
ATOM      8  C   UNL     1      -3.065  14.810  25.229  0.00  0.00    +0.000 C 
ATOM      9  C   UNL     1      -3.786  13.702  24.445  0.00  0.00    +0.000 C 
ATOM     10  C   UNL     1      -2.492  14.228  20.962  0.00  0.00    +0.000 C 
ENDROOT
BRANCH   1  20
ATOM     11  C   UNL     1       0.028   9.800  17.957  0.00  0.00    +0.000 C 
ATOM     12  C   UNL     1      -1.387  10.278  17.806  0.00  0.00    +0.000 A 
ATOM     13  C   UNL     1      -2.145   9.903  16.690  0.00  0.00    +0.000 A 
ATOM     14  C   UNL     1      -3.446  10.356  16.552  0.00  0.00    +0.000 A 
ATOM     15  C   UNL     1      -3.987  11.184  17.537  0.00  0.00    +0.000 A 
ATOM     16  O   UNL     1      -5.314  11.588  17.310  0.00  0.00    +0.000 OA
ATOM     17  C   UNL     1      -5.967  12.402  18.207  0.00  0.00    +0.000 A 
ATOM     18  O   UNL     1      -7.127  12.770  18.052  0.00  0.00    +0.000 OA
ATOM     19  C   UNL     1      -5.206  12.814  19.397  0.00  0.00    +0.000 A 
ATOM     20  C   UNL     1      -3.938  12.449  19.664  0.00  0.00    +0.000 A 
ATOM     21  C   UNL     1      -3.268  11.587  18.673  0.00  0.00    +0.000 A 
ATOM     22  C   UNL     1      -1.949  11.124  18.782  0.00  0.00    +0.000 A 
ENDBRANCH   1  20
BRANCH  10  23
ATOM     23  C   UNL     1      -1.054  14.070  20.498  0.00  0.00    +0.000 A 
ATOM     24  C   UNL     1      -0.236  13.148  21.036  0.00  0.00    +0.000 A 
ATOM     25  C   UNL     1       1.198  13.036  20.733  0.00  0.00    +0.000 A 
ATOM     26  O   UNL     1       1.884  12.202  21.313  0.00  0.00    +0.000 OA
ATOM     27  O   UNL     1       1.702  13.892  19.782  0.00  0.00    +0.000 OA
ATOM     28  C   UNL     1       0.919  14.962  19.312  0.00  0.00    +0.000 A 
ATOM     29  C   UNL     1       1.608  15.944  18.604  0.00  0.00    +0.000 A 
ATOM     30  C   UNL     1       0.948  17.108  18.229  0.00  0.00    +0.000 A 
ATOM     31  C   UNL     1      -0.410  17.262  18.519  0.00  0.00    +0.000 A 
ATOM     32  C   UNL     1      -1.116  18.562  18.268  0.00  0.00    +0.000 C 
ATOM     33  C   UNL     1      -1.107  16.217  19.143  0.00  0.00    +0.000 A 
ATOM     34  C   UNL     1      -0.443  15.072  19.606  0.00  0.00    +0.000 A 
ENDBRANCH  10  23
TORSDOF 2
ENDMDL
MODEL 4
REMARK VINA RESULT:      -8.3      2.402      5.301
REMARK  Name = 
REMARK  4 active torsions:
REMARK  status: ('A' for Active; 'I' for Inactive)
REMARK    1  A    between atoms: C_1  and  C_2
REMARK    2  A    between atoms: C_10  and  C_11
REMARK    3  A    between atoms: C_20  and  C_21
REMARK    4  A    between atoms: C_29  and  C_30
REMARK                            x       y       z     vdW  Elec       q    Type
REMARK                         _______ _______ _______ _____ _____    ______ ____
ROOT
ATOM      1  C   UNL     1      -3.741  12.714  20.849  0.00  0.00    +0.000 C 
ATOM      2  O   UNL     1      -4.664  12.445  21.945  0.00  0.00    +0.000 OA
ATOM      3  C   UNL     1      -4.097  13.228  22.965  0.00  0.00    +0.000 C 
ATOM      4  C   UNL     1      -3.339  14.227  22.530  0.00  0.00    +0.000 C 
ATOM      5  C   UNL     1      -2.601  15.092  23.469  0.00  0.00    +0.000 C 
ATOM      6  O   UNL     1      -2.041  16.113  23.080  0.00  0.00    +0.000 OA
ATOM      7  C   UNL     1      -2.488  14.605  24.894  0.00  0.00    +0.000 C 
ATOM      8  C   UNL     1      -3.786  13.941  25.351  0.00  0.00    +0.000 C 
ATOM      9  C   UNL     1      -4.274  12.840  24.395  0.00  0.00    +0.000 C 
ATOM     10  C   UNL     1      -3.207  14.169  21.051  0.00  0.00    +0.000 C 
ENDROOT
BRANCH   1  20
ATOM     11  C   UNL     1      -0.207   9.811  17.831  0.00  0.00    +0.000 C 
ATOM     12  C   UNL     1      -1.611  10.301  17.629  0.00  0.00    +0.000 A 
ATOM     13  C   UNL     1      -2.301  10.003  16.448  0.00  0.00    +0.000 A 
ATOM     14  C   UNL     1      -3.593  10.466  16.264  0.00  0.00    +0.000 A 
ATOM     15  C   UNL     1      -4.193  11.227  17.269  0.00  0.00    +0.000 A 
ATOM     16  O   UNL     1      -5.505  11.648  16.991  0.00  0.00    +0.000 OA
ATOM     17  C   UNL     1      -6.212  12.401  17.900  0.00  0.00    +0.000 A 
ATOM     18  O   UNL     1      -7.361  12.781  17.702  0.00  0.00    +0.000 OA
ATOM     19  C   UNL     1      -5.523  12.730  19.158  0.00  0.00    +0.000 A 
ATOM     20  C   UNL     1      -4.273  12.346  19.474  0.00  0.00    +0.000 A 
ATOM     21  C   UNL     1      -3.544  11.551  18.470  0.00  0.00    +0.000 A 
ATOM     22  C   UNL     1      -2.232  11.080  18.625  0.00  0.00    +0.000 A 
ENDBRANCH   1  20
BRANCH  10  23
ATOM     23  C   UNL     1      -1.780  14.397  20.582  0.00  0.00    +0.000 A 
ATOM     24  C   UNL     1      -1.465  15.397  19.740  0.00  0.00    +0.000 A 
ATOM     25  C   UNL     1      -0.137  15.587  19.141  0.00  0.00    +0.000 A 
ATOM     26  O   UNL     1       0.049  16.493  18.336  0.00  0.00    +0.000 OA
ATOM     27  O   UNL     1       0.854  14.719  19.536  0.00  0.00    +0.000 OA
ATOM     28  C   UNL     1       0.531  13.578  20.292  0.00  0.00    +0.000 A 
ATOM     29  C   UNL     1       1.528  12.609  20.372  0.00  0.00    +0.000 A 
ATOM     30  C   UNL     1       1.248  11.387  20.972  0.00  0.00    +0.000 A 
ATOM     31  C   UNL     1      -0.012  11.158  21.532  0.00  0.00    +0.000 A 
ATOM     32  C   UNL     1      -0.399   9.804  22.049  0.00  0.00    +0.000 C 
ATOM     33  C   UNL     1      -0.967  12.186  21.529  0.00  0.00    +0.000 A 
ATOM     34  C   UNL     1      -0.735  13.394  20.855  0.00  0.00    +0.000 A 
ENDBRANCH  10  23
TORSDOF 2
ENDMDL
MODEL 5
REMARK VINA RESULT:      -8.2      1.760      2.722
REMARK  Name = 
REMARK  4 active torsions:
REMARK  status: ('A' for Active; 'I' for Inactive)
REMARK    1  A    between atoms: C_1  and  C_2
REMARK    2  A    between atoms: C_10  and  C_11
REMARK    3  A    between atoms: C_20  and  C_21
REMARK    4  A    between atoms: C_29  and  C_30
REMARK                            x       y       z     vdW  Elec       q    Type
REMARK                         _______ _______ _______ _____ _____    ______ ____
ROOT
ATOM      1  C   UNL     1      -1.259  12.787  18.806  0.00  0.00    +0.000 C 
ATOM      2  O   UNL     1      -0.608  13.805  17.991  0.00  0.00    +0.000 OA
ATOM      3  C   UNL     1       0.537  14.068  18.763  0.00  0.00    +0.000 C 
ATOM      4  C   UNL     1       0.884  13.080  19.580  0.00  0.00    +0.000 C 
ATOM      5  C   UNL     1       2.010  13.226  20.521  0.00  0.00    +0.000 C 
ATOM      6  O   UNL     1       2.435  12.262  21.150  0.00  0.00    +0.000 OA
ATOM      7  C   UNL     1       2.534  14.625  20.739  0.00  0.00    +0.000 C 
ATOM      8  C   UNL     1       2.543  15.418  19.433  0.00  0.00    +0.000 C 
ATOM      9  C   UNL     1       1.188  15.409  18.708  0.00  0.00    +0.000 C 
ATOM     10  C   UNL     1      -0.126  11.991  19.530  0.00  0.00    +0.000 C 
ENDROOT
BRANCH   1  20
ATOM     11  C   UNL     1      -6.108  12.746  21.357  0.00  0.00    +0.000 C 
ATOM     12  C   UNL     1      -5.590  12.174  20.070  0.00  0.00    +0.000 A 
ATOM     13  C   UNL     1      -6.442  11.457  19.220  0.00  0.00    +0.000 A 
ATOM     14  C   UNL     1      -5.954  10.925  18.039  0.00  0.00    +0.000 A 
ATOM     15  C   UNL     1      -4.611  11.115  17.709  0.00  0.00    +0.000 A 
ATOM     16  O   UNL     1      -4.212  10.540  16.489  0.00  0.00    +0.000 OA
ATOM     17  C   UNL     1      -2.915  10.658  16.045  0.00  0.00    +0.000 A 
ATOM     18  O   UNL     1      -2.528  10.181  14.983  0.00  0.00    +0.000 OA
ATOM     19  C   UNL     1      -1.990  11.410  16.906  0.00  0.00    +0.000 A 
ATOM     20  C   UNL     1      -2.324  11.985  18.077  0.00  0.00    +0.000 A 
ATOM     21  C   UNL     1      -3.719  11.826  18.526  0.00  0.00    +0.000 A 
ATOM     22  C   UNL     1      -4.235  12.344  19.722  0.00  0.00    +0.000 A 
ENDBRANCH   1  20
BRANCH  10  23
ATOM     23  C   UNL     1      -0.492  11.471  20.910  0.00  0.00    +0.000 A 
ATOM     24  C   UNL     1      -0.300  10.185  21.253  0.00  0.00    +0.000 A 
ATOM     25  C   UNL     1      -0.758   9.588  22.515  0.00  0.00    +0.000 A 
ATOM     26  O   UNL     1      -0.593   8.391  22.724  0.00  0.00    +0.000 OA
ATOM     27  O   UNL     1      -1.355  10.432  23.423  0.00  0.00    +0.000 OA
ATOM     28  C   UNL     1      -1.707  11.739  23.042  0.00  0.00    +0.000 A 
ATOM     29  C   UNL     1      -2.577  12.402  23.905  0.00  0.00    +0.000 A 
ATOM     30  C   UNL     1      -3.095  13.639  23.538  0.00  0.00    +0.000 A 
ATOM     31  C   UNL     1      -2.702  14.229  22.334  0.00  0.00    +0.000 A 
ATOM     32  C   UNL     1      -3.354  15.484  21.835  0.00  0.00    +0.000 C 
ATOM     33  C   UNL     1      -1.747  13.589  21.530  0.00  0.00    +0.000 A 
ATOM     34  C   UNL     1      -1.277  12.304  21.838  0.00  0.00    +0.000 A 
ENDBRANCH  10  23
TORSDOF 2
ENDMDL
MODEL 6
REMARK VINA RESULT:      -8.1      2.266      5.473
REMARK  Name = 
REMARK  4 active torsions:
REMARK  status: ('A' for Active; 'I' for Inactive)
REMARK    1  A    between atoms: C_1  and  C_2
REMARK    2  A    between atoms: C_10  and  C_11
REMARK    3  A    between atoms: C_20  and  C_21
REMARK    4  A    between atoms: C_29  and  C_30
REMARK                            x       y       z     vdW  Elec       q    Type
REMARK                         _______ _______ _______ _____ _____    ______ ____
ROOT
ATOM      1  C   UNL     1      -1.007  12.099  20.708  0.00  0.00    +0.000 C 
ATOM      2  O   UNL     1      -2.170  11.905  21.566  0.00  0.00    +0.000 OA
ATOM      3  C   UNL     1      -2.134  13.084  22.329  0.00  0.00    +0.000 C 
ATOM      4  C   UNL     1      -1.483  14.088  21.753  0.00  0.00    +0.000 C 
ATOM      5  C   UNL     1      -1.278  15.369  22.454  0.00  0.00    +0.000 C 
ATOM      6  O   UNL     1      -0.829  16.347  21.863  0.00  0.00    +0.000 OA
ATOM      7  C   UNL     1      -1.549  15.380  23.939  0.00  0.00    +0.000 C 
ATOM      8  C   UNL     1      -2.770  14.528  24.280  0.00  0.00    +0.000 C 
ATOM      9  C   UNL     1      -2.694  13.102  23.711  0.00  0.00    +0.000 C 
ATOM     10  C   UNL     1      -0.862  13.637  20.480  0.00  0.00    +0.000 C 
ENDROOT
BRANCH   1  20
ATOM     11  C   UNL     1      -5.604  12.274  17.731  0.00  0.00    +0.000 C 
ATOM     12  C   UNL     1      -4.288  11.567  17.595  0.00  0.00    +0.000 A 
ATOM     13  C   UNL     1      -4.037  10.744  16.490  0.00  0.00    +0.000 A 
ATOM     14  C   UNL     1      -2.824  10.087  16.377  0.00  0.00    +0.000 A 
ATOM     15  C   UNL     1      -1.860  10.259  17.372  0.00  0.00    +0.000 A 
ATOM     16  O   UNL     1      -0.661   9.554  17.166  0.00  0.00    +0.000 OA
ATOM     17  C   UNL     1       0.373   9.641  18.071  0.00  0.00    +0.000 A 
ATOM     18  O   UNL     1       1.438   9.051  17.924  0.00  0.00    +0.000 OA
ATOM     19  C   UNL     1       0.151  10.501  19.243  0.00  0.00    +0.000 A 
ATOM     20  C   UNL     1      -0.974  11.201  19.482  0.00  0.00    +0.000 A 
ATOM     21  C   UNL     1      -2.063  11.073  18.497  0.00  0.00    +0.000 A 
ATOM     22  C   UNL     1      -3.305  11.717  18.593  0.00  0.00    +0.000 A 
ENDBRANCH   1  20
BRANCH  10  23
ATOM     23  C   UNL     1       0.567  14.128  20.321  0.00  0.00    +0.000 A 
ATOM     24  C   UNL     1       1.556  13.694  21.123  0.00  0.00    +0.000 A 
ATOM     25  C   UNL     1       2.924  14.230  21.114  0.00  0.00    +0.000 A 
ATOM     26  O   UNL     1       3.750  13.817  21.920  0.00  0.00    +0.000 OA
ATOM     27  O   UNL     1       3.213  15.185  20.167  0.00  0.00    +0.000 OA
ATOM     28  C   UNL     1       2.176  15.769  19.418  0.00  0.00    +0.000 A 
ATOM     29  C   UNL     1       2.515  16.929  18.725  0.00  0.00    +0.000 A 
ATOM     30  C   UNL     1       1.522  17.655  18.078  0.00  0.00    +0.000 A 
ATOM     31  C   UNL     1       0.204  17.191  18.084  0.00  0.00    +0.000 A 
ATOM     32  C   UNL     1      -0.916  18.023  17.530  0.00  0.00    +0.000 C 
ATOM     33  C   UNL     1      -0.096  15.968  18.701  0.00  0.00    +0.000 A 
ATOM     34  C   UNL     1       0.872  15.264  19.432  0.00  0.00    +0.000 A 
ENDBRANCH  10  23
TORSDOF 2
ENDMDL
MODEL 7
REMARK VINA RESULT:      -8.1      2.615      4.640
REMARK  Name = 
REMARK  4 active torsions:
REMARK  status: ('A' for Active; 'I' for Inactive)
REMARK    1  A    between atoms: C_1  and  C_2
REMARK    2  A    between atoms: C_10  and  C_11
REMARK    3  A    between atoms: C_20  and  C_21
REMARK    4  A    between atoms: C_29  and  C_30
REMARK                            x       y       z     vdW  Elec       q    Type
REMARK                         _______ _______ _______ _____ _____    ______ ____
ROOT
ATOM      1  C   UNL     1      -2.548  14.229  21.901  0.00  0.00    +0.000 C 
ATOM      2  O   UNL     1      -2.534  15.685  21.967  0.00  0.00    +0.000 OA
ATOM      3  C   UNL     1      -1.521  15.981  21.040  0.00  0.00    +0.000 C 
ATOM      4  C   UNL     1      -1.307  15.027  20.141  0.00  0.00    +0.000 C 
ATOM      5  C   UNL     1      -0.222  15.141  19.149  0.00  0.00    +0.000 C 
ATOM      6  O   UNL     1      -0.132  14.346  18.218  0.00  0.00    +0.000 OA
ATOM      7  C   UNL     1       0.815  16.210  19.398  0.00  0.00    +0.000 C 
ATOM      8  C   UNL     1       0.172  17.480  19.952  0.00  0.00    +0.000 C 
ATOM      9  C   UNL     1      -0.711  17.226  21.184  0.00  0.00    +0.000 C 
ATOM     10  C   UNL     1      -2.142  13.836  20.444  0.00  0.00    +0.000 C 
ENDROOT
BRANCH   1  20
ATOM     11  C   UNL     1      -6.577  13.577  18.243  0.00  0.00    +0.000 C 
ATOM     12  C   UNL     1      -6.403  13.228  19.693  0.00  0.00    +0.000 A 
ATOM     13  C   UNL     1      -7.421  12.565  20.388  0.00  0.00    +0.000 A 
ATOM     14  C   UNL     1      -7.258  12.255  21.728  0.00  0.00    +0.000 A 
ATOM     15  C   UNL     1      -6.069  12.609  22.368  0.00  0.00    +0.000 A 
ATOM     16  O   UNL     1      -5.996  12.249  23.726  0.00  0.00    +0.000 OA
ATOM     17  C   UNL     1      -4.876  12.535  24.472  0.00  0.00    +0.000 A 
ATOM     18  O   UNL     1      -4.767  12.230  25.655  0.00  0.00    +0.000 OA
ATOM     19  C   UNL     1      -3.780  13.226  23.776  0.00  0.00    +0.000 A 
ATOM     20  C   UNL     1      -3.798  13.585  22.478  0.00  0.00    +0.000 A 
ATOM     21  C   UNL     1      -5.019  13.272  21.715  0.00  0.00    +0.000 A 
ATOM     22  C   UNL     1      -5.216  13.585  20.363  0.00  0.00    +0.000 A 
ENDBRANCH   1  20
BRANCH  10  23
ATOM     23  C   UNL     1      -1.368  12.534  20.325  0.00  0.00    +0.000 A 
ATOM     24  C   UNL     1      -0.259  12.304  21.049  0.00  0.00    +0.000 A 
ATOM     25  C   UNL     1       0.610  11.131  20.881  0.00  0.00    +0.000 A 
ATOM     26  O   UNL     1       1.637  11.028  21.544  0.00  0.00    +0.000 OA
ATOM     27  O   UNL     1       0.208  10.183  19.970  0.00  0.00    +0.000 OA
ATOM     28  C   UNL     1      -0.857  10.457  19.091  0.00  0.00    +0.000 A 
ATOM     29  C   UNL     1      -0.985   9.585  18.013  0.00  0.00    +0.000 A 
ATOM     30  C   UNL     1      -1.914   9.863  17.016  0.00  0.00    +0.000 A 
ATOM     31  C   UNL     1      -2.742  10.982  17.128  0.00  0.00    +0.000 A 
ATOM     32  C   UNL     1      -3.645  11.396  16.003  0.00  0.00    +0.000 C 
ATOM     33  C   UNL     1      -2.665  11.789  18.273  0.00  0.00    +0.000 A 
ATOM     34  C   UNL     1      -1.679  11.577  19.248  0.00  0.00    +0.000 A 
ENDBRANCH  10  23
TORSDOF 2
ENDMDL
MODEL 8
REMARK VINA RESULT:      -8.0      2.451      7.203
REMARK  Name = 
REMARK  4 active torsions:
REMARK  status: ('A' for Active; 'I' for Inactive)
REMARK    1  A    between atoms: C_1  and  C_2
REMARK    2  A    between atoms: C_10  and  C_11
REMARK    3  A    between atoms: C_20  and  C_21
REMARK    4  A    between atoms: C_29  and  C_30
REMARK                            x       y       z     vdW  Elec       q    Type
REMARK                         _______ _______ _______ _____ _____    ______ ____
ROOT
ATOM      1  C   UNL     1      -3.435  13.961  21.203  0.00  0.00    +0.000 C 
ATOM      2  O   UNL     1      -3.663  14.224  22.618  0.00  0.00    +0.000 OA
ATOM      3  C   UNL     1      -4.951  13.685  22.782  0.00  0.00    +0.000 C 
ATOM      4  C   UNL     1      -5.279  12.769  21.878  0.00  0.00    +0.000 C 
ATOM      5  C   UNL     1      -6.624  12.166  21.855  0.00  0.00    +0.000 C 
ATOM      6  O   UNL     1      -6.872  11.205  21.133  0.00  0.00    +0.000 OA
ATOM      7  C   UNL     1      -7.689  12.851  22.677  0.00  0.00    +0.000 C 
ATOM      8  C   UNL     1      -7.119  13.357  24.001  0.00  0.00    +0.000 C 
ATOM      9  C   UNL     1      -5.864  14.227  23.829  0.00  0.00    +0.000 C 
ATOM     10  C   UNL     1      -4.209  12.650  20.854  0.00  0.00    +0.000 C 
ENDROOT
BRANCH   1  20
ATOM     11  C   UNL     1      -0.475   9.537  22.505  0.00  0.00    +0.000 C 
ATOM     12  C   UNL     1      -0.190  10.819  21.779  0.00  0.00    +0.000 A 
ATOM     13  C   UNL     1       1.081  11.061  21.244  0.00  0.00    +0.000 A 
ATOM     14  C   UNL     1       1.340  12.250  20.584  0.00  0.00    +0.000 A 
ATOM     15  C   UNL     1       0.320  13.195  20.458  0.00  0.00    +0.000 A 
ATOM     16  O   UNL     1       0.678  14.368  19.769  0.00  0.00    +0.000 OA
ATOM     17  C   UNL     1      -0.236  15.377  19.572  0.00  0.00    +0.000 A 
ATOM     18  O   UNL     1       0.032  16.411  18.968  0.00  0.00    +0.000 OA
ATOM     19  C   UNL     1      -1.586  15.158  20.114  0.00  0.00    +0.000 A 
ATOM     20  C   UNL     1      -1.980  14.053  20.773  0.00  0.00    +0.000 A 
ATOM     21  C   UNL     1      -0.969  12.999  20.975  0.00  0.00    +0.000 A 
ATOM     22  C   UNL     1      -1.201  11.792  21.650  0.00  0.00    +0.000 A 
ENDBRANCH   1  20
BRANCH  10  23
ATOM     23  C   UNL     1      -4.759  12.590  19.439  0.00  0.00    +0.000 A 
ATOM     24  C   UNL     1      -6.028  12.938  19.159  0.00  0.00    +0.000 A 
ATOM     25  C   UNL     1      -6.661  12.771  17.844  0.00  0.00    +0.000 A 
ATOM     26  O   UNL     1      -7.843  13.061  17.691  0.00  0.00    +0.000 OA
ATOM     27  O   UNL     1      -5.868  12.295  16.827  0.00  0.00    +0.000 OA
ATOM     28  C   UNL     1      -4.590  11.781  17.112  0.00  0.00    +0.000 A 
ATOM     29  C   UNL     1      -3.997  11.043  16.090  0.00  0.00    +0.000 A 
ATOM     30  C   UNL     1      -2.803  10.374  16.333  0.00  0.00    +0.000 A 
ATOM     31  C   UNL     1      -2.182  10.488  17.579  0.00  0.00    +0.000 A 
ATOM     32  C   UNL     1      -0.978   9.663  17.926  0.00  0.00    +0.000 C 
ATOM     33  C   UNL     1      -2.744  11.319  18.559  0.00  0.00    +0.000 A 
ATOM     34  C   UNL     1      -3.990  11.933  18.366  0.00  0.00    +0.000 A 
ENDBRANCH  10  23
TORSDOF 2
ENDMDL
MODEL 9
REMARK VINA RESULT:      -7.8      7.142     11.742
REMARK  Name = 
REMARK  4 active torsions:
REMARK  status: ('A' for Active; 'I' for Inactive)
REMARK    1  A    between atoms: C_1  and  C_2
REMARK    2  A    between atoms: C_10  and  C_11
REMARK    3  A    between atoms: C_20  and  C_21
REMARK    4  A    between atoms: C_29  and  C_30
REMARK                            x       y       z     vdW  Elec       q    Type
REMARK                         _______ _______ _______ _____ _____    ______ ____
ROOT
ATOM      1  C   UNL     1       9.059  13.890  22.233  0.00  0.00    +0.000 C 
ATOM      2  O   UNL     1       9.245  12.641  22.962  0.00  0.00    +0.000 OA
ATOM      3  C   UNL     1       8.048  12.586  23.697  0.00  0.00    +0.000 C 
ATOM      4  C   UNL     1       7.051  13.289  23.173  0.00  0.00    +0.000 C 
ATOM      5  C   UNL     1       5.753  13.407  23.862  0.00  0.00    +0.000 C 
ATOM      6  O   UNL     1       4.785  13.912  23.302  0.00  0.00    +0.000 OA
ATOM      7  C   UNL     1       5.712  12.974  25.308  0.00  0.00    +0.000 C 
ATOM      8  C   UNL     1       6.567  11.728  25.532  0.00  0.00    +0.000 C 
ATOM      9  C   UNL     1       8.005  11.877  25.009  0.00  0.00    +0.000 C 
ATOM     10  C   UNL     1       7.524  14.049  21.986  0.00  0.00    +0.000 C 
ENDROOT
BRANCH   1  20
ATOM     11  C   UNL     1       8.889   9.708  18.695  0.00  0.00    +0.000 C 
ATOM     12  C   UNL     1       9.616  11.021  18.741  0.00  0.00    +0.000 A 
ATOM     13  C   UNL     1      10.466  11.396  17.694  0.00  0.00    +0.000 A 
ATOM     14  C   UNL     1      11.141  12.604  17.747  0.00  0.00    +0.000 A 
ATOM     15  C   UNL     1      10.959  13.436  18.853  0.00  0.00    +0.000 A 
ATOM     16  O   UNL     1      11.684  14.641  18.814  0.00  0.00    +0.000 OA
ATOM     17  C   UNL     1      11.591  15.553  19.840  0.00  0.00    +0.000 A 
ATOM     18  O   UNL     1      12.197  16.619  19.842  0.00  0.00    +0.000 OA
ATOM     19  C   UNL     1      10.702  15.199  20.958  0.00  0.00    +0.000 A 
ATOM     20  C   UNL     1       9.983  14.064  21.039  0.00  0.00    +0.000 A 
ATOM     21  C   UNL     1      10.119  13.106  19.927  0.00  0.00    +0.000 A 
ATOM     22  C   UNL     1       9.457  11.872  19.852  0.00  0.00    +0.000 A 
ENDBRANCH   1  20
BRANCH  10  23
ATOM     23  C   UNL     1       7.024  15.484  21.974  0.00  0.00    +0.000 A 
ATOM     24  C   UNL     1       7.298  16.335  22.978  0.00  0.00    +0.000 A 
ATOM     25  C   UNL     1       6.731  17.686  23.095  0.00  0.00    +0.000 A 
ATOM     26  O   UNL     1       6.988  18.376  24.075  0.00  0.00    +0.000 OA
ATOM     27  O   UNL     1       5.929  18.116  22.064  0.00  0.00    +0.000 OA
ATOM     28  C   UNL     1       5.501  17.208  21.079  0.00  0.00    +0.000 A 
ATOM     29  C   UNL     1       4.455  17.648  20.270  0.00  0.00    +0.000 A 
ATOM     30  C   UNL     1       3.869  16.766  19.370  0.00  0.00    +0.000 A 
ATOM     31  C   UNL     1       4.364  15.466  19.246  0.00  0.00    +0.000 A 
ATOM     32  C   UNL     1       3.662  14.444  18.400  0.00  0.00    +0.000 C 
ATOM     33  C   UNL     1       5.482  15.077  19.998  0.00  0.00    +0.000 A 
ATOM     34  C   UNL     1       6.035  15.921  20.972  0.00  0.00    +0.000 A 
ENDBRANCH  10  23
TORSDOF 2
ENDMDL
