MODEL 1
REMARK VINA RESULT:      -8.0      0.000      0.000
REMARK  Name = 
REMARK  7 active torsions:
REMARK  status: ('A' for Active; 'I' for Inactive)
REMARK    1  A    between atoms: C_1  and  C_2
REMARK    2  A    between atoms: C_6  and  C_7
REMARK    3  A    between atoms: C_8  and  S_9
REMARK    4  A    between atoms: S_9  and  C_10
REMARK    5  A    between atoms: C_20  and  C_21
REMARK    6  A    between atoms: C_21  and  C_22
REMARK    7  A    between atoms: C_21  and  C_23
REMARK                            x       y       z     vdW  Elec       q    Type
REMARK                         _______ _______ _______ _____ _____    ______ ____
ROOT
ATOM      1  C   UNL     1       5.658   5.005  17.530  0.00  0.00    +0.000 A 
ATOM      2  N   UNL     1       4.893   4.348  16.619  0.00  0.00    +0.000 N 
ATOM      3  C   UNL     1       5.545   4.277  15.431  0.00  0.00    +0.000 A 
ATOM      4  N   UNL     1       5.103   3.555  14.396  0.00  0.00    +0.000 NA
ATOM      5  C   UNL     1       5.909   3.623  13.342  0.00  0.00    +0.000 A 
ATOM      6  N   UNL     1       5.568   2.857  12.247  0.00  0.00    +0.000 N 
ATOM      7  N   UNL     1       6.996   4.393  13.237  0.00  0.00    +0.000 NA
ATOM      8  C   UNL     1       7.406   5.137  14.293  0.00  0.00    +0.000 A 
ATOM      9  N   UNL     1       8.536   5.907  14.054  0.00  0.00    +0.000 N 
ATOM     10  C   UNL     1       6.682   5.073  15.500  0.00  0.00    +0.000 A 
ATOM     11  C   UNL     1       6.730   5.596  16.861  0.00  0.00    +0.000 A 
ATOM     12  H   UNL     1       4.011   3.903  16.808  0.00  0.00    +0.000 HD
ATOM     13  H   UNL     1       4.580   2.654  12.259  0.00  0.00    +0.000 HD
ATOM     14  H   UNL     1       5.959   3.264  11.409  0.00  0.00    +0.000 HD
ATOM     15  H   UNL     1       8.729   5.903  13.057  0.00  0.00    +0.000 HD
ATOM     16  H   UNL     1       8.508   6.822  14.472  0.00  0.00    +0.000 HD
ENDROOT
BRANCH  11  17
ATOM     17  C   UNL     1       7.718   6.558  17.484  0.00  0.00    +0.000 C 
ATOM     18  C   UNL     1       7.296   8.020  17.356  0.00  0.00    +0.000 C 
ATOM     19  C   UNL     1       8.094   6.199  18.923  0.00  0.00    +0.000 C 
ENDBRANCH  11  17
BRANCH   1  20
ATOM     20  S   UNL     1       5.001   5.121  19.132  0.00  0.00    +0.000 S 
BRANCH  20  28
ATOM     21  C   UNL     1       4.537   1.993  20.021  0.00  0.00    +0.000 C 
ATOM     22  C   UNL     1       3.412   2.768  19.393  0.00  0.00    +0.000 A 
ATOM     23  C   UNL     1       2.253   2.024  19.081  0.00  0.00    +0.000 A 
ATOM     24  C   UNL     1       1.157   2.614  18.467  0.00  0.00    +0.000 A 
ATOM     25  C   UNL     1       1.190   3.969  18.177  0.00  0.00    +0.000 A 
ATOM     26  C   UNL     1       2.324   4.750  18.475  0.00  0.00    +0.000 A 
ATOM     27  C   UNL     1       2.266   6.210  18.100  0.00  0.00    +0.000 C 
ATOM     28  C   UNL     1       3.466   4.152  19.080  0.00  0.00    +0.000 A 
ENDBRANCH  20  28
ENDBRANCH   1  20
TORSDOF 3
ENDMDL
MODEL 2
REMARK VINA RESULT:      -7.9      0.286      1.847
REMARK  Name = 
REMARK  7 active torsions:
REMARK  status: ('A' for Active; 'I' for Inactive)
REMARK    1  A    between atoms: C_1  and  C_2
REMARK    2  A    between atoms: C_6  and  C_7
REMARK    3  A    between atoms: C_8  and  S_9
REMARK    4  A    between atoms: S_9  and  C_10
REMARK    5  A    between atoms: C_20  and  C_21
REMARK    6  A    between atoms: C_21  and  C_22
REMARK    7  A    between atoms: C_21  and  C_23
REMARK                            x       y       z     vdW  Elec       q    Type
REMARK                         _______ _______ _______ _____ _____    ______ ____
ROOT
ATOM      1  C   UNL     1       5.677   4.809  17.443  0.00  0.00    +0.000 A 
ATOM      2  N   UNL     1       4.944   4.159  16.500  0.00  0.00    +0.000 N 
ATOM      3  C   UNL     1       5.609   4.157  15.318  0.00  0.00    +0.000 A 
ATOM      4  N   UNL     1       5.203   3.459  14.252  0.00  0.00    +0.000 NA
ATOM      5  C   UNL     1       6.016   3.594  13.209  0.00  0.00    +0.000 A 
ATOM      6  N   UNL     1       5.713   2.858  12.083  0.00  0.00    +0.000 N 
ATOM      7  N   UNL     1       7.075   4.406  13.144  0.00  0.00    +0.000 NA
ATOM      8  C   UNL     1       7.449   5.124  14.232  0.00  0.00    +0.000 A 
ATOM      9  N   UNL     1       8.552   5.942  14.033  0.00  0.00    +0.000 N 
ATOM     10  C   UNL     1       6.716   4.989  15.427  0.00  0.00    +0.000 A 
ATOM     11  C   UNL     1       6.733   5.462  16.808  0.00  0.00    +0.000 A 
ATOM     12  H   UNL     1       4.078   3.677  16.663  0.00  0.00    +0.000 HD
ATOM     13  H   UNL     1       4.733   2.620  12.077  0.00  0.00    +0.000 HD
ATOM     14  H   UNL     1       6.096   3.310  11.265  0.00  0.00    +0.000 HD
ATOM     15  H   UNL     1       8.754   5.982  13.039  0.00  0.00    +0.000 HD
ATOM     16  H   UNL     1       8.488   6.839  14.485  0.00  0.00    +0.000 HD
ENDROOT
BRANCH  11  17
ATOM     17  C   UNL     1       7.681   6.435  17.476  0.00  0.00    +0.000 C 
ATOM     18  C   UNL     1       7.236   7.890  17.350  0.00  0.00    +0.000 C 
ATOM     19  C   UNL     1       8.012   6.065  18.923  0.00  0.00    +0.000 C 
ENDBRANCH  11  17
BRANCH   1  20
ATOM     20  S   UNL     1       5.001   4.841  19.041  0.00  0.00    +0.000 S 
BRANCH  20  28
ATOM     21  C   UNL     1       2.138   5.984  17.908  0.00  0.00    +0.000 C 
ATOM     22  C   UNL     1       2.214   4.600  18.490  0.00  0.00    +0.000 A 
ATOM     23  C   UNL     1       0.980   3.933  18.652  0.00  0.00    +0.000 A 
ATOM     24  C   UNL     1       0.911   2.664  19.210  0.00  0.00    +0.000 A 
ATOM     25  C   UNL     1       2.080   2.026  19.591  0.00  0.00    +0.000 A 
ATOM     26  C   UNL     1       3.334   2.652  19.444  0.00  0.00    +0.000 A 
ATOM     27  C   UNL     1       4.543   1.881  19.910  0.00  0.00    +0.000 C 
ATOM     28  C   UNL     1       3.418   3.965  18.898  0.00  0.00    +0.000 A 
ENDBRANCH  20  28
ENDBRANCH   1  20
TORSDOF 3
ENDMDL
MODEL 3
REMARK VINA RESULT:      -7.4      1.738      2.396
REMARK  Name = 
REMARK  7 active torsions:
REMARK  status: ('A' for Active; 'I' for Inactive)
REMARK    1  A    between atoms: C_1  and  C_2
REMARK    2  A    between atoms: C_6  and  C_7
REMARK    3  A    between atoms: C_8  and  S_9
REMARK    4  A    between atoms: S_9  and  C_10
REMARK    5  A    between atoms: C_20  and  C_21
REMARK    6  A    between atoms: C_21  and  C_22
REMARK    7  A    between atoms: C_21  and  C_23
REMARK                            x       y       z     vdW  Elec       q    Type
REMARK                         _______ _______ _______ _____ _____    ______ ____
ROOT
ATOM      1  C   UNL     1       4.744   3.152  17.028  0.00  0.00    +0.000 A 
ATOM      2  N   UNL     1       4.955   3.031  15.691  0.00  0.00    +0.000 N 
ATOM      3  C   UNL     1       5.878   3.938  15.284  0.00  0.00    +0.000 A 
ATOM      4  N   UNL     1       6.399   3.950  14.052  0.00  0.00    +0.000 NA
ATOM      5  C   UNL     1       7.293   4.917  13.883  0.00  0.00    +0.000 A 
ATOM      6  N   UNL     1       7.933   4.968  12.662  0.00  0.00    +0.000 N 
ATOM      7  N   UNL     1       7.600   5.864  14.775  0.00  0.00    +0.000 NA
ATOM      8  C   UNL     1       7.036   5.844  16.007  0.00  0.00    +0.000 A 
ATOM      9  N   UNL     1       7.421   6.890  16.836  0.00  0.00    +0.000 N 
ATOM     10  C   UNL     1       6.141   4.808  16.335  0.00  0.00    +0.000 A 
ATOM     11  C   UNL     1       5.355   4.326  17.466  0.00  0.00    +0.000 A 
ATOM     12  H   UNL     1       4.557   2.324  15.097  0.00  0.00    +0.000 HD
ATOM     13  H   UNL     1       7.374   4.512  11.958  0.00  0.00    +0.000 HD
ATOM     14  H   UNL     1       8.250   5.909  12.479  0.00  0.00    +0.000 HD
ATOM     15  H   UNL     1       7.916   7.581  16.281  0.00  0.00    +0.000 HD
ATOM     16  H   UNL     1       6.678   7.262  17.403  0.00  0.00    +0.000 HD
ENDROOT
BRANCH  11  17
ATOM     17  C   UNL     1       5.211   4.915  18.853  0.00  0.00    +0.000 C 
ATOM     18  C   UNL     1       6.551   5.187  19.534  0.00  0.00    +0.000 C 
ATOM     19  C   UNL     1       4.289   6.135  18.904  0.00  0.00    +0.000 C 
ENDBRANCH  11  17
BRANCH   1  20
ATOM     20  S   UNL     1       3.639   2.011  17.729  0.00  0.00    +0.000 S 
BRANCH  20  28
ATOM     21  C   UNL     1       4.540   1.724  20.874  0.00  0.00    +0.000 C 
ATOM     22  C   UNL     1       3.351   2.571  20.510  0.00  0.00    +0.000 A 
ATOM     23  C   UNL     1       2.597   3.069  21.594  0.00  0.00    +0.000 A 
ATOM     24  C   UNL     1       1.457   3.834  21.391  0.00  0.00    +0.000 A 
ATOM     25  C   UNL     1       1.065   4.140  20.097  0.00  0.00    +0.000 A 
ATOM     26  C   UNL     1       1.792   3.667  18.986  0.00  0.00    +0.000 A 
ATOM     27  C   UNL     1       1.270   4.037  17.621  0.00  0.00    +0.000 C 
ATOM     28  C   UNL     1       2.947   2.858  19.178  0.00  0.00    +0.000 A 
ENDBRANCH  20  28
ENDBRANCH   1  20
TORSDOF 3
ENDMDL
MODEL 4
REMARK VINA RESULT:      -7.3      7.389      9.900
REMARK  Name = 
REMARK  7 active torsions:
REMARK  status: ('A' for Active; 'I' for Inactive)
REMARK    1  A    between atoms: C_1  and  C_2
REMARK    2  A    between atoms: C_6  and  C_7
REMARK    3  A    between atoms: C_8  and  S_9
REMARK    4  A    between atoms: S_9  and  C_10
REMARK    5  A    between atoms: C_20  and  C_21
REMARK    6  A    between atoms: C_21  and  C_22
REMARK    7  A    between atoms: C_21  and  C_23
REMARK                            x       y       z     vdW  Elec       q    Type
REMARK                         _______ _______ _______ _____ _____    ______ ____
ROOT
ATOM      1  C   UNL     1      -0.750  11.200  18.902  0.00  0.00    +0.000 A 
ATOM      2  N   UNL     1      -0.921  10.372  17.838  0.00  0.00    +0.000 N 
ATOM      3  C   UNL     1      -2.115  10.623  17.244  0.00  0.00    +0.000 A 
ATOM      4  N   UNL     1      -2.485  10.069  16.084  0.00  0.00    +0.000 NA
ATOM      5  C   UNL     1      -3.687  10.470  15.684  0.00  0.00    +0.000 A 
ATOM      6  N   UNL     1      -4.126  10.002  14.463  0.00  0.00    +0.000 N 
ATOM      7  N   UNL     1      -4.519  11.254  16.376  0.00  0.00    +0.000 NA
ATOM      8  C   UNL     1      -4.129  11.779  17.563  0.00  0.00    +0.000 A 
ATOM      9  N   UNL     1      -5.088  12.561  18.192  0.00  0.00    +0.000 N 
ATOM     10  C   UNL     1      -2.836  11.500  18.045  0.00  0.00    +0.000 A 
ATOM     11  C   UNL     1      -1.962  11.839  19.163  0.00  0.00    +0.000 A 
ATOM     12  H   UNL     1      -0.238   9.725  17.484  0.00  0.00    +0.000 HD
ATOM     13  H   UNL     1      -3.649   9.145  14.228  0.00  0.00    +0.000 HD
ATOM     14  H   UNL     1      -5.136  10.006  14.438  0.00  0.00    +0.000 HD
ATOM     15  H   UNL     1      -5.977  12.432  17.719  0.00  0.00    +0.000 HD
ATOM     16  H   UNL     1      -5.125  12.445  19.191  0.00  0.00    +0.000 HD
ENDROOT
BRANCH  11  17
ATOM     17  C   UNL     1      -2.242  12.710  20.369  0.00  0.00    +0.000 C 
ATOM     18  C   UNL     1      -2.020  11.989  21.697  0.00  0.00    +0.000 C 
ATOM     19  C   UNL     1      -1.521  14.059  20.326  0.00  0.00    +0.000 C 
ENDBRANCH  11  17
BRANCH   1  20
ATOM     20  S   UNL     1       0.765  11.061  19.737  0.00  0.00    +0.000 S 
BRANCH  20  28
ATOM     21  C   UNL     1      -0.110   9.025  22.161  0.00  0.00    +0.000 C 
ATOM     22  C   UNL     1       0.730   8.516  21.023  0.00  0.00    +0.000 A 
ATOM     23  C   UNL     1       1.224   7.202  21.165  0.00  0.00    +0.000 A 
ATOM     24  C   UNL     1       2.040   6.627  20.200  0.00  0.00    +0.000 A 
ATOM     25  C   UNL     1       2.356   7.349  19.060  0.00  0.00    +0.000 A 
ATOM     26  C   UNL     1       1.881   8.664  18.876  0.00  0.00    +0.000 A 
ATOM     27  C   UNL     1       2.300   9.371  17.612  0.00  0.00    +0.000 C 
ATOM     28  C   UNL     1       1.065   9.275  19.870  0.00  0.00    +0.000 A 
ENDBRANCH  20  28
ENDBRANCH   1  20
TORSDOF 3
ENDMDL
MODEL 5
REMARK VINA RESULT:      -7.2      9.609     12.543
REMARK  Name = 
REMARK  7 active torsions:
REMARK  status: ('A' for Active; 'I' for Inactive)
REMARK    1  A    between atoms: C_1  and  C_2
REMARK    2  A    between atoms: C_6  and  C_7
REMARK    3  A    between atoms: C_8  and  S_9
REMARK    4  A    between atoms: S_9  and  C_10
REMARK    5  A    between atoms: C_20  and  C_21
REMARK    6  A    between atoms: C_21  and  C_22
REMARK    7  A    between atoms: C_21  and  C_23
REMARK                            x       y       z     vdW  Elec       q    Type
REMARK                         _______ _______ _______ _____ _____    ______ ____
ROOT
ATOM      1  C   UNL     1      -2.601  12.447  19.640  0.00  0.00    +0.000 A 
ATOM      2  N   UNL     1      -3.340  13.319  20.376  0.00  0.00    +0.000 N 
ATOM      3  C   UNL     1      -4.662  13.098  20.166  0.00  0.00    +0.000 A 
ATOM      4  N   UNL     1      -5.625  13.700  20.872  0.00  0.00    +0.000 NA
ATOM      5  C   UNL     1      -6.844  13.321  20.503  0.00  0.00    +0.000 A 
ATOM      6  N   UNL     1      -7.901  13.841  21.220  0.00  0.00    +0.000 N 
ATOM      7  N   UNL     1      -7.136  12.513  19.480  0.00  0.00    +0.000 NA
ATOM      8  C   UNL     1      -6.139  11.938  18.763  0.00  0.00    +0.000 A 
ATOM      9  N   UNL     1      -6.569  11.135  17.716  0.00  0.00    +0.000 N 
ATOM     10  C   UNL     1      -4.801  12.192  19.122  0.00  0.00    +0.000 A 
ATOM     11  C   UNL     1      -3.448  11.803  18.739  0.00  0.00    +0.000 A 
ATOM     12  H   UNL     1      -2.975  13.977  21.043  0.00  0.00    +0.000 HD
ATOM     13  H   UNL     1      -7.629  14.705  21.663  0.00  0.00    +0.000 HD
ATOM     14  H   UNL     1      -8.735  13.843  20.649  0.00  0.00    +0.000 HD
ATOM     15  H   UNL     1      -7.563  11.287  17.575  0.00  0.00    +0.000 HD
ATOM     16  H   UNL     1      -6.012  11.209  16.882  0.00  0.00    +0.000 HD
ENDROOT
BRANCH  11  17
ATOM     17  C   UNL     1      -2.994  10.884  17.625  0.00  0.00    +0.000 C 
ATOM     18  C   UNL     1      -3.370   9.422  17.861  0.00  0.00    +0.000 C 
ATOM     19  C   UNL     1      -3.411  11.361  16.233  0.00  0.00    +0.000 C 
ENDBRANCH  11  17
BRANCH   1  20
ATOM     20  S   UNL     1      -0.881  12.545  19.848  0.00  0.00    +0.000 S 
BRANCH  20  28
ATOM     21  C   UNL     1      -1.341  11.740  22.999  0.00  0.00    +0.000 C 
ATOM     22  C   UNL     1      -0.577  10.814  22.093  0.00  0.00    +0.000 A 
ATOM     23  C   UNL     1       0.035   9.708  22.721  0.00  0.00    +0.000 A 
ATOM     24  C   UNL     1       0.798   8.798  22.001  0.00  0.00    +0.000 A 
ATOM     25  C   UNL     1       0.938   8.962  20.633  0.00  0.00    +0.000 A 
ATOM     26  C   UNL     1       0.340  10.049  19.964  0.00  0.00    +0.000 A 
ATOM     27  C   UNL     1       0.572  10.149  18.478  0.00  0.00    +0.000 C 
ATOM     28  C   UNL     1      -0.422  11.006  20.694  0.00  0.00    +0.000 A 
ENDBRANCH  20  28
ENDBRANCH   1  20
TORSDOF 3
ENDMDL
MODEL 6
REMARK VINA RESULT:      -7.2      1.737      2.890
REMARK  Name = 
REMARK  7 active torsions:
REMARK  status: ('A' for Active; 'I' for Inactive)
REMARK    1  A    between atoms: C_1  and  C_2
REMARK    2  A    between atoms: C_6  and  C_7
REMARK    3  A    between atoms: C_8  and  S_9
REMARK    4  A    between atoms: S_9  and  C_10
REMARK    5  A    between atoms: C_20  and  C_21
REMARK    6  A    between atoms: C_21  and  C_22
REMARK    7  A    between atoms: C_21  and  C_23
REMARK                            x       y       z     vdW  Elec       q    Type
REMARK                         _______ _______ _______ _____ _____    ______ ____
ROOT
ATOM      1  C   UNL     1       4.728   3.094  17.320  0.00  0.00    +0.000 A 
ATOM      2  N   UNL     1       4.814   2.935  15.973  0.00  0.00    +0.000 N 
ATOM      3  C   UNL     1       5.719   3.808  15.462  0.00  0.00    +0.000 A 
ATOM      4  N   UNL     1       6.125   3.777  14.188  0.00  0.00    +0.000 NA
ATOM      5  C   UNL     1       7.025   4.715  13.914  0.00  0.00    +0.000 A 
ATOM      6  N   UNL     1       7.552   4.720  12.639  0.00  0.00    +0.000 N 
ATOM      7  N   UNL     1       7.435   5.674  14.750  0.00  0.00    +0.000 NA
ATOM      8  C   UNL     1       6.985   5.698  16.028  0.00  0.00    +0.000 A 
ATOM      9  N   UNL     1       7.469   6.752  16.791  0.00  0.00    +0.000 N 
ATOM     10  C   UNL     1       6.097   4.695  16.462  0.00  0.00    +0.000 A 
ATOM     11  C   UNL     1       5.406   4.260  17.672  0.00  0.00    +0.000 A 
ATOM     12  H   UNL     1       4.346   2.226  15.436  0.00  0.00    +0.000 HD
ATOM     13  H   UNL     1       6.919   4.263  12.000  0.00  0.00    +0.000 HD
ATOM     14  H   UNL     1       7.874   5.648  12.405  0.00  0.00    +0.000 HD
ATOM     15  H   UNL     1       7.929   7.416  16.176  0.00  0.00    +0.000 HD
ATOM     16  H   UNL     1       6.790   7.157  17.414  0.00  0.00    +0.000 HD
ENDROOT
BRANCH  11  17
ATOM     17  C   UNL     1       5.403   4.885  19.050  0.00  0.00    +0.000 C 
ATOM     18  C   UNL     1       6.805   5.101  19.616  0.00  0.00    +0.000 C 
ATOM     19  C   UNL     1       4.551   6.153  19.142  0.00  0.00    +0.000 C 
ENDBRANCH  11  17
BRANCH   1  20
ATOM     20  S   UNL     1       3.663   2.000  18.147  0.00  0.00    +0.000 S 
BRANCH  20  28
ATOM     21  C   UNL     1       1.399   4.213  17.274  0.00  0.00    +0.000 C 
ATOM     22  C   UNL     1       1.774   4.057  18.721  0.00  0.00    +0.000 A 
ATOM     23  C   UNL     1       1.220   5.008  19.605  0.00  0.00    +0.000 A 
ATOM     24  C   UNL     1       1.516   4.994  20.961  0.00  0.00    +0.000 A 
ATOM     25  C   UNL     1       2.350   4.009  21.464  0.00  0.00    +0.000 A 
ATOM     26  C   UNL     1       2.921   3.037  20.618  0.00  0.00    +0.000 A 
ATOM     27  C   UNL     1       3.833   2.022  21.261  0.00  0.00    +0.000 C 
ATOM     28  C   UNL     1       2.649   3.056  19.221  0.00  0.00    +0.000 A 
ENDBRANCH  20  28
ENDBRANCH   1  20
TORSDOF 3
ENDMDL
MODEL 7
REMARK VINA RESULT:      -7.1      9.748     12.641
REMARK  Name = 
REMARK  7 active torsions:
REMARK  status: ('A' for Active; 'I' for Inactive)
REMARK    1  A    between atoms: C_1  and  C_2
REMARK    2  A    between atoms: C_6  and  C_7
REMARK    3  A    between atoms: C_8  and  S_9
REMARK    4  A    between atoms: S_9  and  C_10
REMARK    5  A    between atoms: C_20  and  C_21
REMARK    6  A    between atoms: C_21  and  C_22
REMARK    7  A    between atoms: C_21  and  C_23
REMARK                            x       y       z     vdW  Elec       q    Type
REMARK                         _______ _______ _______ _____ _____    ______ ____
ROOT
ATOM      1  C   UNL     1      -2.614  12.532  19.647  0.00  0.00    +0.000 A 
ATOM      2  N   UNL     1      -3.360  13.401  20.380  0.00  0.00    +0.000 N 
ATOM      3  C   UNL     1      -4.679  13.145  20.198  0.00  0.00    +0.000 A 
ATOM      4  N   UNL     1      -5.644  13.739  20.909  0.00  0.00    +0.000 NA
ATOM      5  C   UNL     1      -6.860  13.325  20.570  0.00  0.00    +0.000 A 
ATOM      6  N   UNL     1      -7.917  13.834  21.297  0.00  0.00    +0.000 N 
ATOM      7  N   UNL     1      -7.151  12.491  19.568  0.00  0.00    +0.000 NA
ATOM      8  C   UNL     1      -6.154  11.925  18.845  0.00  0.00    +0.000 A 
ATOM      9  N   UNL     1      -6.584  11.092  17.821  0.00  0.00    +0.000 N 
ATOM     10  C   UNL     1      -4.816  12.216  19.174  0.00  0.00    +0.000 A 
ATOM     11  C   UNL     1      -3.461  11.852  18.774  0.00  0.00    +0.000 A 
ATOM     12  H   UNL     1      -2.999  14.080  21.028  0.00  0.00    +0.000 HD
ATOM     13  H   UNL     1      -7.657  14.712  21.718  0.00  0.00    +0.000 HD
ATOM     14  H   UNL     1      -8.760  13.805  20.741  0.00  0.00    +0.000 HD
ATOM     15  H   UNL     1      -7.584  11.218  17.694  0.00  0.00    +0.000 HD
ATOM     16  H   UNL     1      -6.043  11.163  16.975  0.00  0.00    +0.000 HD
ENDROOT
BRANCH  11  17
ATOM     17  C   UNL     1      -3.006  10.922  17.670  0.00  0.00    +0.000 C 
ATOM     18  C   UNL     1      -3.381   9.463  17.919  0.00  0.00    +0.000 C 
ATOM     19  C   UNL     1      -3.423  11.385  16.272  0.00  0.00    +0.000 C 
ENDBRANCH  11  17
BRANCH   1  20
ATOM     20  S   UNL     1      -0.893  12.674  19.822  0.00  0.00    +0.000 S 
BRANCH  20  28
ATOM     21  C   UNL     1       0.362   9.770  18.938  0.00  0.00    +0.000 C 
ATOM     22  C   UNL     1       0.021  10.031  20.379  0.00  0.00    +0.000 A 
ATOM     23  C   UNL     1       0.125   8.922  21.245  0.00  0.00    +0.000 A 
ATOM     24  C   UNL     1      -0.195   9.022  22.592  0.00  0.00    +0.000 A 
ATOM     25  C   UNL     1      -0.599  10.245  23.104  0.00  0.00    +0.000 A 
ATOM     26  C   UNL     1      -0.712  11.380  22.276  0.00  0.00    +0.000 A 
ATOM     27  C   UNL     1      -1.180  12.657  22.927  0.00  0.00    +0.000 C 
ATOM     28  C   UNL     1      -0.413  11.285  20.887  0.00  0.00    +0.000 A 
ENDBRANCH  20  28
ENDBRANCH   1  20
TORSDOF 3
ENDMDL
MODEL 8
REMARK VINA RESULT:      -7.1      1.903      3.638
REMARK  Name = 
REMARK  7 active torsions:
REMARK  status: ('A' for Active; 'I' for Inactive)
REMARK    1  A    between atoms: C_1  and  C_2
REMARK    2  A    between atoms: C_6  and  C_7
REMARK    3  A    between atoms: C_8  and  S_9
REMARK    4  A    between atoms: S_9  and  C_10
REMARK    5  A    between atoms: C_20  and  C_21
REMARK    6  A    between atoms: C_21  and  C_22
REMARK    7  A    between atoms: C_21  and  C_23
REMARK                            x       y       z     vdW  Elec       q    Type
REMARK                         _______ _______ _______ _____ _____    ______ ____
ROOT
ATOM      1  C   UNL     1       4.257   2.898  17.367  0.00  0.00    +0.000 A 
ATOM      2  N   UNL     1       5.078   2.726  16.297  0.00  0.00    +0.000 N 
ATOM      3  C   UNL     1       5.632   3.912  15.942  0.00  0.00    +0.000 A 
ATOM      4  N   UNL     1       6.597   4.023  15.023  0.00  0.00    +0.000 NA
ATOM      5  C   UNL     1       6.997   5.277  14.848  0.00  0.00    +0.000 A 
ATOM      6  N   UNL     1       8.037   5.482  13.965  0.00  0.00    +0.000 N 
ATOM      7  N   UNL     1       6.458   6.357  15.421  0.00  0.00    +0.000 NA
ATOM      8  C   UNL     1       5.461   6.218  16.329  0.00  0.00    +0.000 A 
ATOM      9  N   UNL     1       4.973   7.413  16.839  0.00  0.00    +0.000 N 
ATOM     10  C   UNL     1       5.017   4.925  16.667  0.00  0.00    +0.000 A 
ATOM     11  C   UNL     1       4.074   4.267  17.566  0.00  0.00    +0.000 A 
ATOM     12  H   UNL     1       5.312   1.843  15.876  0.00  0.00    +0.000 HD
ATOM     13  H   UNL     1       8.093   4.718  13.310  0.00  0.00    +0.000 HD
ATOM     14  H   UNL     1       7.993   6.421  13.596  0.00  0.00    +0.000 HD
ATOM     15  H   UNL     1       5.340   8.180  16.284  0.00  0.00    +0.000 HD
ATOM     16  H   UNL     1       3.976   7.430  16.970  0.00  0.00    +0.000 HD
ENDROOT
BRANCH  11  17
ATOM     17  C   UNL     1       3.097   4.879  18.546  0.00  0.00    +0.000 C 
ATOM     18  C   UNL     1       3.778   5.676  19.657  0.00  0.00    +0.000 C 
ATOM     19  C   UNL     1       1.982   5.681  17.872  0.00  0.00    +0.000 C 
ENDBRANCH  11  17
BRANCH   1  20
ATOM     20  S   UNL     1       3.520   1.460  17.999  0.00  0.00    +0.000 S 
BRANCH  20  28
ATOM     21  C   UNL     1       0.369   2.315  18.364  0.00  0.00    +0.000 C 
ATOM     22  C   UNL     1       1.319   2.444  19.522  0.00  0.00    +0.000 A 
ATOM     23  C   UNL     1       0.805   3.087  20.668  0.00  0.00    +0.000 A 
ATOM     24  C   UNL     1       1.591   3.300  21.793  0.00  0.00    +0.000 A 
ATOM     25  C   UNL     1       2.901   2.847  21.801  0.00  0.00    +0.000 A 
ATOM     26  C   UNL     1       3.453   2.195  20.680  0.00  0.00    +0.000 A 
ATOM     27  C   UNL     1       4.893   1.761  20.782  0.00  0.00    +0.000 C 
ATOM     28  C   UNL     1       2.667   1.995  19.510  0.00  0.00    +0.000 A 
ENDBRANCH  20  28
ENDBRANCH   1  20
TORSDOF 3
ENDMDL
MODEL 9
REMARK VINA RESULT:      -7.0      5.615      8.242
REMARK  Name = 
REMARK  7 active torsions:
REMARK  status: ('A' for Active; 'I' for Inactive)
REMARK    1  A    between atoms: C_1  and  C_2
REMARK    2  A    between atoms: C_6  and  C_7
REMARK    3  A    between atoms: C_8  and  S_9
REMARK    4  A    between atoms: S_9  and  C_10
REMARK    5  A    between atoms: C_20  and  C_21
REMARK    6  A    between atoms: C_21  and  C_22
REMARK    7  A    between atoms: C_21  and  C_23
REMARK                            x       y       z     vdW  Elec       q    Type
REMARK                         _______ _______ _______ _____ _____    ______ ____
ROOT
ATOM      1  C   UNL     1       1.217  10.102  18.927  0.00  0.00    +0.000 A 
ATOM      2  N   UNL     1       2.101   9.661  17.993  0.00  0.00    +0.000 N 
ATOM      3  C   UNL     1       2.449   8.377  18.256  0.00  0.00    +0.000 A 
ATOM      4  N   UNL     1       3.183   7.632  17.422  0.00  0.00    +0.000 NA
ATOM      5  C   UNL     1       3.390   6.402  17.879  0.00  0.00    +0.000 A 
ATOM      6  N   UNL     1       4.083   5.540  17.055  0.00  0.00    +0.000 N 
ATOM      7  N   UNL     1       3.019   5.940  19.077  0.00  0.00    +0.000 NA
ATOM      8  C   UNL     1       2.299   6.726  19.914  0.00  0.00    +0.000 A 
ATOM      9  N   UNL     1       1.990   6.139  21.134  0.00  0.00    +0.000 N 
ATOM     10  C   UNL     1       1.938   8.022  19.499  0.00  0.00    +0.000 A 
ATOM     11  C   UNL     1       1.173   9.173  19.966  0.00  0.00    +0.000 A 
ATOM     12  H   UNL     1       2.394  10.171  17.178  0.00  0.00    +0.000 HD
ATOM     13  H   UNL     1       4.649   6.061  16.404  0.00  0.00    +0.000 HD
ATOM     14  H   UNL     1       4.533   4.824  17.608  0.00  0.00    +0.000 HD
ATOM     15  H   UNL     1       2.534   5.288  21.234  0.00  0.00    +0.000 HD
ATOM     16  H   UNL     1       2.045   6.766  21.920  0.00  0.00    +0.000 HD
ENDROOT
BRANCH  11  17
ATOM     17  C   UNL     1       0.443   9.371  21.277  0.00  0.00    +0.000 C 
ATOM     18  C   UNL     1      -0.727   8.408  21.465  0.00  0.00    +0.000 C 
ATOM     19  C   UNL     1       1.370   9.383  22.494  0.00  0.00    +0.000 C 
ENDBRANCH  11  17
BRANCH   1  20
ATOM     20  S   UNL     1       0.609  11.711  18.696  0.00  0.00    +0.000 S 
BRANCH  20  28
ATOM     21  C   UNL     1      -1.586   9.950  17.001  0.00  0.00    +0.000 C 
ATOM     22  C   UNL     1      -2.048  10.866  18.101  0.00  0.00    +0.000 A 
ATOM     23  C   UNL     1      -3.446  11.021  18.222  0.00  0.00    +0.000 A 
ATOM     24  C   UNL     1      -4.001  11.865  19.175  0.00  0.00    +0.000 A 
ATOM     25  C   UNL     1      -3.166  12.550  20.043  0.00  0.00    +0.000 A 
ATOM     26  C   UNL     1      -1.765  12.421  19.960  0.00  0.00    +0.000 A 
ATOM     27  C   UNL     1      -0.945  13.225  20.937  0.00  0.00    +0.000 C 
ATOM     28  C   UNL     1      -1.181  11.580  18.970  0.00  0.00    +0.000 A 
ENDBRANCH  20  28
ENDBRANCH   1  20
TORSDOF 3
ENDMDL
