MODEL 1
REMARK VINA RESULT:      -9.3      0.000      0.000
REMARK  Name = 
REMARK  8 active torsions:
REMARK  status: ('A' for Active; 'I' for Inactive)
REMARK    1  A    between atoms: C_1  and  C_2
REMARK    2  A    between atoms: C_2  and  C_3
REMARK    3  A    between atoms: C_6  and  C_7
REMARK    4  A    between atoms: C_6  and  C_8
REMARK    5  A    between atoms: C_13  and  C_14
REMARK    6  A    between atoms: C_14  and  C_16
REMARK    7  A    between atoms: C_21  and  C_22
REMARK    8  A    between atoms: C_22  and  O_24
REMARK                            x       y       z     vdW  Elec       q    Type
REMARK                         _______ _______ _______ _____ _____    ______ ____
ROOT
ATOM      1  C   UNL     1       1.876   9.035  18.347  0.00  0.00    +0.000 C 
ATOM      2  O   UNL     1       2.232   9.864  17.516  0.00  0.00    +0.000 OA
ENDROOT
BRANCH   1  15
ATOM      3  C   UNL     1       5.353   6.096  15.258  0.00  0.00    +0.000 C 
ATOM      4  C   UNL     1       5.532   5.947  16.785  0.00  0.00    +0.000 C 
ATOM      5  C   UNL     1       6.543   7.017  17.263  0.00  0.00    +0.000 C 
ATOM      6  C   UNL     1       6.173   4.578  17.102  0.00  0.00    +0.000 C 
ATOM      7  C   UNL     1       5.181   3.439  16.941  0.00  0.00    +0.000 C 
ATOM      8  C   UNL     1       3.993   3.560  17.924  0.00  0.00    +0.000 C 
ATOM      9  C   UNL     1       2.938   2.540  17.434  0.00  0.00    +0.000 C 
ATOM     10  C   UNL     1       4.462   3.136  19.339  0.00  0.00    +0.000 C 
ATOM     11  C   UNL     1       3.447   5.000  17.990  0.00  0.00    +0.000 A 
ATOM     12  C   UNL     1       2.214   5.259  18.615  0.00  0.00    +0.000 A 
ATOM     13  F   UNL     1       1.512   4.258  19.168  0.00  0.00    +0.000 F 
ATOM     14  C   UNL     1       1.679   6.539  18.738  0.00  0.00    +0.000 A 
ATOM     15  C   UNL     1       2.381   7.628  18.241  0.00  0.00    +0.000 A 
ATOM     16  C   UNL     1       3.598   7.399  17.584  0.00  0.00    +0.000 A 
ATOM     17  C   UNL     1       4.168   6.104  17.473  0.00  0.00    +0.000 A 
ENDBRANCH   1  15
BRANCH   1  18
ATOM     18  C   UNL     1       0.910   9.442  19.400  0.00  0.00    +0.000 A 
ATOM     19  C   UNL     1       1.051   8.887  20.674  0.00  0.00    +0.000 A 
ATOM     20  C   UNL     1       0.414   9.501  21.758  0.00  0.00    +0.000 A 
ATOM     21  C   UNL     1      -0.394  10.628  21.539  0.00  0.00    +0.000 A 
ATOM     22  C   UNL     1      -0.706  11.527  22.579  0.00  0.00    +0.000 A 
ATOM     23  C   UNL     1      -1.385  12.709  22.238  0.00  0.00    +0.000 A 
ATOM     24  C   UNL     1      -2.185  12.724  21.103  0.00  0.00    +0.000 A 
ATOM     25  C   UNL     1      -1.808  11.906  20.058  0.00  0.00    +0.000 A 
ATOM     26  C   UNL     1      -0.785  10.959  20.243  0.00  0.00    +0.000 A 
ATOM     27  C   UNL     1      -0.083  10.400  19.162  0.00  0.00    +0.000 A 
BRANCH  23  28
ATOM     28  C   UNL     1      -0.514  13.926  22.297  0.00  0.00    +0.000 C 
ATOM     29  O   UNL     1       0.700  13.931  22.321  0.00  0.00    +0.000 OA
BRANCH  28  30
ATOM     30  O   UNL     1      -1.221  15.062  22.150  0.00  0.00    +0.000 OA
ATOM     31  H   UNL     1      -0.851  15.426  21.313  0.00  0.00    +0.000 HD
ENDBRANCH  28  30
ENDBRANCH  23  28
ENDBRANCH   1  18
TORSDOF 4
ENDMDL
MODEL 2
REMARK VINA RESULT:      -9.3      3.024      8.991
REMARK  Name = 
REMARK  8 active torsions:
REMARK  status: ('A' for Active; 'I' for Inactive)
REMARK    1  A    between atoms: C_1  and  C_2
REMARK    2  A    between atoms: C_2  and  C_3
REMARK    3  A    between atoms: C_6  and  C_7
REMARK    4  A    between atoms: C_6  and  C_8
REMARK    5  A    between atoms: C_13  and  C_14
REMARK    6  A    between atoms: C_14  and  C_16
REMARK    7  A    between atoms: C_21  and  C_22
REMARK    8  A    between atoms: C_22  and  O_24
REMARK                            x       y       z     vdW  Elec       q    Type
REMARK                         _______ _______ _______ _____ _____    ______ ____
ROOT
ATOM      1  C   UNL     1       0.884  10.365  18.503  0.00  0.00    +0.000 C 
ATOM      2  O   UNL     1       1.639  11.171  17.970  0.00  0.00    +0.000 OA
ENDROOT
BRANCH   1  15
ATOM      3  C   UNL     1      -2.942  12.384  21.903  0.00  0.00    +0.000 C 
ATOM      4  C   UNL     1      -2.932  12.985  20.480  0.00  0.00    +0.000 C 
ATOM      5  C   UNL     1      -1.994  14.217  20.480  0.00  0.00    +0.000 C 
ATOM      6  C   UNL     1      -4.340  13.517  20.132  0.00  0.00    +0.000 C 
ATOM      7  C   UNL     1      -5.310  12.389  19.826  0.00  0.00    +0.000 C 
ATOM      8  C   UNL     1      -4.876  11.569  18.588  0.00  0.00    +0.000 C 
ATOM      9  C   UNL     1      -5.760  10.298  18.598  0.00  0.00    +0.000 C 
ATOM     10  C   UNL     1      -5.197  12.378  17.307  0.00  0.00    +0.000 C 
ATOM     11  C   UNL     1      -3.368  11.249  18.612  0.00  0.00    +0.000 A 
ATOM     12  C   UNL     1      -2.835  10.297  17.725  0.00  0.00    +0.000 A 
ATOM     13  F   UNL     1      -3.631   9.672  16.844  0.00  0.00    +0.000 F 
ATOM     14  C   UNL     1      -1.478   9.985  17.670  0.00  0.00    +0.000 A 
ATOM     15  C   UNL     1      -0.589  10.638  18.513  0.00  0.00    +0.000 A 
ATOM     16  C   UNL     1      -1.095  11.568  19.431  0.00  0.00    +0.000 A 
ATOM     17  C   UNL     1      -2.470  11.915  19.480  0.00  0.00    +0.000 A 
ENDBRANCH   1  15
BRANCH   1  18
ATOM     18  C   UNL     1       1.463   9.172  19.174  0.00  0.00    +0.000 A 
ATOM     19  C   UNL     1       1.133   8.943  20.511  0.00  0.00    +0.000 A 
ATOM     20  C   UNL     1       1.350   7.673  21.058  0.00  0.00    +0.000 A 
ATOM     21  C   UNL     1       1.942   6.673  20.271  0.00  0.00    +0.000 A 
ATOM     22  C   UNL     1       1.804   5.306  20.587  0.00  0.00    +0.000 A 
ATOM     23  C   UNL     1       2.292   4.368  19.660  0.00  0.00    +0.000 A 
ATOM     24  C   UNL     1       3.323   4.739  18.806  0.00  0.00    +0.000 A 
ATOM     25  C   UNL     1       3.384   6.066  18.433  0.00  0.00    +0.000 A 
ATOM     26  C   UNL     1       2.561   7.011  19.069  0.00  0.00    +0.000 A 
ATOM     27  C   UNL     1       2.270   8.257  18.487  0.00  0.00    +0.000 A 
BRANCH  23  28
ATOM     28  C   UNL     1       1.205   3.659  18.913  0.00  0.00    +0.000 C 
ATOM     29  O   UNL     1       1.125   3.552  17.706  0.00  0.00    +0.000 OA
BRANCH  28  30
ATOM     30  O   UNL     1       0.383   2.983  19.737  0.00  0.00    +0.000 OA
ATOM     31  H   UNL     1       0.053   2.263  19.152  0.00  0.00    +0.000 HD
ENDBRANCH  28  30
ENDBRANCH  23  28
ENDBRANCH   1  18
TORSDOF 4
ENDMDL
MODEL 3
REMARK VINA RESULT:      -9.2      3.097      8.941
REMARK  Name = 
REMARK  8 active torsions:
REMARK  status: ('A' for Active; 'I' for Inactive)
REMARK    1  A    between atoms: C_1  and  C_2
REMARK    2  A    between atoms: C_2  and  C_3
REMARK    3  A    between atoms: C_6  and  C_7
REMARK    4  A    between atoms: C_6  and  C_8
REMARK    5  A    between atoms: C_13  and  C_14
REMARK    6  A    between atoms: C_14  and  C_16
REMARK    7  A    between atoms: C_21  and  C_22
REMARK    8  A    between atoms: C_22  and  O_24
REMARK                            x       y       z     vdW  Elec       q    Type
REMARK                         _______ _______ _______ _____ _____    ______ ____
ROOT
ATOM      1  C   UNL     1       1.848   8.955  18.255  0.00  0.00    +0.000 C 
ATOM      2  O   UNL     1       2.418   9.192  17.195  0.00  0.00    +0.000 OA
ENDROOT
BRANCH   1  15
ATOM      3  C   UNL     1      -2.707  11.571  16.618  0.00  0.00    +0.000 C 
ATOM      4  C   UNL     1      -2.799  10.873  17.993  0.00  0.00    +0.000 C 
ATOM      5  C   UNL     1      -3.307   9.428  17.772  0.00  0.00    +0.000 C 
ATOM      6  C   UNL     1      -3.865  11.575  18.862  0.00  0.00    +0.000 C 
ATOM      7  C   UNL     1      -3.373  12.912  19.389  0.00  0.00    +0.000 C 
ATOM      8  C   UNL     1      -2.146  12.756  20.316  0.00  0.00    +0.000 C 
ATOM      9  C   UNL     1      -1.580  14.183  20.506  0.00  0.00    +0.000 C 
ATOM     10  C   UNL     1      -2.616  12.228  21.695  0.00  0.00    +0.000 C 
ATOM     11  C   UNL     1      -1.109  11.775  19.733  0.00  0.00    +0.000 A 
ATOM     12  C   UNL     1       0.182  11.700  20.287  0.00  0.00    +0.000 A 
ATOM     13  F   UNL     1       0.515  12.473  21.333  0.00  0.00    +0.000 F 
ATOM     14  C   UNL     1       1.155  10.814  19.831  0.00  0.00    +0.000 A 
ATOM     15  C   UNL     1       0.858   9.945  18.791  0.00  0.00    +0.000 A 
ATOM     16  C   UNL     1      -0.409  10.016  18.196  0.00  0.00    +0.000 A 
ATOM     17  C   UNL     1      -1.418  10.896  18.666  0.00  0.00    +0.000 A 
ENDBRANCH   1  15
BRANCH   1  18
ATOM     18  C   UNL     1       2.202   7.719  19.001  0.00  0.00    +0.000 A 
ATOM     19  C   UNL     1       1.638   7.529  20.264  0.00  0.00    +0.000 A 
ATOM     20  C   UNL     1       1.649   6.248  20.829  0.00  0.00    +0.000 A 
ATOM     21  C   UNL     1       2.269   5.194  20.140  0.00  0.00    +0.000 A 
ATOM     22  C   UNL     1       1.961   3.847  20.418  0.00  0.00    +0.000 A 
ATOM     23  C   UNL     1       2.508   2.864  19.576  0.00  0.00    +0.000 A 
ATOM     24  C   UNL     1       3.693   3.136  18.904  0.00  0.00    +0.000 A 
ATOM     25  C   UNL     1       3.932   4.449  18.557  0.00  0.00    +0.000 A 
ATOM     26  C   UNL     1       3.104   5.468  19.058  0.00  0.00    +0.000 A 
ATOM     27  C   UNL     1       3.024   6.731  18.447  0.00  0.00    +0.000 A 
BRANCH  23  28
ATOM     28  C   UNL     1       1.498   2.250  18.655  0.00  0.00    +0.000 C 
ATOM     29  O   UNL     1       0.294   2.263  18.812  0.00  0.00    +0.000 OA
BRANCH  28  30
ATOM     30  O   UNL     1       2.057   1.810  17.513  0.00  0.00    +0.000 OA
ATOM     31  H   UNL     1       2.499   0.981  17.807  0.00  0.00    +0.000 HD
ENDBRANCH  28  30
ENDBRANCH  23  28
ENDBRANCH   1  18
TORSDOF 4
ENDMDL
MODEL 4
REMARK VINA RESULT:      -9.1      3.295      8.919
REMARK  Name = 
REMARK  8 active torsions:
REMARK  status: ('A' for Active; 'I' for Inactive)
REMARK    1  A    between atoms: C_1  and  C_2
REMARK    2  A    between atoms: C_2  and  C_3
REMARK    3  A    between atoms: C_6  and  C_7
REMARK    4  A    between atoms: C_6  and  C_8
REMARK    5  A    between atoms: C_13  and  C_14
REMARK    6  A    between atoms: C_14  and  C_16
REMARK    7  A    between atoms: C_21  and  C_22
REMARK    8  A    between atoms: C_22  and  O_24
REMARK                            x       y       z     vdW  Elec       q    Type
REMARK                         _______ _______ _______ _____ _____    ______ ____
ROOT
ATOM      1  C   UNL     1       2.649   5.292  20.296  0.00  0.00    +0.000 C 
ATOM      2  O   UNL     1       2.295   4.742  21.334  0.00  0.00    +0.000 OA
ENDROOT
BRANCH   1  15
ATOM      3  C   UNL     1      -0.891   8.963  22.361  0.00  0.00    +0.000 C 
ATOM      4  C   UNL     1       0.496   9.521  21.977  0.00  0.00    +0.000 C 
ATOM      5  C   UNL     1       1.422   9.417  23.213  0.00  0.00    +0.000 C 
ATOM      6  C   UNL     1       0.379  11.027  21.653  0.00  0.00    +0.000 C 
ATOM      7  C   UNL     1      -0.274  11.264  20.302  0.00  0.00    +0.000 C 
ATOM      8  C   UNL     1       0.559  10.672  19.142  0.00  0.00    +0.000 C 
ATOM      9  C   UNL     1      -0.365  10.708  17.902  0.00  0.00    +0.000 C 
ATOM     10  C   UNL     1       1.777  11.591  18.871  0.00  0.00    +0.000 C 
ATOM     11  C   UNL     1       1.067   9.253  19.467  0.00  0.00    +0.000 A 
ATOM     12  C   UNL     1       1.611   8.448  18.450  0.00  0.00    +0.000 A 
ATOM     13  F   UNL     1       1.702   8.912  17.194  0.00  0.00    +0.000 F 
ATOM     14  C   UNL     1       2.118   7.171  18.681  0.00  0.00    +0.000 A 
ATOM     15  C   UNL     1       2.110   6.651  19.968  0.00  0.00    +0.000 A 
ATOM     16  C   UNL     1       1.545   7.417  20.998  0.00  0.00    +0.000 A 
ATOM     17  C   UNL     1       1.049   8.728  20.782  0.00  0.00    +0.000 A 
ENDBRANCH   1  15
BRANCH   1  18
ATOM     18  C   UNL     1       3.557   4.566  19.370  0.00  0.00    +0.000 A 
ATOM     19  C   UNL     1       3.019   3.538  18.593  0.00  0.00    +0.000 A 
ATOM     20  C   UNL     1       3.730   3.087  17.474  0.00  0.00    +0.000 A 
ATOM     21  C   UNL     1       4.988   3.639  17.186  0.00  0.00    +0.000 A 
ATOM     22  C   UNL     1       5.552   3.559  15.896  0.00  0.00    +0.000 A 
ATOM     23  C   UNL     1       6.738   4.274  15.657  0.00  0.00    +0.000 A 
ATOM     24  C   UNL     1       7.585   4.550  16.722  0.00  0.00    +0.000 A 
ATOM     25  C   UNL     1       7.003   4.718  17.961  0.00  0.00    +0.000 A 
ATOM     26  C   UNL     1       5.644   4.409  18.145  0.00  0.00    +0.000 A 
ATOM     27  C   UNL     1       4.901   4.925  19.220  0.00  0.00    +0.000 A 
BRANCH  23  28
ATOM     28  C   UNL     1       6.531   5.490  14.807  0.00  0.00    +0.000 C 
ATOM     29  O   UNL     1       5.738   6.382  15.025  0.00  0.00    +0.000 OA
BRANCH  28  30
ATOM     30  O   UNL     1       7.455   5.588  13.832  0.00  0.00    +0.000 OA
ATOM     31  H   UNL     1       7.200   4.848  13.234  0.00  0.00    +0.000 HD
ENDBRANCH  28  30
ENDBRANCH  23  28
ENDBRANCH   1  18
TORSDOF 4
ENDMDL
MODEL 5
REMARK VINA RESULT:      -8.9      1.857      3.187
REMARK  Name = 
REMARK  8 active torsions:
REMARK  status: ('A' for Active; 'I' for Inactive)
REMARK    1  A    between atoms: C_1  and  C_2
REMARK    2  A    between atoms: C_2  and  C_3
REMARK    3  A    between atoms: C_6  and  C_7
REMARK    4  A    between atoms: C_6  and  C_8
REMARK    5  A    between atoms: C_13  and  C_14
REMARK    6  A    between atoms: C_14  and  C_16
REMARK    7  A    between atoms: C_21  and  C_22
REMARK    8  A    between atoms: C_22  and  O_24
REMARK                            x       y       z     vdW  Elec       q    Type
REMARK                         _______ _______ _______ _____ _____    ______ ____
ROOT
ATOM      1  C   UNL     1       1.222   8.939  18.115  0.00  0.00    +0.000 C 
ATOM      2  O   UNL     1       0.431   9.042  17.182  0.00  0.00    +0.000 OA
ENDROOT
BRANCH   1  15
ATOM      3  C   UNL     1       2.572   4.398  20.912  0.00  0.00    +0.000 C 
ATOM      4  C   UNL     1       2.481   4.232  19.379  0.00  0.00    +0.000 C 
ATOM      5  C   UNL     1       1.032   3.823  19.019  0.00  0.00    +0.000 C 
ATOM      6  C   UNL     1       3.383   3.062  18.928  0.00  0.00    +0.000 C 
ATOM      7  C   UNL     1       4.854   3.436  18.966  0.00  0.00    +0.000 C 
ATOM      8  C   UNL     1       5.186   4.591  17.993  0.00  0.00    +0.000 C 
ATOM      9  C   UNL     1       6.611   5.061  18.370  0.00  0.00    +0.000 C 
ATOM     10  C   UNL     1       5.220   4.039  16.545  0.00  0.00    +0.000 C 
ATOM     11  C   UNL     1       4.142   5.723  18.070  0.00  0.00    +0.000 A 
ATOM     12  C   UNL     1       4.404   6.967  17.467  0.00  0.00    +0.000 A 
ATOM     13  F   UNL     1       5.556   7.171  16.810  0.00  0.00    +0.000 F 
ATOM     14  C   UNL     1       3.493   8.021  17.471  0.00  0.00    +0.000 A 
ATOM     15  C   UNL     1       2.257   7.857  18.081  0.00  0.00    +0.000 A 
ATOM     16  C   UNL     1       1.979   6.640  18.719  0.00  0.00    +0.000 A 
ATOM     17  C   UNL     1       2.887   5.550  18.701  0.00  0.00    +0.000 A 
ENDBRANCH   1  15
BRANCH   1  18
ATOM     18  C   UNL     1       1.087   9.858  19.275  0.00  0.00    +0.000 A 
ATOM     19  C   UNL     1       1.595  11.152  19.152  0.00  0.00    +0.000 A 
ATOM     20  C   UNL     1       1.176  12.138  20.054  0.00  0.00    +0.000 A 
ATOM     21  C   UNL     1       0.295  11.795  21.091  0.00  0.00    +0.000 A 
ATOM     22  C   UNL     1      -0.484  12.768  21.750  0.00  0.00    +0.000 A 
ATOM     23  C   UNL     1      -1.453  12.319  22.665  0.00  0.00    +0.000 A 
ATOM     24  C   UNL     1      -1.268  11.096  23.296  0.00  0.00    +0.000 A 
ATOM     25  C   UNL     1      -0.583  10.125  22.596  0.00  0.00    +0.000 A 
ATOM     26  C   UNL     1       0.067  10.454  21.394  0.00  0.00    +0.000 A 
ATOM     27  C   UNL     1       0.418   9.479  20.445  0.00  0.00    +0.000 A 
BRANCH  23  28
ATOM     28  C   UNL     1      -2.854  12.452  22.152  0.00  0.00    +0.000 C 
ATOM     29  O   UNL     1      -3.171  12.642  20.996  0.00  0.00    +0.000 OA
BRANCH  28  30
ATOM     30  O   UNL     1      -3.768  12.167  23.098  0.00  0.00    +0.000 OA
ATOM     31  H   UNL     1      -4.595  12.517  22.694  0.00  0.00    +0.000 HD
ENDBRANCH  28  30
ENDBRANCH  23  28
ENDBRANCH   1  18
TORSDOF 4
ENDMDL
MODEL 6
REMARK VINA RESULT:      -8.7      3.512      9.264
REMARK  Name = 
REMARK  8 active torsions:
REMARK  status: ('A' for Active; 'I' for Inactive)
REMARK    1  A    between atoms: C_1  and  C_2
REMARK    2  A    between atoms: C_2  and  C_3
REMARK    3  A    between atoms: C_6  and  C_7
REMARK    4  A    between atoms: C_6  and  C_8
REMARK    5  A    between atoms: C_13  and  C_14
REMARK    6  A    between atoms: C_14  and  C_16
REMARK    7  A    between atoms: C_21  and  C_22
REMARK    8  A    between atoms: C_22  and  O_24
REMARK                            x       y       z     vdW  Elec       q    Type
REMARK                         _______ _______ _______ _____ _____    ______ ____
ROOT
ATOM      1  C   UNL     1       0.735  10.241  18.518  0.00  0.00    +0.000 C 
ATOM      2  O   UNL     1      -0.319  10.073  17.913  0.00  0.00    +0.000 OA
ENDROOT
BRANCH   1  15
ATOM      3  C   UNL     1      -1.291  15.029  20.317  0.00  0.00    +0.000 C 
ATOM      4  C   UNL     1       0.004  14.552  21.011  0.00  0.00    +0.000 C 
ATOM      5  C   UNL     1      -0.390  13.694  22.238  0.00  0.00    +0.000 C 
ATOM      6  C   UNL     1       0.773  15.770  21.568  0.00  0.00    +0.000 C 
ATOM      7  C   UNL     1       1.459  16.557  20.464  0.00  0.00    +0.000 C 
ATOM      8  C   UNL     1       2.526  15.715  19.727  0.00  0.00    +0.000 C 
ATOM      9  C   UNL     1       2.896  16.524  18.461  0.00  0.00    +0.000 C 
ATOM     10  C   UNL     1       3.788  15.601  20.620  0.00  0.00    +0.000 C 
ATOM     11  C   UNL     1       2.014  14.298  19.402  0.00  0.00    +0.000 A 
ATOM     12  C   UNL     1       2.727  13.477  18.510  0.00  0.00    +0.000 A 
ATOM     13  F   UNL     1       3.863  13.917  17.946  0.00  0.00    +0.000 F 
ATOM     14  C   UNL     1       2.339  12.175  18.198  0.00  0.00    +0.000 A 
ATOM     15  C   UNL     1       1.207  11.636  18.793  0.00  0.00    +0.000 A 
ATOM     16  C   UNL     1       0.457  12.440  19.662  0.00  0.00    +0.000 A 
ATOM     17  C   UNL     1       0.854  13.758  20.008  0.00  0.00    +0.000 A 
ENDBRANCH   1  15
BRANCH   1  18
ATOM     18  C   UNL     1       1.537   9.052  18.907  0.00  0.00    +0.000 A 
ATOM     19  C   UNL     1       1.389   8.553  20.202  0.00  0.00    +0.000 A 
ATOM     20  C   UNL     1       1.831   7.256  20.488  0.00  0.00    +0.000 A 
ATOM     21  C   UNL     1       2.458   6.503  19.484  0.00  0.00    +0.000 A 
ATOM     22  C   UNL     1       2.538   5.097  19.555  0.00  0.00    +0.000 A 
ATOM     23  C   UNL     1       3.040   4.414  18.434  0.00  0.00    +0.000 A 
ATOM     24  C   UNL     1       3.913   5.073  17.578  0.00  0.00    +0.000 A 
ATOM     25  C   UNL     1       3.757   6.437  17.450  0.00  0.00    +0.000 A 
ATOM     26  C   UNL     1       2.891   7.128  18.315  0.00  0.00    +0.000 A 
ATOM     27  C   UNL     1       2.376   8.397  17.998  0.00  0.00    +0.000 A 
BRANCH  23  28
ATOM     28  C   UNL     1       1.981   3.686  17.665  0.00  0.00    +0.000 C 
ATOM     29  O   UNL     1       0.975   4.181  17.199  0.00  0.00    +0.000 OA
BRANCH  28  30
ATOM     30  O   UNL     1       2.339   2.419  17.384  0.00  0.00    +0.000 OA
ATOM     31  H   UNL     1       2.390   2.434  16.401  0.00  0.00    +0.000 HD
ENDBRANCH  28  30
ENDBRANCH  23  28
ENDBRANCH   1  18
TORSDOF 4
ENDMDL
MODEL 7
REMARK VINA RESULT:      -8.6      1.370      2.712
REMARK  Name = 
REMARK  8 active torsions:
REMARK  status: ('A' for Active; 'I' for Inactive)
REMARK    1  A    between atoms: C_1  and  C_2
REMARK    2  A    between atoms: C_2  and  C_3
REMARK    3  A    between atoms: C_6  and  C_7
REMARK    4  A    between atoms: C_6  and  C_8
REMARK    5  A    between atoms: C_13  and  C_14
REMARK    6  A    between atoms: C_14  and  C_16
REMARK    7  A    between atoms: C_21  and  C_22
REMARK    8  A    between atoms: C_22  and  O_24
REMARK                            x       y       z     vdW  Elec       q    Type
REMARK                         _______ _______ _______ _____ _____    ______ ____
ROOT
ATOM      1  C   UNL     1       1.775   9.184  18.318  0.00  0.00    +0.000 C 
ATOM      2  O   UNL     1       1.857  10.004  17.410  0.00  0.00    +0.000 OA
ENDROOT
BRANCH   1  15
ATOM      3  C   UNL     1       2.632   4.622  21.271  0.00  0.00    +0.000 C 
ATOM      4  C   UNL     1       2.330   4.398  19.773  0.00  0.00    +0.000 C 
ATOM      5  C   UNL     1       0.799   4.243  19.605  0.00  0.00    +0.000 C 
ATOM      6  C   UNL     1       2.950   3.060  19.313  0.00  0.00    +0.000 C 
ATOM      7  C   UNL     1       4.459   3.160  19.162  0.00  0.00    +0.000 C 
ATOM      8  C   UNL     1       4.868   4.183  18.077  0.00  0.00    +0.000 C 
ATOM      9  C   UNL     1       6.388   4.403  18.262  0.00  0.00    +0.000 C 
ATOM     10  C   UNL     1       4.630   3.561  16.678  0.00  0.00    +0.000 C 
ATOM     11  C   UNL     1       4.057   5.490  18.187  0.00  0.00    +0.000 A 
ATOM     12  C   UNL     1       4.459   6.632  17.470  0.00  0.00    +0.000 A 
ATOM     13  F   UNL     1       5.541   6.588  16.678  0.00  0.00    +0.000 F 
ATOM     14  C   UNL     1       3.755   7.833  17.497  0.00  0.00    +0.000 A 
ATOM     15  C   UNL     1       2.592   7.931  18.250  0.00  0.00    +0.000 A 
ATOM     16  C   UNL     1       2.183   6.820  19.001  0.00  0.00    +0.000 A 
ATOM     17  C   UNL     1       2.876   5.582  18.962  0.00  0.00    +0.000 A 
ENDBRANCH   1  15
BRANCH   1  18
ATOM     18  C   UNL     1       0.821   9.437  19.430  0.00  0.00    +0.000 A 
ATOM     19  C   UNL     1       0.976   8.706  20.609  0.00  0.00    +0.000 A 
ATOM     20  C   UNL     1       0.353   9.158  21.778  0.00  0.00    +0.000 A 
ATOM     21  C   UNL     1      -0.454  10.306  21.732  0.00  0.00    +0.000 A 
ATOM     22  C   UNL     1      -0.752  11.047  22.894  0.00  0.00    +0.000 A 
ATOM     23  C   UNL     1      -1.432  12.267  22.734  0.00  0.00    +0.000 A 
ATOM     24  C   UNL     1      -2.245  12.444  21.621  0.00  0.00    +0.000 A 
ATOM     25  C   UNL     1      -1.882  11.783  20.466  0.00  0.00    +0.000 A 
ATOM     26  C   UNL     1      -0.860  10.819  20.502  0.00  0.00    +0.000 A 
ATOM     27  C   UNL     1      -0.172  10.420  19.343  0.00  0.00    +0.000 A 
BRANCH  23  28
ATOM     28  C   UNL     1      -0.557  13.462  22.956  0.00  0.00    +0.000 C 
ATOM     29  O   UNL     1       0.392  13.784  22.272  0.00  0.00    +0.000 OA
BRANCH  28  30
ATOM     30  O   UNL     1      -1.038  14.268  23.921  0.00  0.00    +0.000 OA
ATOM     31  H   UNL     1      -0.447  14.053  24.680  0.00  0.00    +0.000 HD
ENDBRANCH  28  30
ENDBRANCH  23  28
ENDBRANCH   1  18
TORSDOF 4
ENDMDL
MODEL 8
REMARK VINA RESULT:      -8.6      2.994      9.527
REMARK  Name = 
REMARK  8 active torsions:
REMARK  status: ('A' for Active; 'I' for Inactive)
REMARK    1  A    between atoms: C_1  and  C_2
REMARK    2  A    between atoms: C_2  and  C_3
REMARK    3  A    between atoms: C_6  and  C_7
REMARK    4  A    between atoms: C_6  and  C_8
REMARK    5  A    between atoms: C_13  and  C_14
REMARK    6  A    between atoms: C_14  and  C_16
REMARK    7  A    between atoms: C_21  and  C_22
REMARK    8  A    between atoms: C_22  and  O_24
REMARK                            x       y       z     vdW  Elec       q    Type
REMARK                         _______ _______ _______ _____ _____    ______ ____
ROOT
ATOM      1  C   UNL     1      -0.007  10.238  18.506  0.00  0.00    +0.000 C 
ATOM      2  O   UNL     1      -0.753  10.002  17.562  0.00  0.00    +0.000 OA
ENDROOT
BRANCH   1  15
ATOM      3  C   UNL     1      -3.493  12.730  21.956  0.00  0.00    +0.000 C 
ATOM      4  C   UNL     1      -2.009  12.745  22.385  0.00  0.00    +0.000 C 
ATOM      5  C   UNL     1      -1.740  11.487  23.246  0.00  0.00    +0.000 C 
ATOM      6  C   UNL     1      -1.746  13.958  23.303  0.00  0.00    +0.000 C 
ATOM      7  C   UNL     1      -1.703  15.259  22.520  0.00  0.00    +0.000 C 
ATOM      8  C   UNL     1      -0.549  15.281  21.491  0.00  0.00    +0.000 C 
ATOM      9  C   UNL     1      -0.826  16.498  20.577  0.00  0.00    +0.000 C 
ATOM     10  C   UNL     1       0.789  15.523  22.235  0.00  0.00    +0.000 C 
ATOM     11  C   UNL     1      -0.453  13.955  20.709  0.00  0.00    +0.000 A 
ATOM     12  C   UNL     1       0.349  13.872  19.557  0.00  0.00    +0.000 A 
ATOM     13  F   UNL     1       1.046  14.940  19.138  0.00  0.00    +0.000 F 
ATOM     14  C   UNL     1       0.507  12.698  18.824  0.00  0.00    +0.000 A 
ATOM     15  C   UNL     1      -0.138  11.540  19.235  0.00  0.00    +0.000 A 
ATOM     16  C   UNL     1      -0.970  11.599  20.361  0.00  0.00    +0.000 A 
ATOM     17  C   UNL     1      -1.120  12.780  21.133  0.00  0.00    +0.000 A 
ENDBRANCH   1  15
BRANCH   1  18
ATOM     18  C   UNL     1       1.041   9.245  18.859  0.00  0.00    +0.000 A 
ATOM     19  C   UNL     1       1.101   8.791  20.178  0.00  0.00    +0.000 A 
ATOM     20  C   UNL     1       1.809   7.618  20.464  0.00  0.00    +0.000 A 
ATOM     21  C   UNL     1       2.486   6.951  19.432  0.00  0.00    +0.000 A 
ATOM     22  C   UNL     1       2.844   5.591  19.541  0.00  0.00    +0.000 A 
ATOM     23  C   UNL     1       3.376   4.963  18.402  0.00  0.00    +0.000 A 
ATOM     24  C   UNL     1       4.030   5.734  17.450  0.00  0.00    +0.000 A 
ATOM     25  C   UNL     1       3.600   7.035  17.292  0.00  0.00    +0.000 A 
ATOM     26  C   UNL     1       2.691   7.589  18.210  0.00  0.00    +0.000 A 
ATOM     27  C   UNL     1       1.914   8.719  17.900  0.00  0.00    +0.000 A 
BRANCH  23  28
ATOM     28  C   UNL     1       2.419   4.009  17.756  0.00  0.00    +0.000 C 
ATOM     29  O   UNL     1       1.283   4.266  17.413  0.00  0.00    +0.000 OA
BRANCH  28  30
ATOM     30  O   UNL     1       3.010   2.845  17.426  0.00  0.00    +0.000 OA
ATOM     31  H   UNL     1       3.436   2.585  18.275  0.00  0.00    +0.000 HD
ENDBRANCH  28  30
ENDBRANCH  23  28
ENDBRANCH   1  18
TORSDOF 4
ENDMDL
MODEL 9
REMARK VINA RESULT:      -8.6      2.391      3.299
REMARK  Name = 
REMARK  8 active torsions:
REMARK  status: ('A' for Active; 'I' for Inactive)
REMARK    1  A    between atoms: C_1  and  C_2
REMARK    2  A    between atoms: C_2  and  C_3
REMARK    3  A    between atoms: C_6  and  C_7
REMARK    4  A    between atoms: C_6  and  C_8
REMARK    5  A    between atoms: C_13  and  C_14
REMARK    6  A    between atoms: C_14  and  C_16
REMARK    7  A    between atoms: C_21  and  C_22
REMARK    8  A    between atoms: C_22  and  O_24
REMARK                            x       y       z     vdW  Elec       q    Type
REMARK                         _______ _______ _______ _____ _____    ______ ____
ROOT
ATOM      1  C   UNL     1       1.509   8.220  20.895  0.00  0.00    +0.000 C 
ATOM      2  O   UNL     1       1.789   8.489  22.058  0.00  0.00    +0.000 OA
ENDROOT
BRANCH   1  15
ATOM      3  C   UNL     1       4.311   6.082  16.670  0.00  0.00    +0.000 C 
ATOM      4  C   UNL     1       4.664   5.509  18.061  0.00  0.00    +0.000 C 
ATOM      5  C   UNL     1       5.815   6.355  18.657  0.00  0.00    +0.000 C 
ATOM      6  C   UNL     1       5.220   4.076  17.906  0.00  0.00    +0.000 C 
ATOM      7  C   UNL     1       4.121   3.076  17.591  0.00  0.00    +0.000 C 
ATOM      8  C   UNL     1       3.080   2.978  18.730  0.00  0.00    +0.000 C 
ATOM      9  C   UNL     1       1.888   2.185  18.141  0.00  0.00    +0.000 C 
ATOM     10  C   UNL     1       3.682   2.158  19.899  0.00  0.00    +0.000 C 
ATOM     11  C   UNL     1       2.671   4.369  19.254  0.00  0.00    +0.000 A 
ATOM     12  C   UNL     1       1.552   4.506  20.095  0.00  0.00    +0.000 A 
ATOM     13  F   UNL     1       0.841   3.427  20.456  0.00  0.00    +0.000 F 
ATOM     14  C   UNL     1       1.148   5.727  20.631  0.00  0.00    +0.000 A 
ATOM     15  C   UNL     1       1.874   6.875  20.346  0.00  0.00    +0.000 A 
ATOM     16  C   UNL     1       2.976   6.777  19.485  0.00  0.00    +0.000 A 
ATOM     17  C   UNL     1       3.414   5.536  18.953  0.00  0.00    +0.000 A 
ENDBRANCH   1  15
BRANCH   1  18
ATOM     18  C   UNL     1       0.868   9.262  20.051  0.00  0.00    +0.000 A 
ATOM     19  C   UNL     1       1.245   9.348  18.710  0.00  0.00    +0.000 A 
ATOM     20  C   UNL     1       0.427  10.046  17.814  0.00  0.00    +0.000 A 
ATOM     21  C   UNL     1      -0.727  10.688  18.289  0.00  0.00    +0.000 A 
ATOM     22  C   UNL     1      -1.791  11.028  17.429  0.00  0.00    +0.000 A 
ATOM     23  C   UNL     1      -2.971  11.522  18.012  0.00  0.00    +0.000 A 
ATOM     24  C   UNL     1      -2.897  12.163  19.242  0.00  0.00    +0.000 A 
ATOM     25  C   UNL     1      -1.907  11.750  20.108  0.00  0.00    +0.000 A 
ATOM     26  C   UNL     1      -0.905  10.871  19.660  0.00  0.00    +0.000 A 
ATOM     27  C   UNL     1      -0.134  10.103  20.549  0.00  0.00    +0.000 A 
BRANCH  23  28
ATOM     28  C   UNL     1      -4.097  10.536  17.987  0.00  0.00    +0.000 C 
ATOM     29  O   UNL     1      -5.280  10.806  18.035  0.00  0.00    +0.000 OA
BRANCH  28  30
ATOM     30  O   UNL     1      -3.669   9.286  17.730  0.00  0.00    +0.000 OA
ATOM     31  H   UNL     1      -4.313   8.740  18.238  0.00  0.00    +0.000 HD
ENDBRANCH  28  30
ENDBRANCH  23  28
ENDBRANCH   1  18
TORSDOF 4
ENDMDL
