MODEL 1
REMARK VINA RESULT:      -7.6      0.000      0.000
REMARK  Name = 
REMARK  6 active torsions:
REMARK  status: ('A' for Active; 'I' for Inactive)
REMARK    1  A    between atoms: C_1  and  N_2
REMARK    2  A    between atoms: N_2  and  C_3
REMARK    3  A    between atoms: N_2  and  S_9
REMARK    4  A    between atoms: S_9  and  C_12
REMARK    5  A    between atoms: C_15  and  N_16
REMARK    6  A    between atoms: C_17  and  C_19
REMARK                            x       y       z     vdW  Elec       q    Type
REMARK                         _______ _______ _______ _____ _____    ______ ____
ROOT
ATOM      1  C   UNL     1       3.338   6.972  18.364  0.00  0.00    +0.000 A 
ATOM      2  C   UNL     1       2.893   6.658  19.650  0.00  0.00    +0.000 A 
ATOM      3  C   UNL     1       1.924   7.457  20.269  0.00  0.00    +0.000 A 
ATOM      4  C   UNL     1       1.400   8.580  19.621  0.00  0.00    +0.000 A 
ATOM      5  C   UNL     1       1.840   8.874  18.321  0.00  0.00    +0.000 A 
ATOM      6  C   UNL     1       2.819   8.086  17.700  0.00  0.00    +0.000 A 
ENDROOT
BRANCH   4   7
ATOM      7  N   UNL     1       0.458   9.454  20.205  0.00  0.00    +0.000 N 
ATOM      8  C   UNL     1       0.525  10.059  21.452  0.00  0.00    +0.000 C 
ATOM      9  O   UNL     1       1.466   9.927  22.231  0.00  0.00    +0.000 OA
ATOM     10  H   UNL     1      -0.321   9.741  19.625  0.00  0.00    +0.000 HD
BRANCH   8  11
ATOM     11  C   UNL     1      -0.609  10.920  21.793  0.00  0.00    +0.000 A 
ATOM     12  C   UNL     1      -1.206  11.032  23.037  0.00  0.00    +0.000 A 
ATOM     13  C   UNL     1      -2.289  11.956  23.052  0.00  0.00    +0.000 A 
ATOM     14  C   UNL     1      -2.493  12.523  21.816  0.00  0.00    +0.000 A 
ATOM     15  S   UNL     1      -1.384  11.939  20.651  0.00  0.00    +0.000 S 
ENDBRANCH   8  11
ENDBRANCH   4   7
BRANCH   1  16
ATOM     16  S   UNL     1       4.713   6.080  17.659  0.00  0.00    +0.000 S 
ATOM     17  O   UNL     1       5.637   5.798  18.742  0.00  0.00    +0.000 OA
ATOM     18  O   UNL     1       5.157   6.830  16.501  0.00  0.00    +0.000 OA
BRANCH  16  20
ATOM     19  C   UNL     1       4.760   3.859  16.091  0.00  0.00    +0.000 C 
ATOM     20  N   UNL     1       4.057   4.602  17.142  0.00  0.00    +0.000 N 
BRANCH  20  21
ATOM     21  C   UNL     1       3.211   3.874  18.034  0.00  0.00    +0.000 A 
ATOM     22  C   UNL     1       1.848   3.806  17.741  0.00  0.00    +0.000 A 
ATOM     23  C   UNL     1       0.991   3.064  18.555  0.00  0.00    +0.000 A 
ATOM     24  C   UNL     1       1.497   2.397  19.669  0.00  0.00    +0.000 A 
ATOM     25  C   UNL     1       2.857   2.474  19.972  0.00  0.00    +0.000 A 
ATOM     26  C   UNL     1       3.717   3.213  19.155  0.00  0.00    +0.000 A 
ENDBRANCH  20  21
ENDBRANCH  16  20
ENDBRANCH   1  16
TORSDOF 5
ENDMDL
MODEL 2
REMARK VINA RESULT:      -7.6      5.135      7.238
REMARK  Name = 
REMARK  6 active torsions:
REMARK  status: ('A' for Active; 'I' for Inactive)
REMARK    1  A    between atoms: C_1  and  N_2
REMARK    2  A    between atoms: N_2  and  C_3
REMARK    3  A    between atoms: N_2  and  S_9
REMARK    4  A    between atoms: S_9  and  C_12
REMARK    5  A    between atoms: C_15  and  N_16
REMARK    6  A    between atoms: C_17  and  C_19
REMARK                            x       y       z     vdW  Elec       q    Type
REMARK                         _______ _______ _______ _____ _____    ______ ____
ROOT
ATOM      1  C   UNL     1       6.373   5.714  17.955  0.00  0.00    +0.000 A 
ATOM      2  C   UNL     1       6.408   6.814  17.096  0.00  0.00    +0.000 A 
ATOM      3  C   UNL     1       7.311   7.858  17.334  0.00  0.00    +0.000 A 
ATOM      4  C   UNL     1       8.175   7.822  18.434  0.00  0.00    +0.000 A 
ATOM      5  C   UNL     1       8.143   6.701  19.278  0.00  0.00    +0.000 A 
ATOM      6  C   UNL     1       7.234   5.659  19.053  0.00  0.00    +0.000 A 
ENDROOT
BRANCH   4   7
ATOM      7  N   UNL     1       9.074   8.859  18.759  0.00  0.00    +0.000 N 
ATOM      8  C   UNL     1       8.972  10.203  18.424  0.00  0.00    +0.000 C 
ATOM      9  O   UNL     1       8.032  10.686  17.798  0.00  0.00    +0.000 OA
ATOM     10  H   UNL     1       9.844   8.623  19.373  0.00  0.00    +0.000 HD
BRANCH   8  11
ATOM     11  C   UNL     1      10.066  11.052  18.900  0.00  0.00    +0.000 A 
ATOM     12  C   UNL     1      10.379  11.316  20.223  0.00  0.00    +0.000 A 
ATOM     13  C   UNL     1      11.502  12.179  20.365  0.00  0.00    +0.000 A 
ATOM     14  C   UNL     1      12.015  12.555  19.145  0.00  0.00    +0.000 A 
ATOM     15  S   UNL     1      11.143  11.868  17.843  0.00  0.00    +0.000 S 
ENDBRANCH   8  11
ENDBRANCH   4   7
BRANCH   1  16
ATOM     16  S   UNL     1       5.090   4.487  17.772  0.00  0.00    +0.000 S 
ATOM     17  O   UNL     1       5.452   3.364  18.617  0.00  0.00    +0.000 OA
ATOM     18  O   UNL     1       4.888   4.293  16.351  0.00  0.00    +0.000 OA
BRANCH  16  20
ATOM     19  C   UNL     1       3.268   6.502  17.905  0.00  0.00    +0.000 C 
ATOM     20  N   UNL     1       3.701   5.204  18.435  0.00  0.00    +0.000 N 
BRANCH  20  21
ATOM     21  C   UNL     1       2.723   4.369  19.057  0.00  0.00    +0.000 A 
ATOM     22  C   UNL     1       2.550   4.474  20.438  0.00  0.00    +0.000 A 
ATOM     23  C   UNL     1       1.572   3.715  21.083  0.00  0.00    +0.000 A 
ATOM     24  C   UNL     1       0.773   2.842  20.346  0.00  0.00    +0.000 A 
ATOM     25  C   UNL     1       0.954   2.726  18.967  0.00  0.00    +0.000 A 
ATOM     26  C   UNL     1       1.929   3.489  18.320  0.00  0.00    +0.000 A 
ENDBRANCH  20  21
ENDBRANCH  16  20
ENDBRANCH   1  16
TORSDOF 5
ENDMDL
MODEL 3
REMARK VINA RESULT:      -7.6      0.838      1.375
REMARK  Name = 
REMARK  6 active torsions:
REMARK  status: ('A' for Active; 'I' for Inactive)
REMARK    1  A    between atoms: C_1  and  N_2
REMARK    2  A    between atoms: N_2  and  C_3
REMARK    3  A    between atoms: N_2  and  S_9
REMARK    4  A    between atoms: S_9  and  C_12
REMARK    5  A    between atoms: C_15  and  N_16
REMARK    6  A    between atoms: C_17  and  C_19
REMARK                            x       y       z     vdW  Elec       q    Type
REMARK                         _______ _______ _______ _____ _____    ______ ____
ROOT
ATOM      1  C   UNL     1       3.277   7.040  18.540  0.00  0.00    +0.000 A 
ATOM      2  C   UNL     1       2.719   6.799  19.797  0.00  0.00    +0.000 A 
ATOM      3  C   UNL     1       1.701   7.631  20.281  0.00  0.00    +0.000 A 
ATOM      4  C   UNL     1       1.241   8.714  19.525  0.00  0.00    +0.000 A 
ATOM      5  C   UNL     1       1.795   8.933  18.255  0.00  0.00    +0.000 A 
ATOM      6  C   UNL     1       2.823   8.113  17.770  0.00  0.00    +0.000 A 
ENDROOT
BRANCH   4   7
ATOM      7  N   UNL     1       0.254   9.618  19.972  0.00  0.00    +0.000 N 
ATOM      8  C   UNL     1       0.354  10.537  21.007  0.00  0.00    +0.000 C 
ATOM      9  O   UNL     1       1.369  10.708  21.679  0.00  0.00    +0.000 OA
ATOM     10  H   UNL     1      -0.602   9.665  19.432  0.00  0.00    +0.000 HD
BRANCH   8  11
ATOM     11  C   UNL     1      -0.843  11.346  21.246  0.00  0.00    +0.000 A 
ATOM     12  C   UNL     1      -1.619  11.962  20.279  0.00  0.00    +0.000 A 
ATOM     13  C   UNL     1      -2.721  12.678  20.826  0.00  0.00    +0.000 A 
ATOM     14  C   UNL     1      -2.755  12.592  22.198  0.00  0.00    +0.000 A 
ATOM     15  S   UNL     1      -1.463  11.655  22.815  0.00  0.00    +0.000 S 
ENDBRANCH   8  11
ENDBRANCH   4   7
BRANCH   1  16
ATOM     16  S   UNL     1       4.706   6.111  18.012  0.00  0.00    +0.000 S 
ATOM     17  O   UNL     1       5.288   5.516  19.200  0.00  0.00    +0.000 OA
ATOM     18  O   UNL     1       5.498   6.990  17.176  0.00  0.00    +0.000 OA
BRANCH  16  20
ATOM     19  C   UNL     1       4.834   4.448  15.864  0.00  0.00    +0.000 C 
ATOM     20  N   UNL     1       4.082   4.854  17.056  0.00  0.00    +0.000 N 
BRANCH  20  21
ATOM     21  C   UNL     1       3.205   3.901  17.658  0.00  0.00    +0.000 A 
ATOM     22  C   UNL     1       3.761   2.737  18.191  0.00  0.00    +0.000 A 
ATOM     23  C   UNL     1       2.950   1.801  18.833  0.00  0.00    +0.000 A 
ATOM     24  C   UNL     1       1.578   2.024  18.934  0.00  0.00    +0.000 A 
ATOM     25  C   UNL     1       1.017   3.180  18.390  0.00  0.00    +0.000 A 
ATOM     26  C   UNL     1       1.829   4.121  17.751  0.00  0.00    +0.000 A 
ENDBRANCH  20  21
ENDBRANCH  16  20
ENDBRANCH   1  16
TORSDOF 5
ENDMDL
MODEL 4
REMARK VINA RESULT:      -7.6      5.141      7.231
REMARK  Name = 
REMARK  6 active torsions:
REMARK  status: ('A' for Active; 'I' for Inactive)
REMARK    1  A    between atoms: C_1  and  N_2
REMARK    2  A    between atoms: N_2  and  C_3
REMARK    3  A    between atoms: N_2  and  S_9
REMARK    4  A    between atoms: S_9  and  C_12
REMARK    5  A    between atoms: C_15  and  N_16
REMARK    6  A    between atoms: C_17  and  C_19
REMARK                            x       y       z     vdW  Elec       q    Type
REMARK                         _______ _______ _______ _____ _____    ______ ____
ROOT
ATOM      1  C   UNL     1       6.305   5.747  17.955  0.00  0.00    +0.000 A 
ATOM      2  C   UNL     1       6.303   6.859  17.110  0.00  0.00    +0.000 A 
ATOM      3  C   UNL     1       7.215   7.900  17.323  0.00  0.00    +0.000 A 
ATOM      4  C   UNL     1       8.125   7.850  18.384  0.00  0.00    +0.000 A 
ATOM      5  C   UNL     1       8.130   6.719  19.213  0.00  0.00    +0.000 A 
ATOM      6  C   UNL     1       7.212   5.678  19.014  0.00  0.00    +0.000 A 
ENDROOT
BRANCH   4   7
ATOM      7  N   UNL     1       9.036   8.884  18.683  0.00  0.00    +0.000 N 
ATOM      8  C   UNL     1       8.932  10.228  18.349  0.00  0.00    +0.000 C 
ATOM      9  O   UNL     1       7.978  10.714  17.747  0.00  0.00    +0.000 OA
ATOM     10  H   UNL     1       9.821   8.645  19.278  0.00  0.00    +0.000 HD
BRANCH   8  11
ATOM     11  C   UNL     1      10.041  11.073  18.796  0.00  0.00    +0.000 A 
ATOM     12  C   UNL     1      11.098  11.513  18.016  0.00  0.00    +0.000 A 
ATOM     13  C   UNL     1      12.019  12.323  18.738  0.00  0.00    +0.000 A 
ATOM     14  C   UNL     1      11.643  12.478  20.052  0.00  0.00    +0.000 A 
ATOM     15  S   UNL     1      10.189  11.647  20.405  0.00  0.00    +0.000 S 
ENDBRANCH   8  11
ENDBRANCH   4   7
BRANCH   1  16
ATOM     16  S   UNL     1       5.016   4.521  17.811  0.00  0.00    +0.000 S 
ATOM     17  O   UNL     1       5.383   3.415  18.674  0.00  0.00    +0.000 OA
ATOM     18  O   UNL     1       4.798   4.298  16.396  0.00  0.00    +0.000 OA
BRANCH  16  20
ATOM     19  C   UNL     1       3.134   6.485  17.847  0.00  0.00    +0.000 C 
ATOM     20  N   UNL     1       3.637   5.257  18.473  0.00  0.00    +0.000 N 
BRANCH  20  21
ATOM     21  C   UNL     1       2.719   4.456  19.220  0.00  0.00    +0.000 A 
ATOM     22  C   UNL     1       1.839   3.632  18.515  0.00  0.00    +0.000 A 
ATOM     23  C   UNL     1       0.960   2.795  19.202  0.00  0.00    +0.000 A 
ATOM     24  C   UNL     1       0.953   2.788  20.596  0.00  0.00    +0.000 A 
ATOM     25  C   UNL     1       1.821   3.621  21.302  0.00  0.00    +0.000 A 
ATOM     26  C   UNL     1       2.706   4.457  20.616  0.00  0.00    +0.000 A 
ENDBRANCH  20  21
ENDBRANCH  16  20
ENDBRANCH   1  16
TORSDOF 5
ENDMDL
MODEL 5
REMARK VINA RESULT:      -7.5      2.482      3.713
REMARK  Name = 
REMARK  6 active torsions:
REMARK  status: ('A' for Active; 'I' for Inactive)
REMARK    1  A    between atoms: C_1  and  N_2
REMARK    2  A    between atoms: N_2  and  C_3
REMARK    3  A    between atoms: N_2  and  S_9
REMARK    4  A    between atoms: S_9  and  C_12
REMARK    5  A    between atoms: C_15  and  N_16
REMARK    6  A    between atoms: C_17  and  C_19
REMARK                            x       y       z     vdW  Elec       q    Type
REMARK                         _______ _______ _______ _____ _____    ______ ____
ROOT
ATOM      1  C   UNL     1       3.367   5.183  18.660  0.00  0.00    +0.000 A 
ATOM      2  C   UNL     1       3.130   6.379  17.979  0.00  0.00    +0.000 A 
ATOM      3  C   UNL     1       2.475   7.434  18.626  0.00  0.00    +0.000 A 
ATOM      4  C   UNL     1       2.040   7.303  19.949  0.00  0.00    +0.000 A 
ATOM      5  C   UNL     1       2.301   6.104  20.629  0.00  0.00    +0.000 A 
ATOM      6  C   UNL     1       2.945   5.039  19.983  0.00  0.00    +0.000 A 
ENDROOT
BRANCH   4   7
ATOM      7  N   UNL     1       1.333   8.307  20.644  0.00  0.00    +0.000 N 
ATOM      8  C   UNL     1       0.828   9.495  20.133  0.00  0.00    +0.000 C 
ATOM      9  O   UNL     1       0.912   9.826  18.952  0.00  0.00    +0.000 OA
ATOM     10  H   UNL     1       1.092   8.114  21.609  0.00  0.00    +0.000 HD
BRANCH   8  11
ATOM     11  C   UNL     1       0.136  10.350  21.099  0.00  0.00    +0.000 A 
ATOM     12  C   UNL     1      -0.394   9.947  22.314  0.00  0.00    +0.000 A 
ATOM     13  C   UNL     1      -1.005  11.014  23.033  0.00  0.00    +0.000 A 
ATOM     14  C   UNL     1      -0.927  12.203  22.345  0.00  0.00    +0.000 A 
ATOM     15  S   UNL     1      -0.124  12.026  20.845  0.00  0.00    +0.000 S 
ENDBRANCH   8  11
ENDBRANCH   4   7
BRANCH   1  16
ATOM     16  S   UNL     1       4.014   3.773  17.778  0.00  0.00    +0.000 S 
ATOM     17  O   UNL     1       2.979   3.334  16.861  0.00  0.00    +0.000 OA
ATOM     18  O   UNL     1       4.544   2.859  18.769  0.00  0.00    +0.000 OA
BRANCH  16  20
ATOM     19  C   UNL     1       5.150   4.418  15.393  0.00  0.00    +0.000 C 
ATOM     20  N   UNL     1       5.297   4.388  16.852  0.00  0.00    +0.000 N 
BRANCH  20  21
ATOM     21  C   UNL     1       6.205   5.310  17.457  0.00  0.00    +0.000 A 
ATOM     22  C   UNL     1       6.861   4.918  18.626  0.00  0.00    +0.000 A 
ATOM     23  C   UNL     1       7.794   5.765  19.225  0.00  0.00    +0.000 A 
ATOM     24  C   UNL     1       8.064   7.010  18.661  0.00  0.00    +0.000 A 
ATOM     25  C   UNL     1       7.400   7.410  17.501  0.00  0.00    +0.000 A 
ATOM     26  C   UNL     1       6.469   6.561  16.897  0.00  0.00    +0.000 A 
ENDBRANCH  20  21
ENDBRANCH  16  20
ENDBRANCH   1  16
TORSDOF 5
ENDMDL
MODEL 6
REMARK VINA RESULT:      -7.5      2.923      3.979
REMARK  Name = 
REMARK  6 active torsions:
REMARK  status: ('A' for Active; 'I' for Inactive)
REMARK    1  A    between atoms: C_1  and  N_2
REMARK    2  A    between atoms: N_2  and  C_3
REMARK    3  A    between atoms: N_2  and  S_9
REMARK    4  A    between atoms: S_9  and  C_12
REMARK    5  A    between atoms: C_15  and  N_16
REMARK    6  A    between atoms: C_17  and  C_19
REMARK                            x       y       z     vdW  Elec       q    Type
REMARK                         _______ _______ _______ _____ _____    ______ ____
ROOT
ATOM      1  C   UNL     1       2.320   5.734  19.239  0.00  0.00    +0.000 A 
ATOM      2  C   UNL     1       2.497   6.439  18.047  0.00  0.00    +0.000 A 
ATOM      3  C   UNL     1       2.276   7.821  18.013  0.00  0.00    +0.000 A 
ATOM      4  C   UNL     1       1.863   8.509  19.159  0.00  0.00    +0.000 A 
ATOM      5  C   UNL     1       1.707   7.793  20.355  0.00  0.00    +0.000 A 
ATOM      6  C   UNL     1       1.915   6.407  20.394  0.00  0.00    +0.000 A 
ENDROOT
BRANCH   4   7
ATOM      7  N   UNL     1       1.576   9.891  19.183  0.00  0.00    +0.000 N 
ATOM      8  C   UNL     1       0.487  10.539  18.616  0.00  0.00    +0.000 C 
ATOM      9  O   UNL     1      -0.420   9.965  18.018  0.00  0.00    +0.000 OA
ATOM     10  H   UNL     1       2.186  10.476  19.742  0.00  0.00    +0.000 HD
BRANCH   8  11
ATOM     11  C   UNL     1       0.456  11.991  18.801  0.00  0.00    +0.000 A 
ATOM     12  C   UNL     1      -0.630  12.820  18.575  0.00  0.00    +0.000 A 
ATOM     13  C   UNL     1      -0.349  14.189  18.849  0.00  0.00    +0.000 A 
ATOM     14  C   UNL     1       0.947  14.369  19.274  0.00  0.00    +0.000 A 
ATOM     15  S   UNL     1       1.812  12.893  19.338  0.00  0.00    +0.000 S 
ENDBRANCH   8  11
ENDBRANCH   4   7
BRANCH   1  16
ATOM     16  S   UNL     1       2.402   3.951  19.235  0.00  0.00    +0.000 S 
ATOM     17  O   UNL     1       2.005   3.510  17.911  0.00  0.00    +0.000 OA
ATOM     18  O   UNL     1       1.680   3.490  20.403  0.00  0.00    +0.000 OA
BRANCH  16  20
ATOM     19  C   UNL     1       4.416   2.282  19.982  0.00  0.00    +0.000 C 
ATOM     20  N   UNL     1       4.050   3.590  19.426  0.00  0.00    +0.000 N 
BRANCH  20  21
ATOM     21  C   UNL     1       5.004   4.264  18.604  0.00  0.00    +0.000 A 
ATOM     22  C   UNL     1       5.871   5.175  19.211  0.00  0.00    +0.000 A 
ATOM     23  C   UNL     1       6.852   5.820  18.458  0.00  0.00    +0.000 A 
ATOM     24  C   UNL     1       6.961   5.561  17.093  0.00  0.00    +0.000 A 
ATOM     25  C   UNL     1       6.087   4.662  16.481  0.00  0.00    +0.000 A 
ATOM     26  C   UNL     1       5.107   4.011  17.235  0.00  0.00    +0.000 A 
ENDBRANCH  20  21
ENDBRANCH  16  20
ENDBRANCH   1  16
TORSDOF 5
ENDMDL
MODEL 7
REMARK VINA RESULT:      -7.5      0.969      1.427
REMARK  Name = 
REMARK  6 active torsions:
REMARK  status: ('A' for Active; 'I' for Inactive)
REMARK    1  A    between atoms: C_1  and  N_2
REMARK    2  A    between atoms: N_2  and  C_3
REMARK    3  A    between atoms: N_2  and  S_9
REMARK    4  A    between atoms: S_9  and  C_12
REMARK    5  A    between atoms: C_15  and  N_16
REMARK    6  A    between atoms: C_17  and  C_19
REMARK                            x       y       z     vdW  Elec       q    Type
REMARK                         _______ _______ _______ _____ _____    ______ ____
ROOT
ATOM      1  C   UNL     1       3.029   7.131  18.747  0.00  0.00    +0.000 A 
ATOM      2  C   UNL     1       2.564   8.151  17.914  0.00  0.00    +0.000 A 
ATOM      3  C   UNL     1       1.598   9.050  18.383  0.00  0.00    +0.000 A 
ATOM      4  C   UNL     1       1.079   8.935  19.677  0.00  0.00    +0.000 A 
ATOM      5  C   UNL     1       1.569   7.918  20.510  0.00  0.00    +0.000 A 
ATOM      6  C   UNL     1       2.526   7.007  20.044  0.00  0.00    +0.000 A 
ENDROOT
BRANCH   4   7
ATOM      7  N   UNL     1       0.071   9.776  20.195  0.00  0.00    +0.000 N 
ATOM      8  C   UNL     1       0.220  10.815  21.103  0.00  0.00    +0.000 C 
ATOM      9  O   UNL     1       1.300  11.169  21.572  0.00  0.00    +0.000 OA
ATOM     10  H   UNL     1      -0.859   9.669  19.807  0.00  0.00    +0.000 HD
BRANCH   8  11
ATOM     11  C   UNL     1      -1.014  11.515  21.462  0.00  0.00    +0.000 A 
ATOM     12  C   UNL     1      -1.548  11.629  22.735  0.00  0.00    +0.000 A 
ATOM     13  C   UNL     1      -2.761  12.375  22.763  0.00  0.00    +0.000 A 
ATOM     14  C   UNL     1      -3.122  12.808  21.508  0.00  0.00    +0.000 A 
ATOM     15  S   UNL     1      -2.004  12.314  20.311  0.00  0.00    +0.000 S 
ENDBRANCH   8  11
ENDBRANCH   4   7
BRANCH   1  16
ATOM     16  S   UNL     1       4.102   5.868  18.087  0.00  0.00    +0.000 S 
ATOM     17  O   UNL     1       5.115   5.604  19.091  0.00  0.00    +0.000 OA
ATOM     18  O   UNL     1       4.489   6.292  16.757  0.00  0.00    +0.000 OA
BRANCH  16  20
ATOM     19  C   UNL     1       3.279   3.627  16.785  0.00  0.00    +0.000 C 
ATOM     20  N   UNL     1       3.125   4.485  17.964  0.00  0.00    +0.000 N 
BRANCH  20  21
ATOM     21  C   UNL     1       2.600   3.902  19.158  0.00  0.00    +0.000 A 
ATOM     22  C   UNL     1       1.215   3.892  19.334  0.00  0.00    +0.000 A 
ATOM     23  C   UNL     1       0.655   3.289  20.460  0.00  0.00    +0.000 A 
ATOM     24  C   UNL     1       1.481   2.704  21.418  0.00  0.00    +0.000 A 
ATOM     25  C   UNL     1       2.866   2.725  21.252  0.00  0.00    +0.000 A 
ATOM     26  C   UNL     1       3.429   3.324  20.122  0.00  0.00    +0.000 A 
ENDBRANCH  20  21
ENDBRANCH  16  20
ENDBRANCH   1  16
TORSDOF 5
ENDMDL
MODEL 8
REMARK VINA RESULT:      -7.5      0.386      1.036
REMARK  Name = 
REMARK  6 active torsions:
REMARK  status: ('A' for Active; 'I' for Inactive)
REMARK    1  A    between atoms: C_1  and  N_2
REMARK    2  A    between atoms: N_2  and  C_3
REMARK    3  A    between atoms: N_2  and  S_9
REMARK    4  A    between atoms: S_9  and  C_12
REMARK    5  A    between atoms: C_15  and  N_16
REMARK    6  A    between atoms: C_17  and  C_19
REMARK                            x       y       z     vdW  Elec       q    Type
REMARK                         _______ _______ _______ _____ _____    ______ ____
ROOT
ATOM      1  C   UNL     1       3.578   6.940  18.115  0.00  0.00    +0.000 A 
ATOM      2  C   UNL     1       3.117   6.587  19.385  0.00  0.00    +0.000 A 
ATOM      3  C   UNL     1       2.154   7.377  20.025  0.00  0.00    +0.000 A 
ATOM      4  C   UNL     1       1.653   8.532  19.413  0.00  0.00    +0.000 A 
ATOM      5  C   UNL     1       2.109   8.865  18.129  0.00  0.00    +0.000 A 
ATOM      6  C   UNL     1       3.082   8.085  17.488  0.00  0.00    +0.000 A 
ENDROOT
BRANCH   4   7
ATOM      7  N   UNL     1       0.720   9.398  20.021  0.00  0.00    +0.000 N 
ATOM      8  C   UNL     1       0.629   9.737  21.364  0.00  0.00    +0.000 C 
ATOM      9  O   UNL     1       1.401   9.331  22.229  0.00  0.00    +0.000 OA
ATOM     10  H   UNL     1       0.088   9.895  19.405  0.00  0.00    +0.000 HD
BRANCH   8  11
ATOM     11  C   UNL     1      -0.451  10.664  21.705  0.00  0.00    +0.000 A 
ATOM     12  C   UNL     1      -1.034  10.817  22.952  0.00  0.00    +0.000 A 
ATOM     13  C   UNL     1      -2.061  11.803  22.967  0.00  0.00    +0.000 A 
ATOM     14  C   UNL     1      -2.239  12.374  21.728  0.00  0.00    +0.000 A 
ATOM     15  S   UNL     1      -1.171  11.721  20.561  0.00  0.00    +0.000 S 
ENDBRANCH   8  11
ENDBRANCH   4   7
BRANCH   1  16
ATOM     16  S   UNL     1       4.945   6.054  17.389  0.00  0.00    +0.000 S 
ATOM     17  O   UNL     1       5.839   5.690  18.473  0.00  0.00    +0.000 OA
ATOM     18  O   UNL     1       5.431   6.854  16.283  0.00  0.00    +0.000 OA
BRANCH  16  20
ATOM     19  C   UNL     1       4.973   3.917  15.707  0.00  0.00    +0.000 C 
ATOM     20  N   UNL     1       4.265   4.623  16.779  0.00  0.00    +0.000 N 
BRANCH  20  21
ATOM     21  C   UNL     1       3.379   3.871  17.612  0.00  0.00    +0.000 A 
ATOM     22  C   UNL     1       3.934   3.085  18.623  0.00  0.00    +0.000 A 
ATOM     23  C   UNL     1       3.107   2.373  19.493  0.00  0.00    +0.000 A 
ATOM     24  C   UNL     1       1.723   2.439  19.344  0.00  0.00    +0.000 A 
ATOM     25  C   UNL     1       1.166   3.213  18.325  0.00  0.00    +0.000 A 
ATOM     26  C   UNL     1       1.993   3.930  17.457  0.00  0.00    +0.000 A 
ENDBRANCH  20  21
ENDBRANCH  16  20
ENDBRANCH   1  16
TORSDOF 5
ENDMDL
MODEL 9
REMARK VINA RESULT:      -7.5      1.135      1.318
REMARK  Name = 
REMARK  6 active torsions:
REMARK  status: ('A' for Active; 'I' for Inactive)
REMARK    1  A    between atoms: C_1  and  N_2
REMARK    2  A    between atoms: N_2  and  C_3
REMARK    3  A    between atoms: N_2  and  S_9
REMARK    4  A    between atoms: S_9  and  C_12
REMARK    5  A    between atoms: C_15  and  N_16
REMARK    6  A    between atoms: C_17  and  C_19
REMARK                            x       y       z     vdW  Elec       q    Type
REMARK                         _______ _______ _______ _____ _____    ______ ____
ROOT
ATOM      1  C   UNL     1       2.851   7.165  18.620  0.00  0.00    +0.000 A 
ATOM      2  C   UNL     1       2.379   7.078  19.931  0.00  0.00    +0.000 A 
ATOM      3  C   UNL     1       1.446   8.011  20.402  0.00  0.00    +0.000 A 
ATOM      4  C   UNL     1       0.987   9.043  19.577  0.00  0.00    +0.000 A 
ATOM      5  C   UNL     1       1.454   9.108  18.256  0.00  0.00    +0.000 A 
ATOM      6  C   UNL     1       2.397   8.186  17.782  0.00  0.00    +0.000 A 
ENDROOT
BRANCH   4   7
ATOM      7  N   UNL     1       0.086  10.043  20.002  0.00  0.00    +0.000 N 
ATOM      8  C   UNL     1       0.348  11.119  20.839  0.00  0.00    +0.000 C 
ATOM      9  O   UNL     1       1.453  11.364  21.318  0.00  0.00    +0.000 OA
ATOM     10  H   UNL     1      -0.840  10.029  19.592  0.00  0.00    +0.000 HD
BRANCH   8  11
ATOM     11  C   UNL     1      -0.792  11.997  21.108  0.00  0.00    +0.000 A 
ATOM     12  C   UNL     1      -1.695  12.472  20.172  0.00  0.00    +0.000 A 
ATOM     13  C   UNL     1      -2.698  13.306  20.743  0.00  0.00    +0.000 A 
ATOM     14  C   UNL     1      -2.531  13.448  22.101  0.00  0.00    +0.000 A 
ATOM     15  S   UNL     1      -1.172  12.581  22.675  0.00  0.00    +0.000 S 
ENDBRANCH   8  11
ENDBRANCH   4   7
BRANCH   1  16
ATOM     16  S   UNL     1       4.185   6.107  18.086  0.00  0.00    +0.000 S 
ATOM     17  O   UNL     1       5.100   5.979  19.205  0.00  0.00    +0.000 OA
ATOM     18  O   UNL     1       4.655   6.624  16.817  0.00  0.00    +0.000 OA
BRANCH  16  20
ATOM     19  C   UNL     1       4.005   3.733  16.771  0.00  0.00    +0.000 C 
ATOM     20  N   UNL     1       3.466   4.590  17.833  0.00  0.00    +0.000 N 
BRANCH  20  21
ATOM     21  C   UNL     1       2.768   3.968  18.913  0.00  0.00    +0.000 A 
ATOM     22  C   UNL     1       1.384   3.821  18.807  0.00  0.00    +0.000 A 
ATOM     23  C   UNL     1       0.667   3.174  19.814  0.00  0.00    +0.000 A 
ATOM     24  C   UNL     1       1.334   2.683  20.935  0.00  0.00    +0.000 A 
ATOM     25  C   UNL     1       2.715   2.841  21.050  0.00  0.00    +0.000 A 
ATOM     26  C   UNL     1       3.435   3.484  20.040  0.00  0.00    +0.000 A 
ENDBRANCH  20  21
ENDBRANCH  16  20
ENDBRANCH   1  16
TORSDOF 5
ENDMDL
