MODEL 1
REMARK VINA RESULT:      -9.3      0.000      0.000
REMARK  Name = 
REMARK  7 active torsions:
REMARK  status: ('A' for Active; 'I' for Inactive)
REMARK    1  A    between atoms: C_1  and  C_2
REMARK    2  A    between atoms: C_7  and  C_8
REMARK    3  A    between atoms: C_8  and  O_9
REMARK    4  A    between atoms: O_9  and  C_10
REMARK    5  A    between atoms: N_20  and  C_21
REMARK    6  A    between atoms: C_21  and  C_22
REMARK    7  A    between atoms: C_25  and  C_26
REMARK                            x       y       z     vdW  Elec       q    Type
REMARK                         _______ _______ _______ _____ _____    ______ ____
ROOT
ATOM      1  C   UNL     1      -3.924  11.235  18.021  0.00  0.00    +0.000 A 
ATOM      2  C   UNL     1      -3.017  10.188  17.753  0.00  0.00    +0.000 A 
ATOM      3  C   UNL     1      -1.787  10.102  18.423  0.00  0.00    +0.000 A 
ATOM      4  C   UNL     1      -1.509  11.056  19.384  0.00  0.00    +0.000 A 
ATOM      5  C   UNL     1      -2.462  12.009  19.709  0.00  0.00    +0.000 A 
ATOM      6  C   UNL     1      -3.633  12.176  19.007  0.00  0.00    +0.000 A 
ATOM      7  C   UNL     1      -1.945  12.784  20.820  0.00  0.00    +0.000 C 
ATOM      8  O   UNL     1      -2.489  13.715  21.373  0.00  0.00    +0.000 OA
ATOM      9  C   UNL     1      -0.535  12.236  21.099  0.00  0.00    +0.000 C 
ATOM     10  O   UNL     1       0.234  12.670  21.931  0.00  0.00    +0.000 OA
ATOM     11  N   UNL     1      -0.328  11.262  20.127  0.00  0.00    +0.000 N 
ENDROOT
BRANCH   1  12
ATOM     12  O   UNL     1      -5.069  11.231  17.268  0.00  0.00    +0.000 OA
BRANCH  12  13
ATOM     13  C   UNL     1      -6.178  11.913  17.859  0.00  0.00    +0.000 C 
BRANCH  13  20
ATOM     14  C   UNL     1      -7.385  13.158  20.305  0.00  0.00    +0.000 C 
ATOM     15  C   UNL     1      -7.345  11.666  20.114  0.00  0.00    +0.000 A 
ATOM     16  C   UNL     1      -7.916  10.834  21.088  0.00  0.00    +0.000 A 
ATOM     17  C   UNL     1      -7.892   9.446  20.947  0.00  0.00    +0.000 A 
ATOM     18  C   UNL     1      -7.286   8.869  19.836  0.00  0.00    +0.000 A 
ATOM     19  C   UNL     1      -6.719   9.679  18.857  0.00  0.00    +0.000 A 
ATOM     20  C   UNL     1      -6.757  11.079  18.974  0.00  0.00    +0.000 A 
ENDBRANCH  13  20
ENDBRANCH  12  13
ENDBRANCH   1  12
BRANCH  11  21
ATOM     21  C   UNL     1       0.978  11.189  19.505  0.00  0.00    +0.000 C 
BRANCH  21  22
ATOM     22  C   UNL     1       1.352   9.792  19.135  0.00  0.00    +0.000 A 
ATOM     23  C   UNL     1       1.404   8.802  20.115  0.00  0.00    +0.000 A 
ATOM     24  C   UNL     1       1.943   7.556  19.811  0.00  0.00    +0.000 A 
ATOM     25  C   UNL     1       2.412   7.257  18.521  0.00  0.00    +0.000 A 
ATOM     26  C   UNL     1       2.244   8.234  17.518  0.00  0.00    +0.000 A 
ATOM     27  C   UNL     1       1.726   9.491  17.824  0.00  0.00    +0.000 A 
BRANCH  25  28
ATOM     28  C   UNL     1       3.114   5.985  18.248  0.00  0.00    +0.000 A 
ATOM     29  C   UNL     1       4.512   5.894  18.295  0.00  0.00    +0.000 A 
ATOM     30  C   UNL     1       5.172   4.708  17.975  0.00  0.00    +0.000 A 
ATOM     31  C   UNL     1       4.439   3.579  17.616  0.00  0.00    +0.000 A 
ATOM     32  C   UNL     1       3.054   3.641  17.567  0.00  0.00    +0.000 A 
ATOM     33  C   UNL     1       2.403   4.837  17.871  0.00  0.00    +0.000 A 
ENDBRANCH  25  28
ENDBRANCH  21  22
ENDBRANCH  11  21
TORSDOF 6
ENDMDL
MODEL 2
REMARK VINA RESULT:      -9.2      5.766     11.487
REMARK  Name = 
REMARK  7 active torsions:
REMARK  status: ('A' for Active; 'I' for Inactive)
REMARK    1  A    between atoms: C_1  and  C_2
REMARK    2  A    between atoms: C_7  and  C_8
REMARK    3  A    between atoms: C_8  and  O_9
REMARK    4  A    between atoms: O_9  and  C_10
REMARK    5  A    between atoms: N_20  and  C_21
REMARK    6  A    between atoms: C_21  and  C_22
REMARK    7  A    between atoms: C_25  and  C_26
REMARK                            x       y       z     vdW  Elec       q    Type
REMARK                         _______ _______ _______ _____ _____    ______ ____
ROOT
ATOM      1  C   UNL     1       8.045   7.475  18.339  0.00  0.00    +0.000 A 
ATOM      2  C   UNL     1       7.966   6.494  19.349  0.00  0.00    +0.000 A 
ATOM      3  C   UNL     1       7.187   5.339  19.183  0.00  0.00    +0.000 A 
ATOM      4  C   UNL     1       6.527   5.175  17.980  0.00  0.00    +0.000 A 
ATOM      5  C   UNL     1       6.708   6.097  16.960  0.00  0.00    +0.000 A 
ATOM      6  C   UNL     1       7.388   7.282  17.125  0.00  0.00    +0.000 A 
ATOM      7  C   UNL     1       6.002   5.604  15.793  0.00  0.00    +0.000 C 
ATOM      8  O   UNL     1       5.921   6.143  14.711  0.00  0.00    +0.000 OA
ATOM      9  C   UNL     1       5.313   4.301  16.234  0.00  0.00    +0.000 C 
ATOM     10  O   UNL     1       4.585   3.623  15.540  0.00  0.00    +0.000 OA
ATOM     11  N   UNL     1       5.614   4.175  17.587  0.00  0.00    +0.000 N 
ENDROOT
BRANCH   1  12
ATOM     12  O   UNL     1       8.803   8.576  18.642  0.00  0.00    +0.000 OA
BRANCH  12  13
ATOM     13  C   UNL     1       8.299   9.811  18.129  0.00  0.00    +0.000 C 
BRANCH  13  20
ATOM     14  C   UNL     1       7.900  12.619  17.157  0.00  0.00    +0.000 C 
ATOM     15  C   UNL     1       8.931  12.282  18.200  0.00  0.00    +0.000 A 
ATOM     16  C   UNL     1       9.704  13.310  18.758  0.00  0.00    +0.000 A 
ATOM     17  C   UNL     1      10.673  13.033  19.723  0.00  0.00    +0.000 A 
ATOM     18  C   UNL     1      10.891  11.724  20.136  0.00  0.00    +0.000 A 
ATOM     19  C   UNL     1      10.129  10.691  19.597  0.00  0.00    +0.000 A 
ATOM     20  C   UNL     1       9.134  10.958  18.641  0.00  0.00    +0.000 A 
ENDBRANCH  13  20
ENDBRANCH  12  13
ENDBRANCH   1  12
BRANCH  11  21
ATOM     21  C   UNL     1       4.565   3.719  18.477  0.00  0.00    +0.000 C 
BRANCH  21  22
ATOM     22  C   UNL     1       3.626   4.816  18.854  0.00  0.00    +0.000 A 
ATOM     23  C   UNL     1       3.380   5.860  17.963  0.00  0.00    +0.000 A 
ATOM     24  C   UNL     1       2.669   6.978  18.386  0.00  0.00    +0.000 A 
ATOM     25  C   UNL     1       2.161   7.070  19.693  0.00  0.00    +0.000 A 
ATOM     26  C   UNL     1       2.322   5.954  20.540  0.00  0.00    +0.000 A 
ATOM     27  C   UNL     1       3.054   4.842  20.127  0.00  0.00    +0.000 A 
BRANCH  25  28
ATOM     28  C   UNL     1       1.535   8.319  20.175  0.00  0.00    +0.000 A 
ATOM     29  C   UNL     1       1.235   8.513  21.530  0.00  0.00    +0.000 A 
ATOM     30  C   UNL     1       0.588   9.668  21.971  0.00  0.00    +0.000 A 
ATOM     31  C   UNL     1       0.243  10.663  21.059  0.00  0.00    +0.000 A 
ATOM     32  C   UNL     1       0.534  10.498  19.713  0.00  0.00    +0.000 A 
ATOM     33  C   UNL     1       1.165   9.332  19.279  0.00  0.00    +0.000 A 
ENDBRANCH  25  28
ENDBRANCH  21  22
ENDBRANCH  11  21
TORSDOF 6
ENDMDL
MODEL 3
REMARK VINA RESULT:      -9.1      5.680     11.689
REMARK  Name = 
REMARK  7 active torsions:
REMARK  status: ('A' for Active; 'I' for Inactive)
REMARK    1  A    between atoms: C_1  and  C_2
REMARK    2  A    between atoms: C_7  and  C_8
REMARK    3  A    between atoms: C_8  and  O_9
REMARK    4  A    between atoms: O_9  and  C_10
REMARK    5  A    between atoms: N_20  and  C_21
REMARK    6  A    between atoms: C_21  and  C_22
REMARK    7  A    between atoms: C_25  and  C_26
REMARK                            x       y       z     vdW  Elec       q    Type
REMARK                         _______ _______ _______ _____ _____    ______ ____
ROOT
ATOM      1  C   UNL     1       8.145   7.461  18.482  0.00  0.00    +0.000 A 
ATOM      2  C   UNL     1       8.090   6.419  19.430  0.00  0.00    +0.000 A 
ATOM      3  C   UNL     1       7.212   5.336  19.270  0.00  0.00    +0.000 A 
ATOM      4  C   UNL     1       6.429   5.304  18.132  0.00  0.00    +0.000 A 
ATOM      5  C   UNL     1       6.581   6.282  17.161  0.00  0.00    +0.000 A 
ATOM      6  C   UNL     1       7.361   7.401  17.331  0.00  0.00    +0.000 A 
ATOM      7  C   UNL     1       5.730   5.924  16.042  0.00  0.00    +0.000 C 
ATOM      8  O   UNL     1       5.586   6.542  15.010  0.00  0.00    +0.000 OA
ATOM      9  C   UNL     1       4.989   4.643  16.466  0.00  0.00    +0.000 C 
ATOM     10  O   UNL     1       4.148   4.070  15.808  0.00  0.00    +0.000 OA
ATOM     11  N   UNL     1       5.408   4.401  17.771  0.00  0.00    +0.000 N 
ENDROOT
BRANCH   1  12
ATOM     12  O   UNL     1       9.011   8.482  18.777  0.00  0.00    +0.000 OA
BRANCH  12  13
ATOM     13  C   UNL     1       8.563   9.781  18.382  0.00  0.00    +0.000 C 
BRANCH  13  20
ATOM     14  C   UNL     1       9.036  10.768  21.174  0.00  0.00    +0.000 C 
ATOM     15  C   UNL     1       9.860  11.254  20.012  0.00  0.00    +0.000 A 
ATOM     16  C   UNL     1      10.901  12.166  20.244  0.00  0.00    +0.000 A 
ATOM     17  C   UNL     1      11.681  12.641  19.190  0.00  0.00    +0.000 A 
ATOM     18  C   UNL     1      11.428  12.221  17.889  0.00  0.00    +0.000 A 
ATOM     19  C   UNL     1      10.403  11.312  17.642  0.00  0.00    +0.000 A 
ATOM     20  C   UNL     1       9.624  10.806  18.696  0.00  0.00    +0.000 A 
ENDBRANCH  13  20
ENDBRANCH  12  13
ENDBRANCH   1  12
BRANCH  11  21
ATOM     21  C   UNL     1       4.418   3.957  18.732  0.00  0.00    +0.000 C 
BRANCH  21  22
ATOM     22  C   UNL     1       3.455   5.038  19.093  0.00  0.00    +0.000 A 
ATOM     23  C   UNL     1       3.396   6.203  18.328  0.00  0.00    +0.000 A 
ATOM     24  C   UNL     1       2.650   7.288  18.776  0.00  0.00    +0.000 A 
ATOM     25  C   UNL     1       1.922   7.229  19.976  0.00  0.00    +0.000 A 
ATOM     26  C   UNL     1       1.904   6.003  20.673  0.00  0.00    +0.000 A 
ATOM     27  C   UNL     1       2.668   4.921  20.240  0.00  0.00    +0.000 A 
BRANCH  25  28
ATOM     28  C   UNL     1       1.253   8.432  20.515  0.00  0.00    +0.000 A 
ATOM     29  C   UNL     1       0.904   9.509  19.689  0.00  0.00    +0.000 A 
ATOM     30  C   UNL     1       0.330  10.667  20.212  0.00  0.00    +0.000 A 
ATOM     31  C   UNL     1       0.077  10.762  21.579  0.00  0.00    +0.000 A 
ATOM     32  C   UNL     1       0.409   9.708  22.417  0.00  0.00    +0.000 A 
ATOM     33  C   UNL     1       0.999   8.560  21.888  0.00  0.00    +0.000 A 
ENDBRANCH  25  28
ENDBRANCH  21  22
ENDBRANCH  11  21
TORSDOF 6
ENDMDL
MODEL 4
REMARK VINA RESULT:      -9.0      1.234      2.176
REMARK  Name = 
REMARK  7 active torsions:
REMARK  status: ('A' for Active; 'I' for Inactive)
REMARK    1  A    between atoms: C_1  and  C_2
REMARK    2  A    between atoms: C_7  and  C_8
REMARK    3  A    between atoms: C_8  and  O_9
REMARK    4  A    between atoms: O_9  and  C_10
REMARK    5  A    between atoms: N_20  and  C_21
REMARK    6  A    between atoms: C_21  and  C_22
REMARK    7  A    between atoms: C_25  and  C_26
REMARK                            x       y       z     vdW  Elec       q    Type
REMARK                         _______ _______ _______ _____ _____    ______ ____
ROOT
ATOM      1  C   UNL     1      -3.285  11.483  17.661  0.00  0.00    +0.000 A 
ATOM      2  C   UNL     1      -2.572  10.396  17.113  0.00  0.00    +0.000 A 
ATOM      3  C   UNL     1      -1.410   9.903  17.728  0.00  0.00    +0.000 A 
ATOM      4  C   UNL     1      -1.007  10.495  18.910  0.00  0.00    +0.000 A 
ATOM      5  C   UNL     1      -1.785  11.488  19.487  0.00  0.00    +0.000 A 
ATOM      6  C   UNL     1      -2.872  12.054  18.864  0.00  0.00    +0.000 A 
ATOM      7  C   UNL     1      -1.186  11.826  20.764  0.00  0.00    +0.000 C 
ATOM      8  O   UNL     1      -1.576  12.660  21.552  0.00  0.00    +0.000 OA
ATOM      9  C   UNL     1       0.086  10.969  20.876  0.00  0.00    +0.000 C 
ATOM     10  O   UNL     1       0.882  11.011  21.790  0.00  0.00    +0.000 OA
ATOM     11  N   UNL     1       0.156  10.269  19.675  0.00  0.00    +0.000 N 
ENDROOT
BRANCH   1  12
ATOM     12  O   UNL     1      -4.376  11.896  16.941  0.00  0.00    +0.000 OA
BRANCH  12  13
ATOM     13  C   UNL     1      -5.591  11.208  17.246  0.00  0.00    +0.000 C 
BRANCH  13  20
ATOM     14  C   UNL     1      -6.834  13.910  16.864  0.00  0.00    +0.000 C 
ATOM     15  C   UNL     1      -6.918  13.178  18.177  0.00  0.00    +0.000 A 
ATOM     16  C   UNL     1      -7.625  13.758  19.240  0.00  0.00    +0.000 A 
ATOM     17  C   UNL     1      -7.719  13.111  20.472  0.00  0.00    +0.000 A 
ATOM     18  C   UNL     1      -7.099  11.881  20.664  0.00  0.00    +0.000 A 
ATOM     19  C   UNL     1      -6.398  11.288  19.617  0.00  0.00    +0.000 A 
ATOM     20  C   UNL     1      -6.314  11.918  18.363  0.00  0.00    +0.000 A 
ENDBRANCH  13  20
ENDBRANCH  12  13
ENDBRANCH   1  12
BRANCH  11  21
ATOM     21  C   UNL     1       1.454  10.121  19.049  0.00  0.00    +0.000 C 
BRANCH  21  22
ATOM     22  C   UNL     1       1.916   8.703  19.032  0.00  0.00    +0.000 A 
ATOM     23  C   UNL     1       2.436   8.153  17.861  0.00  0.00    +0.000 A 
ATOM     24  C   UNL     1       2.678   6.786  17.786  0.00  0.00    +0.000 A 
ATOM     25  C   UNL     1       2.440   5.940  18.883  0.00  0.00    +0.000 A 
ATOM     26  C   UNL     1       2.024   6.535  20.092  0.00  0.00    +0.000 A 
ATOM     27  C   UNL     1       1.758   7.901  20.164  0.00  0.00    +0.000 A 
BRANCH  25  28
ATOM     28  C   UNL     1       2.561   4.473  18.747  0.00  0.00    +0.000 A 
ATOM     29  C   UNL     1       1.778   3.599  19.514  0.00  0.00    +0.000 A 
ATOM     30  C   UNL     1       1.941   2.216  19.427  0.00  0.00    +0.000 A 
ATOM     31  C   UNL     1       2.885   1.680  18.554  0.00  0.00    +0.000 A 
ATOM     32  C   UNL     1       3.669   2.524  17.782  0.00  0.00    +0.000 A 
ATOM     33  C   UNL     1       3.512   3.906  17.887  0.00  0.00    +0.000 A 
ENDBRANCH  25  28
ENDBRANCH  21  22
ENDBRANCH  11  21
TORSDOF 6
ENDMDL
MODEL 5
REMARK VINA RESULT:      -8.9      5.655     11.492
REMARK  Name = 
REMARK  7 active torsions:
REMARK  status: ('A' for Active; 'I' for Inactive)
REMARK    1  A    between atoms: C_1  and  C_2
REMARK    2  A    between atoms: C_7  and  C_8
REMARK    3  A    between atoms: C_8  and  O_9
REMARK    4  A    between atoms: O_9  and  C_10
REMARK    5  A    between atoms: N_20  and  C_21
REMARK    6  A    between atoms: C_21  and  C_22
REMARK    7  A    between atoms: C_25  and  C_26
REMARK                            x       y       z     vdW  Elec       q    Type
REMARK                         _______ _______ _______ _____ _____    ______ ____
ROOT
ATOM      1  C   UNL     1       8.026   7.352  18.304  0.00  0.00    +0.000 A 
ATOM      2  C   UNL     1       7.609   6.516  19.360  0.00  0.00    +0.000 A 
ATOM      3  C   UNL     1       6.796   5.397  19.125  0.00  0.00    +0.000 A 
ATOM      4  C   UNL     1       6.447   5.118  17.817  0.00  0.00    +0.000 A 
ATOM      5  C   UNL     1       6.960   5.889  16.785  0.00  0.00    +0.000 A 
ATOM      6  C   UNL     1       7.679   7.043  16.989  0.00  0.00    +0.000 A 
ATOM      7  C   UNL     1       6.527   5.293  15.536  0.00  0.00    +0.000 C 
ATOM      8  O   UNL     1       6.768   5.691  14.417  0.00  0.00    +0.000 OA
ATOM      9  C   UNL     1       5.636   4.099  15.922  0.00  0.00    +0.000 C 
ATOM     10  O   UNL     1       5.047   3.382  15.142  0.00  0.00    +0.000 OA
ATOM     11  N   UNL     1       5.575   4.131  17.313  0.00  0.00    +0.000 N 
ENDROOT
BRANCH   1  12
ATOM     12  O   UNL     1       8.780   8.437  18.671  0.00  0.00    +0.000 OA
BRANCH  12  13
ATOM     13  C   UNL     1       8.397   9.669  18.056  0.00  0.00    +0.000 C 
BRANCH  13  20
ATOM     14  C   UNL     1       7.991  12.508  17.181  0.00  0.00    +0.000 C 
ATOM     15  C   UNL     1       8.881  12.157  18.342  0.00  0.00    +0.000 A 
ATOM     16  C   UNL     1       9.512  13.186  19.058  0.00  0.00    +0.000 A 
ATOM     17  C   UNL     1      10.348  12.897  20.136  0.00  0.00    +0.000 A 
ATOM     18  C   UNL     1      10.575  11.577  20.510  0.00  0.00    +0.000 A 
ATOM     19  C   UNL     1       9.952  10.544  19.814  0.00  0.00    +0.000 A 
ATOM     20  C   UNL     1       9.090  10.821  18.740  0.00  0.00    +0.000 A 
ENDBRANCH  13  20
ENDBRANCH  12  13
ENDBRANCH   1  12
BRANCH  11  21
ATOM     21  C   UNL     1       4.300   3.856  17.944  0.00  0.00    +0.000 C 
BRANCH  21  22
ATOM     22  C   UNL     1       3.697   5.075  18.557  0.00  0.00    +0.000 A 
ATOM     23  C   UNL     1       3.239   5.040  19.873  0.00  0.00    +0.000 A 
ATOM     24  C   UNL     1       2.500   6.105  20.377  0.00  0.00    +0.000 A 
ATOM     25  C   UNL     1       2.226   7.240  19.596  0.00  0.00    +0.000 A 
ATOM     26  C   UNL     1       2.796   7.303  18.308  0.00  0.00    +0.000 A 
ATOM     27  C   UNL     1       3.517   6.229  17.791  0.00  0.00    +0.000 A 
BRANCH  25  28
ATOM     28  C   UNL     1       1.319   8.297  20.090  0.00  0.00    +0.000 A 
ATOM     29  C   UNL     1       1.030   9.434  19.322  0.00  0.00    +0.000 A 
ATOM     30  C   UNL     1       0.224  10.458  19.819  0.00  0.00    +0.000 A 
ATOM     31  C   UNL     1      -0.325  10.355  21.095  0.00  0.00    +0.000 A 
ATOM     32  C   UNL     1      -0.059   9.238  21.873  0.00  0.00    +0.000 A 
ATOM     33  C   UNL     1       0.763   8.227  21.376  0.00  0.00    +0.000 A 
ENDBRANCH  25  28
ENDBRANCH  21  22
ENDBRANCH  11  21
TORSDOF 6
ENDMDL
MODEL 6
REMARK VINA RESULT:      -8.8      3.849      6.537
REMARK  Name = 
REMARK  7 active torsions:
REMARK  status: ('A' for Active; 'I' for Inactive)
REMARK    1  A    between atoms: C_1  and  C_2
REMARK    2  A    between atoms: C_7  and  C_8
REMARK    3  A    between atoms: C_8  and  O_9
REMARK    4  A    between atoms: O_9  and  C_10
REMARK    5  A    between atoms: N_20  and  C_21
REMARK    6  A    between atoms: C_21  and  C_22
REMARK    7  A    between atoms: C_25  and  C_26
REMARK                            x       y       z     vdW  Elec       q    Type
REMARK                         _______ _______ _______ _____ _____    ______ ____
ROOT
ATOM      1  C   UNL     1       1.110   9.184  19.559  0.00  0.00    +0.000 A 
ATOM      2  C   UNL     1       1.837   9.324  18.358  0.00  0.00    +0.000 A 
ATOM      3  C   UNL     1       2.730   8.330  17.928  0.00  0.00    +0.000 A 
ATOM      4  C   UNL     1       2.847   7.191  18.701  0.00  0.00    +0.000 A 
ATOM      5  C   UNL     1       2.041   7.027  19.817  0.00  0.00    +0.000 A 
ATOM      6  C   UNL     1       1.228   8.018  20.315  0.00  0.00    +0.000 A 
ATOM      7  C   UNL     1       2.293   5.701  20.348  0.00  0.00    +0.000 C 
ATOM      8  O   UNL     1       1.784   5.200  21.327  0.00  0.00    +0.000 OA
ATOM      9  C   UNL     1       3.395   5.092  19.464  0.00  0.00    +0.000 C 
ATOM     10  O   UNL     1       3.908   4.007  19.630  0.00  0.00    +0.000 OA
ATOM     11  N   UNL     1       3.726   6.097  18.559  0.00  0.00    +0.000 N 
ENDROOT
BRANCH   1  12
ATOM     12  O   UNL     1       0.306  10.244  19.889  0.00  0.00    +0.000 OA
BRANCH  12  13
ATOM     13  C   UNL     1       0.017  11.136  18.810  0.00  0.00    +0.000 C 
BRANCH  13  20
ATOM     14  C   UNL     1      -2.190  12.799  19.972  0.00  0.00    +0.000 C 
ATOM     15  C   UNL     1      -2.453  11.767  18.909  0.00  0.00    +0.000 A 
ATOM     16  C   UNL     1      -3.758  11.600  18.422  0.00  0.00    +0.000 A 
ATOM     17  C   UNL     1      -4.038  10.649  17.441  0.00  0.00    +0.000 A 
ATOM     18  C   UNL     1      -3.022   9.843  16.939  0.00  0.00    +0.000 A 
ATOM     19  C   UNL     1      -1.720  10.000  17.407  0.00  0.00    +0.000 A 
ATOM     20  C   UNL     1      -1.418  10.969  18.378  0.00  0.00    +0.000 A 
ENDBRANCH  13  20
ENDBRANCH  12  13
ENDBRANCH   1  12
BRANCH  11  21
ATOM     21  C   UNL     1       5.126   6.290  18.239  0.00  0.00    +0.000 C 
BRANCH  21  22
ATOM     22  C   UNL     1       5.494   5.690  16.923  0.00  0.00    +0.000 A 
ATOM     23  C   UNL     1       5.211   6.374  15.742  0.00  0.00    +0.000 A 
ATOM     24  C   UNL     1       5.368   5.734  14.517  0.00  0.00    +0.000 A 
ATOM     25  C   UNL     1       5.840   4.413  14.437  0.00  0.00    +0.000 A 
ATOM     26  C   UNL     1       6.229   3.782  15.637  0.00  0.00    +0.000 A 
ATOM     27  C   UNL     1       6.051   4.411  16.868  0.00  0.00    +0.000 A 
BRANCH  25  28
ATOM     28  C   UNL     1       5.864   3.695  13.146  0.00  0.00    +0.000 A 
ATOM     29  C   UNL     1       4.682   3.320  12.492  0.00  0.00    +0.000 A 
ATOM     30  C   UNL     1       4.712   2.588  11.306  0.00  0.00    +0.000 A 
ATOM     31  C   UNL     1       5.933   2.231  10.739  0.00  0.00    +0.000 A 
ATOM     32  C   UNL     1       7.117   2.594  11.363  0.00  0.00    +0.000 A 
ATOM     33  C   UNL     1       7.078   3.310  12.559  0.00  0.00    +0.000 A 
ENDBRANCH  25  28
ENDBRANCH  21  22
ENDBRANCH  11  21
TORSDOF 6
ENDMDL
MODEL 7
REMARK VINA RESULT:      -8.7      5.631     11.624
REMARK  Name = 
REMARK  7 active torsions:
REMARK  status: ('A' for Active; 'I' for Inactive)
REMARK    1  A    between atoms: C_1  and  C_2
REMARK    2  A    between atoms: C_7  and  C_8
REMARK    3  A    between atoms: C_8  and  O_9
REMARK    4  A    between atoms: O_9  and  C_10
REMARK    5  A    between atoms: N_20  and  C_21
REMARK    6  A    between atoms: C_21  and  C_22
REMARK    7  A    between atoms: C_25  and  C_26
REMARK                            x       y       z     vdW  Elec       q    Type
REMARK                         _______ _______ _______ _____ _____    ______ ____
ROOT
ATOM      1  C   UNL     1       8.063   7.113  18.525  0.00  0.00    +0.000 A 
ATOM      2  C   UNL     1       7.583   6.236  19.520  0.00  0.00    +0.000 A 
ATOM      3  C   UNL     1       6.678   5.209  19.210  0.00  0.00    +0.000 A 
ATOM      4  C   UNL     1       6.300   5.060  17.889  0.00  0.00    +0.000 A 
ATOM      5  C   UNL     1       6.870   5.862  16.913  0.00  0.00    +0.000 A 
ATOM      6  C   UNL     1       7.684   6.934  17.195  0.00  0.00    +0.000 A 
ATOM      7  C   UNL     1       6.383   5.400  15.627  0.00  0.00    +0.000 C 
ATOM      8  O   UNL     1       6.651   5.861  14.539  0.00  0.00    +0.000 OA
ATOM      9  C   UNL     1       5.398   4.258  15.933  0.00  0.00    +0.000 C 
ATOM     10  O   UNL     1       4.747   3.654  15.107  0.00  0.00    +0.000 OA
ATOM     11  N   UNL     1       5.347   4.189  17.322  0.00  0.00    +0.000 N 
ENDROOT
BRANCH   1  12
ATOM     12  O   UNL     1       8.905   8.100  18.965  0.00  0.00    +0.000 OA
BRANCH  12  13
ATOM     13  C   UNL     1       8.619   9.404  18.453  0.00  0.00    +0.000 C 
BRANCH  13  20
ATOM     14  C   UNL     1      10.690  11.302  17.406  0.00  0.00    +0.000 C 
ATOM     15  C   UNL     1      10.215  11.358  18.833  0.00  0.00    +0.000 A 
ATOM     16  C   UNL     1      10.728  12.344  19.688  0.00  0.00    +0.000 A 
ATOM     17  C   UNL     1      10.316  12.421  21.019  0.00  0.00    +0.000 A 
ATOM     18  C   UNL     1       9.393  11.508  21.517  0.00  0.00    +0.000 A 
ATOM     19  C   UNL     1       8.869  10.526  20.680  0.00  0.00    +0.000 A 
ATOM     20  C   UNL     1       9.258  10.451  19.332  0.00  0.00    +0.000 A 
ENDBRANCH  13  20
ENDBRANCH  12  13
ENDBRANCH   1  12
BRANCH  11  21
ATOM     21  C   UNL     1       4.057   3.973  17.945  0.00  0.00    +0.000 C 
BRANCH  21  22
ATOM     22  C   UNL     1       3.513   5.216  18.566  0.00  0.00    +0.000 A 
ATOM     23  C   UNL     1       3.090   5.205  19.894  0.00  0.00    +0.000 A 
ATOM     24  C   UNL     1       2.402   6.297  20.411  0.00  0.00    +0.000 A 
ATOM     25  C   UNL     1       2.145   7.436  19.630  0.00  0.00    +0.000 A 
ATOM     26  C   UNL     1       2.682   7.472  18.326  0.00  0.00    +0.000 A 
ATOM     27  C   UNL     1       3.352   6.371  17.797  0.00  0.00    +0.000 A 
BRANCH  25  28
ATOM     28  C   UNL     1       1.289   8.527  20.141  0.00  0.00    +0.000 A 
ATOM     29  C   UNL     1       0.783   8.511  21.449  0.00  0.00    +0.000 A 
ATOM     30  C   UNL     1      -0.075   9.511  21.906  0.00  0.00    +0.000 A 
ATOM     31  C   UNL     1      -0.432  10.561  21.062  0.00  0.00    +0.000 A 
ATOM     32  C   UNL     1       0.059  10.602  19.765  0.00  0.00    +0.000 A 
ATOM     33  C   UNL     1       0.902   9.589  19.311  0.00  0.00    +0.000 A 
ENDBRANCH  25  28
ENDBRANCH  21  22
ENDBRANCH  11  21
TORSDOF 6
ENDMDL
MODEL 8
REMARK VINA RESULT:      -8.5      1.370      2.235
REMARK  Name = 
REMARK  7 active torsions:
REMARK  status: ('A' for Active; 'I' for Inactive)
REMARK    1  A    between atoms: C_1  and  C_2
REMARK    2  A    between atoms: C_7  and  C_8
REMARK    3  A    between atoms: C_8  and  O_9
REMARK    4  A    between atoms: O_9  and  C_10
REMARK    5  A    between atoms: N_20  and  C_21
REMARK    6  A    between atoms: C_21  and  C_22
REMARK    7  A    between atoms: C_25  and  C_26
REMARK                            x       y       z     vdW  Elec       q    Type
REMARK                         _______ _______ _______ _____ _____    ______ ____
ROOT
ATOM      1  C   UNL     1      -2.876  11.435  17.686  0.00  0.00    +0.000 A 
ATOM      2  C   UNL     1      -2.167  10.256  17.376  0.00  0.00    +0.000 A 
ATOM      3  C   UNL     1      -1.197   9.739  18.250  0.00  0.00    +0.000 A 
ATOM      4  C   UNL     1      -0.985  10.403  19.443  0.00  0.00    +0.000 A 
ATOM      5  C   UNL     1      -1.771  11.496  19.775  0.00  0.00    +0.000 A 
ATOM      6  C   UNL     1      -2.661  12.080  18.904  0.00  0.00    +0.000 A 
ATOM      7  C   UNL     1      -1.410  11.903  21.119  0.00  0.00    +0.000 C 
ATOM      8  O   UNL     1      -1.874  12.829  21.749  0.00  0.00    +0.000 OA
ATOM      9  C   UNL     1      -0.265  10.970  21.551  0.00  0.00    +0.000 C 
ATOM     10  O   UNL     1       0.335  11.037  22.602  0.00  0.00    +0.000 OA
ATOM     11  N   UNL     1      -0.021  10.164  20.443  0.00  0.00    +0.000 N 
ENDROOT
BRANCH   1  12
ATOM     12  O   UNL     1      -3.762  11.859  16.731  0.00  0.00    +0.000 OA
BRANCH  12  13
ATOM     13  C   UNL     1      -5.025  11.189  16.746  0.00  0.00    +0.000 C 
BRANCH  13  20
ATOM     14  C   UNL     1      -6.571  10.196  19.115  0.00  0.00    +0.000 C 
ATOM     15  C   UNL     1      -6.762  11.587  18.572  0.00  0.00    +0.000 A 
ATOM     16  C   UNL     1      -7.661  12.455  19.209  0.00  0.00    +0.000 A 
ATOM     17  C   UNL     1      -7.867  13.748  18.729  0.00  0.00    +0.000 A 
ATOM     18  C   UNL     1      -7.187  14.190  17.599  0.00  0.00    +0.000 A 
ATOM     19  C   UNL     1      -6.287  13.344  16.958  0.00  0.00    +0.000 A 
ATOM     20  C   UNL     1      -6.051  12.046  17.444  0.00  0.00    +0.000 A 
ENDBRANCH  13  20
ENDBRANCH  12  13
ENDBRANCH   1  12
BRANCH  11  21
ATOM     21  C   UNL     1       1.358   9.870  20.108  0.00  0.00    +0.000 C 
BRANCH  21  22
ATOM     22  C   UNL     1       1.563   8.431  19.768  0.00  0.00    +0.000 A 
ATOM     23  C   UNL     1       1.338   7.449  20.731  0.00  0.00    +0.000 A 
ATOM     24  C   UNL     1       1.719   6.135  20.482  0.00  0.00    +0.000 A 
ATOM     25  C   UNL     1       2.303   5.762  19.259  0.00  0.00    +0.000 A 
ATOM     26  C   UNL     1       2.415   6.749  18.258  0.00  0.00    +0.000 A 
ATOM     27  C   UNL     1       2.056   8.071  18.512  0.00  0.00    +0.000 A 
BRANCH  25  28
ATOM     28  C   UNL     1       2.836   4.398  19.060  0.00  0.00    +0.000 A 
ATOM     29  C   UNL     1       3.376   3.660  20.122  0.00  0.00    +0.000 A 
ATOM     30  C   UNL     1       3.935   2.398  19.917  0.00  0.00    +0.000 A 
ATOM     31  C   UNL     1       3.947   1.842  18.640  0.00  0.00    +0.000 A 
ATOM     32  C   UNL     1       3.414   2.550  17.573  0.00  0.00    +0.000 A 
ATOM     33  C   UNL     1       2.873   3.819  17.784  0.00  0.00    +0.000 A 
ENDBRANCH  25  28
ENDBRANCH  21  22
ENDBRANCH  11  21
TORSDOF 6
ENDMDL
MODEL 9
REMARK VINA RESULT:      -8.4      1.240      1.802
REMARK  Name = 
REMARK  7 active torsions:
REMARK  status: ('A' for Active; 'I' for Inactive)
REMARK    1  A    between atoms: C_1  and  C_2
REMARK    2  A    between atoms: C_7  and  C_8
REMARK    3  A    between atoms: C_8  and  O_9
REMARK    4  A    between atoms: O_9  and  C_10
REMARK    5  A    between atoms: N_20  and  C_21
REMARK    6  A    between atoms: C_21  and  C_22
REMARK    7  A    between atoms: C_25  and  C_26
REMARK                            x       y       z     vdW  Elec       q    Type
REMARK                         _______ _______ _______ _____ _____    ______ ____
ROOT
ATOM      1  C   UNL     1      -3.001  11.548  17.786  0.00  0.00    +0.000 A 
ATOM      2  C   UNL     1      -2.274  10.389  17.443  0.00  0.00    +0.000 A 
ATOM      3  C   UNL     1      -1.286   9.872  18.295  0.00  0.00    +0.000 A 
ATOM      4  C   UNL     1      -1.073  10.514  19.500  0.00  0.00    +0.000 A 
ATOM      5  C   UNL     1      -1.876  11.584  19.864  0.00  0.00    +0.000 A 
ATOM      6  C   UNL     1      -2.786  12.170  19.015  0.00  0.00    +0.000 A 
ATOM      7  C   UNL     1      -1.508  11.968  21.213  0.00  0.00    +0.000 C 
ATOM      8  O   UNL     1      -1.982  12.871  21.868  0.00  0.00    +0.000 OA
ATOM      9  C   UNL     1      -0.341  11.048  21.613  0.00  0.00    +0.000 C 
ATOM     10  O   UNL     1       0.269  11.103  22.659  0.00  0.00    +0.000 OA
ATOM     11  N   UNL     1      -0.094  10.271  20.485  0.00  0.00    +0.000 N 
ENDROOT
BRANCH   1  12
ATOM     12  O   UNL     1      -3.906  11.976  16.850  0.00  0.00    +0.000 OA
BRANCH  12  13
ATOM     13  C   UNL     1      -5.075  11.163  16.730  0.00  0.00    +0.000 C 
BRANCH  13  20
ATOM     14  C   UNL     1      -6.588  13.737  17.002  0.00  0.00    +0.000 C 
ATOM     15  C   UNL     1      -6.730  12.626  18.007  0.00  0.00    +0.000 A 
ATOM     16  C   UNL     1      -7.618  12.782  19.081  0.00  0.00    +0.000 A 
ATOM     17  C   UNL     1      -7.771  11.775  20.035  0.00  0.00    +0.000 A 
ATOM     18  C   UNL     1      -7.031  10.602  19.935  0.00  0.00    +0.000 A 
ATOM     19  C   UNL     1      -6.149  10.428  18.872  0.00  0.00    +0.000 A 
ATOM     20  C   UNL     1      -6.002  11.424  17.892  0.00  0.00    +0.000 A 
ENDBRANCH  13  20
ENDBRANCH  12  13
ENDBRANCH   1  12
BRANCH  11  21
ATOM     21  C   UNL     1       1.286  10.010  20.129  0.00  0.00    +0.000 C 
BRANCH  21  22
ATOM     22  C   UNL     1       1.513   8.584  19.751  0.00  0.00    +0.000 A 
ATOM     23  C   UNL     1       1.294   7.572  20.684  0.00  0.00    +0.000 A 
ATOM     24  C   UNL     1       1.694   6.271  20.400  0.00  0.00    +0.000 A 
ATOM     25  C   UNL     1       2.292   5.940  19.173  0.00  0.00    +0.000 A 
ATOM     26  C   UNL     1       2.399   6.956  18.201  0.00  0.00    +0.000 A 
ATOM     27  C   UNL     1       2.021   8.266  18.489  0.00  0.00    +0.000 A 
BRANCH  25  28
ATOM     28  C   UNL     1       2.845   4.590  18.940  0.00  0.00    +0.000 A 
ATOM     29  C   UNL     1       2.402   3.789  17.878  0.00  0.00    +0.000 A 
ATOM     30  C   UNL     1       2.881   2.491  17.700  0.00  0.00    +0.000 A 
ATOM     31  C   UNL     1       3.832   1.974  18.577  0.00  0.00    +0.000 A 
ATOM     32  C   UNL     1       4.290   2.748  19.632  0.00  0.00    +0.000 A 
ATOM     33  C   UNL     1       3.792   4.038  19.814  0.00  0.00    +0.000 A 
ENDBRANCH  25  28
ENDBRANCH  21  22
ENDBRANCH  11  21
TORSDOF 6
ENDMDL
