MODEL 1
REMARK VINA RESULT:      -7.3      0.000      0.000
REMARK  Name = 
REMARK  6 active torsions:
REMARK  status: ('A' for Active; 'I' for Inactive)
REMARK    1  A    between atoms: C_1  and  C_2
REMARK    2  A    between atoms: N_9  and  C_10
REMARK    3  A    between atoms: C_10  and  C_11
REMARK    4  A    between atoms: C_15  and  C_16
REMARK    5  A    between atoms: C_24  and  C_25
REMARK    6  A    between atoms: C_24  and  C_26
REMARK                            x       y       z     vdW  Elec       q    Type
REMARK                         _______ _______ _______ _____ _____    ______ ____
ROOT
ATOM      1  C   UNL     1      -2.340  10.091  16.202  0.00  0.00    +0.000 C 
ATOM      2  C   UNL     1      -2.409  10.725  17.542  0.00  0.00    +0.000 A 
ATOM      3  C   UNL     1      -1.397  10.687  18.513  0.00  0.00    +0.000 A 
ATOM      4  C   UNL     1      -1.872  11.376  19.613  0.00  0.00    +0.000 A 
ATOM      5  N   UNL     1      -3.126  11.896  19.347  0.00  0.00    +0.000 N 
ATOM      6  C   UNL     1      -3.461  11.437  18.092  0.00  0.00    +0.000 A 
ATOM      7  C   UNL     1      -4.782  11.751  17.510  0.00  0.00    +0.000 C 
ATOM      8  C   UNL     1      -5.868  11.077  18.331  0.00  0.00    +0.000 C 
ATOM      9  N   UNL     1      -6.089  11.645  19.672  0.00  0.00    +0.000 N 
ATOM     10  C   UNL     1      -5.321  12.627  20.282  0.00  0.00    +0.000 A 
ATOM     11  C   UNL     1      -5.972  13.556  21.133  0.00  0.00    +0.000 A 
ATOM     12  C   UNL     1      -5.306  14.541  21.895  0.00  0.00    +0.000 A 
ATOM     13  C   UNL     1      -3.923  14.621  21.790  0.00  0.00    +0.000 A 
ATOM     14 CL   UNL     1      -2.939  15.687  22.732  0.00  0.00    +0.000 Cl
ATOM     15  C   UNL     1      -3.254  13.771  20.902  0.00  0.00    +0.000 A 
ATOM     16  C   UNL     1      -3.921  12.759  20.173  0.00  0.00    +0.000 A 
ATOM     17  C   UNL     1      -1.227  11.421  20.923  0.00  0.00    +0.000 C 
ATOM     18  C   UNL     1       0.182  10.757  20.866  0.00  0.00    +0.000 C 
ATOM     19  C   UNL     1      -0.082   9.542  21.796  0.00  0.00    +0.000 C 
ATOM     20  C   UNL     1       1.071  12.041  20.864  0.00  0.00    +0.000 C 
ATOM     21  C   UNL     1       0.751  10.038  19.623  0.00  0.00    +0.000 C 
ATOM     22  C   UNL     1      -0.114  10.014  18.448  0.00  0.00    +0.000 C 
ATOM     23  O   UNL     1       0.289   9.421  17.439  0.00  0.00    +0.000 OA
ENDROOT
BRANCH  12  24
ATOM     24  C   UNL     1      -6.156  15.402  22.759  0.00  0.00    +0.000 C 
ATOM     25  N   UNL     1      -6.275  15.084  24.082  0.00  0.00    +0.000 N 
ATOM     26  O   UNL     1      -6.706  16.401  22.308  0.00  0.00    +0.000 OA
ATOM     27  H   UNL     1      -5.897  14.235  24.484  0.00  0.00    +0.000 HD
ATOM     28  H   UNL     1      -6.885  15.652  24.656  0.00  0.00    +0.000 HD
ENDBRANCH  12  24
BRANCH   9  29
ATOM     29  C   UNL     1      -7.163  10.979  20.452  0.00  0.00    +0.000 C 
BRANCH  29  30
ATOM     30  C   UNL     1      -7.219   9.512  20.256  0.00  0.00    +0.000 C 
ATOM     31  N   UNL     1      -7.271   8.371  20.088  0.00  0.00    +0.000 NA
ENDBRANCH  29  30
ENDBRANCH   9  29
TORSDOF 3
ENDMDL
MODEL 2
REMARK VINA RESULT:      -6.9      2.872      6.183
REMARK  Name = 
REMARK  6 active torsions:
REMARK  status: ('A' for Active; 'I' for Inactive)
REMARK    1  A    between atoms: C_1  and  C_2
REMARK    2  A    between atoms: N_9  and  C_10
REMARK    3  A    between atoms: C_10  and  C_11
REMARK    4  A    between atoms: C_15  and  C_16
REMARK    5  A    between atoms: C_24  and  C_25
REMARK    6  A    between atoms: C_24  and  C_26
REMARK                            x       y       z     vdW  Elec       q    Type
REMARK                         _______ _______ _______ _____ _____    ______ ____
ROOT
ATOM      1  C   UNL     1      -6.823  12.993  23.143  0.00  0.00    +0.000 C 
ATOM      2  C   UNL     1      -5.778  12.851  22.100  0.00  0.00    +0.000 A 
ATOM      3  C   UNL     1      -4.427  13.196  22.249  0.00  0.00    +0.000 A 
ATOM      4  C   UNL     1      -3.809  12.927  21.043  0.00  0.00    +0.000 A 
ATOM      5  N   UNL     1      -4.713  12.371  20.156  0.00  0.00    +0.000 N 
ATOM      6  C   UNL     1      -5.928  12.385  20.804  0.00  0.00    +0.000 A 
ATOM      7  C   UNL     1      -7.149  11.917  20.116  0.00  0.00    +0.000 C 
ATOM      8  C   UNL     1      -7.462  12.848  18.957  0.00  0.00    +0.000 C 
ATOM      9  N   UNL     1      -6.534  12.770  17.817  0.00  0.00    +0.000 N 
ATOM     10  C   UNL     1      -5.356  12.039  17.768  0.00  0.00    +0.000 A 
ATOM     11  C   UNL     1      -4.974  11.463  16.529  0.00  0.00    +0.000 A 
ATOM     12  C   UNL     1      -3.757  10.782  16.309  0.00  0.00    +0.000 A 
ATOM     13  C   UNL     1      -2.883  10.646  17.380  0.00  0.00    +0.000 A 
ATOM     14 CL   UNL     1      -1.307   9.944  17.263  0.00  0.00    +0.000 Cl
ATOM     15  C   UNL     1      -3.259  11.135  18.636  0.00  0.00    +0.000 A 
ATOM     16  C   UNL     1      -4.461  11.853  18.842  0.00  0.00    +0.000 A 
ATOM     17  C   UNL     1      -2.446  13.317  20.688  0.00  0.00    +0.000 C 
ATOM     18  C   UNL     1      -1.699  13.897  21.926  0.00  0.00    +0.000 C 
ATOM     19  C   UNL     1      -1.514  15.359  21.438  0.00  0.00    +0.000 C 
ATOM     20  C   UNL     1      -0.797  12.673  22.278  0.00  0.00    +0.000 C 
ATOM     21  C   UNL     1      -2.361  14.143  23.299  0.00  0.00    +0.000 C 
ATOM     22  C   UNL     1      -3.771  13.784  23.402  0.00  0.00    +0.000 C 
ATOM     23  O   UNL     1      -4.351  13.994  24.476  0.00  0.00    +0.000 OA
ENDROOT
BRANCH  12  24
ATOM     24  C   UNL     1      -3.516  10.279  14.930  0.00  0.00    +0.000 C 
ATOM     25  N   UNL     1      -4.591   9.925  14.167  0.00  0.00    +0.000 N 
ATOM     26  O   UNL     1      -2.381  10.221  14.470  0.00  0.00    +0.000 OA
ATOM     27  H   UNL     1      -5.538   9.891  14.525  0.00  0.00    +0.000 HD
ATOM     28  H   UNL     1      -4.417   9.548  13.243  0.00  0.00    +0.000 HD
ENDBRANCH  12  24
BRANCH   9  29
ATOM     29  C   UNL     1      -6.867  13.680  16.691  0.00  0.00    +0.000 C 
BRANCH  29  30
ATOM     30  C   UNL     1      -6.901  15.111  17.071  0.00  0.00    +0.000 C 
ATOM     31  N   UNL     1      -6.910  16.226  17.369  0.00  0.00    +0.000 NA
ENDBRANCH  29  30
ENDBRANCH   9  29
TORSDOF 3
ENDMDL
MODEL 3
REMARK VINA RESULT:      -6.7      2.354      3.268
REMARK  Name = 
REMARK  6 active torsions:
REMARK  status: ('A' for Active; 'I' for Inactive)
REMARK    1  A    between atoms: C_1  and  C_2
REMARK    2  A    between atoms: N_9  and  C_10
REMARK    3  A    between atoms: C_10  and  C_11
REMARK    4  A    between atoms: C_15  and  C_16
REMARK    5  A    between atoms: C_24  and  C_25
REMARK    6  A    between atoms: C_24  and  C_26
REMARK                            x       y       z     vdW  Elec       q    Type
REMARK                         _______ _______ _______ _____ _____    ______ ____
ROOT
ATOM      1  C   UNL     1      -4.588  11.449  17.586  0.00  0.00    +0.000 C 
ATOM      2  C   UNL     1      -3.662  11.832  18.680  0.00  0.00    +0.000 A 
ATOM      3  C   UNL     1      -2.332  11.406  18.806  0.00  0.00    +0.000 A 
ATOM      4  C   UNL     1      -1.839  11.972  19.966  0.00  0.00    +0.000 A 
ATOM      5  N   UNL     1      -2.795  12.786  20.545  0.00  0.00    +0.000 N 
ATOM      6  C   UNL     1      -3.926  12.642  19.771  0.00  0.00    +0.000 A 
ATOM      7  C   UNL     1      -5.179  13.329  20.143  0.00  0.00    +0.000 C 
ATOM      8  C   UNL     1      -5.691  12.766  21.459  0.00  0.00    +0.000 C 
ATOM      9  N   UNL     1      -4.897  13.118  22.647  0.00  0.00    +0.000 N 
ATOM     10  C   UNL     1      -3.682  13.788  22.651  0.00  0.00    +0.000 A 
ATOM     11  C   UNL     1      -3.403  14.667  23.730  0.00  0.00    +0.000 A 
ATOM     12  C   UNL     1      -2.173  15.335  23.916  0.00  0.00    +0.000 A 
ATOM     13  C   UNL     1      -1.174  15.135  22.970  0.00  0.00    +0.000 A 
ATOM     14 CL   UNL     1       0.426  15.781  23.100  0.00  0.00    +0.000 Cl
ATOM     15  C   UNL     1      -1.439  14.335  21.853  0.00  0.00    +0.000 A 
ATOM     16  C   UNL     1      -2.658  13.636  21.693  0.00  0.00    +0.000 A 
ATOM     17  C   UNL     1      -0.557  11.643  20.587  0.00  0.00    +0.000 C 
ATOM     18  C   UNL     1       0.282  10.714  19.658  0.00  0.00    +0.000 C 
ATOM     19  C   UNL     1       0.302   9.438  20.540  0.00  0.00    +0.000 C 
ATOM     20  C   UNL     1       1.306  11.758  19.111  0.00  0.00    +0.000 C 
ATOM     21  C   UNL     1      -0.234  10.126  18.327  0.00  0.00    +0.000 C 
ATOM     22  C   UNL     1      -1.593  10.498  17.949  0.00  0.00    +0.000 C 
ATOM     23  O   UNL     1      -2.060  10.023  16.905  0.00  0.00    +0.000 OA
ENDROOT
BRANCH  12  24
ATOM     24  C   UNL     1      -2.055  16.188  25.128  0.00  0.00    +0.000 C 
ATOM     25  N   UNL     1      -1.581  15.626  26.278  0.00  0.00    +0.000 N 
ATOM     26  O   UNL     1      -2.336  17.381  25.089  0.00  0.00    +0.000 OA
ATOM     27  H   UNL     1      -1.401  14.634  26.377  0.00  0.00    +0.000 HD
ATOM     28  H   UNL     1      -1.538  16.202  27.109  0.00  0.00    +0.000 HD
ENDBRANCH  12  24
BRANCH   9  29
ATOM     29  C   UNL     1      -5.422  12.568  23.923  0.00  0.00    +0.000 C 
BRANCH  29  30
ATOM     30  C   UNL     1      -6.825  12.951  24.203  0.00  0.00    +0.000 C 
ATOM     31  N   UNL     1      -7.916  13.264  24.413  0.00  0.00    +0.000 NA
ENDBRANCH  29  30
ENDBRANCH   9  29
TORSDOF 3
ENDMDL
MODEL 4
REMARK VINA RESULT:      -6.5      8.648     11.790
REMARK  Name = 
REMARK  6 active torsions:
REMARK  status: ('A' for Active; 'I' for Inactive)
REMARK    1  A    between atoms: C_1  and  C_2
REMARK    2  A    between atoms: N_9  and  C_10
REMARK    3  A    between atoms: C_10  and  C_11
REMARK    4  A    between atoms: C_15  and  C_16
REMARK    5  A    between atoms: C_24  and  C_25
REMARK    6  A    between atoms: C_24  and  C_26
REMARK                            x       y       z     vdW  Elec       q    Type
REMARK                         _______ _______ _______ _____ _____    ______ ____
ROOT
ATOM      1  C   UNL     1       8.916  16.943  18.008  0.00  0.00    +0.000 C 
ATOM      2  C   UNL     1       8.748  15.809  18.950  0.00  0.00    +0.000 A 
ATOM      3  C   UNL     1       9.436  14.588  18.883  0.00  0.00    +0.000 A 
ATOM      4  C   UNL     1       8.971  13.810  19.927  0.00  0.00    +0.000 A 
ATOM      5  N   UNL     1       8.055  14.519  20.682  0.00  0.00    +0.000 N 
ATOM      6  C   UNL     1       7.889  15.723  20.033  0.00  0.00    +0.000 A 
ATOM      7  C   UNL     1       6.919  16.716  20.536  0.00  0.00    +0.000 C 
ATOM      8  C   UNL     1       5.512  16.156  20.406  0.00  0.00    +0.000 C 
ATOM      9  N   UNL     1       5.184  15.056  21.327  0.00  0.00    +0.000 N 
ATOM     10  C   UNL     1       6.067  14.415  22.186  0.00  0.00    +0.000 A 
ATOM     11  C   UNL     1       5.576  13.963  23.438  0.00  0.00    +0.000 A 
ATOM     12  C   UNL     1       6.331  13.211  24.364  0.00  0.00    +0.000 A 
ATOM     13  C   UNL     1       7.648  12.910  24.040  0.00  0.00    +0.000 A 
ATOM     14 CL   UNL     1       8.678  11.907  25.001  0.00  0.00    +0.000 Cl
ATOM     15  C   UNL     1       8.189  13.404  22.847  0.00  0.00    +0.000 A 
ATOM     16  C   UNL     1       7.417  14.122  21.904  0.00  0.00    +0.000 A 
ATOM     17  C   UNL     1       9.271  12.392  20.121  0.00  0.00    +0.000 C 
ATOM     18  C   UNL     1      10.356  11.916  19.109  0.00  0.00    +0.000 C 
ATOM     19  C   UNL     1       9.501  10.920  18.281  0.00  0.00    +0.000 C 
ATOM     20  C   UNL     1      11.591  11.865  20.063  0.00  0.00    +0.000 C 
ATOM     21  C   UNL     1      10.932  12.796  17.978  0.00  0.00    +0.000 C 
ATOM     22  C   UNL     1      10.406  14.155  17.896  0.00  0.00    +0.000 C 
ATOM     23  O   UNL     1      10.816  14.886  16.984  0.00  0.00    +0.000 OA
ENDROOT
BRANCH  12  24
ATOM     24  C   UNL     1       5.633  12.794  25.609  0.00  0.00    +0.000 C 
ATOM     25  N   UNL     1       5.582  13.672  26.654  0.00  0.00    +0.000 N 
ATOM     26  O   UNL     1       5.078  11.703  25.686  0.00  0.00    +0.000 OA
ATOM     27  H   UNL     1       6.082  14.553  26.663  0.00  0.00    +0.000 HD
ATOM     28  H   UNL     1       5.138  13.368  27.512  0.00  0.00    +0.000 HD
ENDBRANCH  12  24
BRANCH   9  29
ATOM     29  C   UNL     1       3.801  14.532  21.191  0.00  0.00    +0.000 C 
BRANCH  29  30
ATOM     30  C   UNL     1       3.389  14.293  19.789  0.00  0.00    +0.000 C 
ATOM     31  N   UNL     1       3.056  14.095  18.701  0.00  0.00    +0.000 NA
ENDBRANCH  29  30
ENDBRANCH   9  29
TORSDOF 3
ENDMDL
MODEL 5
REMARK VINA RESULT:      -6.5      9.645     12.207
REMARK  Name = 
REMARK  6 active torsions:
REMARK  status: ('A' for Active; 'I' for Inactive)
REMARK    1  A    between atoms: C_1  and  C_2
REMARK    2  A    between atoms: N_9  and  C_10
REMARK    3  A    between atoms: C_10  and  C_11
REMARK    4  A    between atoms: C_15  and  C_16
REMARK    5  A    between atoms: C_24  and  C_25
REMARK    6  A    between atoms: C_24  and  C_26
REMARK                            x       y       z     vdW  Elec       q    Type
REMARK                         _______ _______ _______ _____ _____    ______ ____
ROOT
ATOM      1  C   UNL     1      10.096  16.422  16.763  0.00  0.00    +0.000 C 
ATOM      2  C   UNL     1       9.663  15.565  17.895  0.00  0.00    +0.000 A 
ATOM      3  C   UNL     1      10.102  14.255  18.137  0.00  0.00    +0.000 A 
ATOM      4  C   UNL     1       9.442  13.815  19.269  0.00  0.00    +0.000 A 
ATOM      5  N   UNL     1       8.645  14.823  19.780  0.00  0.00    +0.000 N 
ATOM      6  C   UNL     1       8.751  15.870  18.891  0.00  0.00    +0.000 A 
ATOM      7  C   UNL     1       7.968  17.106  19.094  0.00  0.00    +0.000 C 
ATOM      8  C   UNL     1       6.488  16.794  18.953  0.00  0.00    +0.000 C 
ATOM      9  N   UNL     1       5.905  15.994  20.043  0.00  0.00    +0.000 N 
ATOM     10  C   UNL     1       6.602  15.404  21.089  0.00  0.00    +0.000 A 
ATOM     11  C   UNL     1       5.969  15.326  22.357  0.00  0.00    +0.000 A 
ATOM     12  C   UNL     1       6.516  14.667  23.480  0.00  0.00    +0.000 A 
ATOM     13  C   UNL     1       7.764  14.072  23.342  0.00  0.00    +0.000 A 
ATOM     14 CL   UNL     1       8.529  13.129  24.575  0.00  0.00    +0.000 Cl
ATOM     15  C   UNL     1       8.450  14.193  22.129  0.00  0.00    +0.000 A 
ATOM     16  C   UNL     1       7.881  14.819  20.995  0.00  0.00    +0.000 A 
ATOM     17  C   UNL     1       9.450  12.442  19.770  0.00  0.00    +0.000 C 
ATOM     18  C   UNL     1      10.471  11.573  18.977  0.00  0.00    +0.000 C 
ATOM     19  C   UNL     1       9.481  10.593  18.293  0.00  0.00    +0.000 C 
ATOM     20  C   UNL     1      11.623  11.506  20.030  0.00  0.00    +0.000 C 
ATOM     21  C   UNL     1      11.263  12.071  17.749  0.00  0.00    +0.000 C 
ATOM     22  C   UNL     1      11.017  13.453  17.349  0.00  0.00    +0.000 C 
ATOM     23  O   UNL     1      11.607  13.885  16.349  0.00  0.00    +0.000 OA
ENDROOT
BRANCH  12  24
ATOM     24  C   UNL     1       5.688  14.660  24.715  0.00  0.00    +0.000 C 
ATOM     25  N   UNL     1       5.856  15.670  25.619  0.00  0.00    +0.000 N 
ATOM     26  O   UNL     1       4.842  13.792  24.902  0.00  0.00    +0.000 OA
ATOM     27  H   UNL     1       6.585  16.368  25.541  0.00  0.00    +0.000 HD
ATOM     28  H   UNL     1       5.316  15.638  26.475  0.00  0.00    +0.000 HD
ENDBRANCH  12  24
BRANCH   9  29
ATOM     29  C   UNL     1       4.455  15.711  19.891  0.00  0.00    +0.000 C 
BRANCH  29  30
ATOM     30  C   UNL     1       3.621  16.929  19.764  0.00  0.00    +0.000 C 
ATOM     31  N   UNL     1       2.973  17.881  19.682  0.00  0.00    +0.000 NA
ENDBRANCH  29  30
ENDBRANCH   9  29
TORSDOF 3
ENDMDL
MODEL 6
REMARK VINA RESULT:      -6.5      2.509      6.551
REMARK  Name = 
REMARK  6 active torsions:
REMARK  status: ('A' for Active; 'I' for Inactive)
REMARK    1  A    between atoms: C_1  and  C_2
REMARK    2  A    between atoms: N_9  and  C_10
REMARK    3  A    between atoms: C_10  and  C_11
REMARK    4  A    between atoms: C_15  and  C_16
REMARK    5  A    between atoms: C_24  and  C_25
REMARK    6  A    between atoms: C_24  and  C_26
REMARK                            x       y       z     vdW  Elec       q    Type
REMARK                         _______ _______ _______ _____ _____    ______ ____
ROOT
ATOM      1  C   UNL     1      -7.253  14.100  23.958  0.00  0.00    +0.000 C 
ATOM      2  C   UNL     1      -6.179  14.104  22.934  0.00  0.00    +0.000 A 
ATOM      3  C   UNL     1      -5.133  15.035  22.857  0.00  0.00    +0.000 A 
ATOM      4  C   UNL     1      -4.373  14.694  21.754  0.00  0.00    +0.000 A 
ATOM      5  N   UNL     1      -4.873  13.546  21.166  0.00  0.00    +0.000 N 
ATOM      6  C   UNL     1      -6.014  13.232  21.871  0.00  0.00    +0.000 A 
ATOM      7  C   UNL     1      -6.850  12.083  21.468  0.00  0.00    +0.000 C 
ATOM      8  C   UNL     1      -7.456  12.355  20.102  0.00  0.00    +0.000 C 
ATOM      9  N   UNL     1      -6.508  12.332  18.976  0.00  0.00    +0.000 N 
ATOM     10  C   UNL     1      -5.128  12.219  19.069  0.00  0.00    +0.000 A 
ATOM     11  C   UNL     1      -4.442  11.507  18.051  0.00  0.00    +0.000 A 
ATOM     12  C   UNL     1      -3.037  11.398  17.963  0.00  0.00    +0.000 A 
ATOM     13  C   UNL     1      -2.273  12.012  18.949  0.00  0.00    +0.000 A 
ATOM     14 CL   UNL     1      -0.545  12.076  18.936  0.00  0.00    +0.000 Cl
ATOM     15  C   UNL     1      -2.917  12.659  20.009  0.00  0.00    +0.000 A 
ATOM     16  C   UNL     1      -4.323  12.800  20.071  0.00  0.00    +0.000 A 
ATOM     17  C   UNL     1      -3.299  15.505  21.186  0.00  0.00    +0.000 C 
ATOM     18  C   UNL     1      -2.976  16.717  22.110  0.00  0.00    +0.000 C 
ATOM     19  C   UNL     1      -3.418  17.869  21.169  0.00  0.00    +0.000 C 
ATOM     20  C   UNL     1      -1.655  16.198  22.762  0.00  0.00    +0.000 C 
ATOM     21  C   UNL     1      -3.777  17.074  23.382  0.00  0.00    +0.000 C 
ATOM     22  C   UNL     1      -4.889  16.186  23.705  0.00  0.00    +0.000 C 
ATOM     23  O   UNL     1      -5.578  16.452  24.699  0.00  0.00    +0.000 OA
ENDROOT
BRANCH  12  24
ATOM     24  C   UNL     1      -2.499  10.640  16.803  0.00  0.00    +0.000 C 
ATOM     25  N   UNL     1      -2.749  11.108  15.545  0.00  0.00    +0.000 N 
ATOM     26  O   UNL     1      -1.810   9.639  16.968  0.00  0.00    +0.000 OA
ATOM     27  H   UNL     1      -3.367  11.888  15.356  0.00  0.00    +0.000 HD
ATOM     28  H   UNL     1      -2.412  10.567  14.758  0.00  0.00    +0.000 HD
ENDBRANCH  12  24
BRANCH   9  29
ATOM     29  C   UNL     1      -7.123  12.588  17.648  0.00  0.00    +0.000 C 
BRANCH  29  30
ATOM     30  C   UNL     1      -7.043  14.003  17.218  0.00  0.00    +0.000 C 
ATOM     31  N   UNL     1      -6.974  15.101  16.867  0.00  0.00    +0.000 NA
ENDBRANCH  29  30
ENDBRANCH   9  29
TORSDOF 3
ENDMDL
MODEL 7
REMARK VINA RESULT:      -6.4      2.259      6.475
REMARK  Name = 
REMARK  6 active torsions:
REMARK  status: ('A' for Active; 'I' for Inactive)
REMARK    1  A    between atoms: C_1  and  C_2
REMARK    2  A    between atoms: N_9  and  C_10
REMARK    3  A    between atoms: C_10  and  C_11
REMARK    4  A    between atoms: C_15  and  C_16
REMARK    5  A    between atoms: C_24  and  C_25
REMARK    6  A    between atoms: C_24  and  C_26
REMARK                            x       y       z     vdW  Elec       q    Type
REMARK                         _______ _______ _______ _____ _____    ______ ____
ROOT
ATOM      1  C   UNL     1      -7.535  13.007  19.899  0.00  0.00    +0.000 C 
ATOM      2  C   UNL     1      -6.055  13.056  19.987  0.00  0.00    +0.000 A 
ATOM      3  C   UNL     1      -5.312  14.052  20.638  0.00  0.00    +0.000 A 
ATOM      4  C   UNL     1      -3.978  13.734  20.464  0.00  0.00    +0.000 A 
ATOM      5  N   UNL     1      -3.857  12.542  19.774  0.00  0.00    +0.000 N 
ATOM      6  C   UNL     1      -5.141  12.171  19.441  0.00  0.00    +0.000 A 
ATOM      7  C   UNL     1      -5.383  10.960  18.630  0.00  0.00    +0.000 C 
ATOM      8  C   UNL     1      -4.802  11.159  17.241  0.00  0.00    +0.000 C 
ATOM      9  N   UNL     1      -3.332  11.170  17.168  0.00  0.00    +0.000 N 
ATOM     10  C   UNL     1      -2.458  11.150  18.247  0.00  0.00    +0.000 A 
ATOM     11  C   UNL     1      -1.227  10.459  18.101  0.00  0.00    +0.000 A 
ATOM     12  C   UNL     1      -0.204  10.441  19.074  0.00  0.00    +0.000 A 
ATOM     13  C   UNL     1      -0.423  11.127  20.263  0.00  0.00    +0.000 A 
ATOM     14 CL   UNL     1       0.760  11.304  21.512  0.00  0.00    +0.000 Cl
ATOM     15  C   UNL     1      -1.655  11.757  20.472  0.00  0.00    +0.000 A 
ATOM     16  C   UNL     1      -2.660  11.807  19.478  0.00  0.00    +0.000 A 
ATOM     17  C   UNL     1      -2.852  14.599  20.810  0.00  0.00    +0.000 C 
ATOM     18  C   UNL     1      -3.343  15.853  21.596  0.00  0.00    +0.000 C 
ATOM     19  C   UNL     1      -2.984  16.949  20.558  0.00  0.00    +0.000 C 
ATOM     20  C   UNL     1      -2.907  15.437  23.037  0.00  0.00    +0.000 C 
ATOM     21  C   UNL     1      -4.828  16.187  21.854  0.00  0.00    +0.000 C 
ATOM     22  C   UNL     1      -5.798  15.236  21.319  0.00  0.00    +0.000 C 
ATOM     23  O   UNL     1      -7.002  15.481  21.475  0.00  0.00    +0.000 OA
ENDROOT
BRANCH  12  24
ATOM     24  C   UNL     1       1.032   9.691  18.727  0.00  0.00    +0.000 C 
ATOM     25  N   UNL     1       1.780  10.121  17.667  0.00  0.00    +0.000 N 
ATOM     26  O   UNL     1       1.399   8.734  19.399  0.00  0.00    +0.000 OA
ATOM     27  H   UNL     1       1.483  10.862  17.044  0.00  0.00    +0.000 HD
ATOM     28  H   UNL     1       2.599   9.584  17.413  0.00  0.00    +0.000 HD
ENDBRANCH  12  24
BRANCH   9  29
ATOM     29  C   UNL     1      -2.785  11.353  15.800  0.00  0.00    +0.000 C 
BRANCH  29  30
ATOM     30  C   UNL     1      -3.431  10.494  14.781  0.00  0.00    +0.000 C 
ATOM     31  N   UNL     1      -3.940   9.839  13.977  0.00  0.00    +0.000 NA
ENDBRANCH  29  30
ENDBRANCH   9  29
TORSDOF 3
ENDMDL
MODEL 8
REMARK VINA RESULT:      -6.3      6.810     10.951
REMARK  Name = 
REMARK  6 active torsions:
REMARK  status: ('A' for Active; 'I' for Inactive)
REMARK    1  A    between atoms: C_1  and  C_2
REMARK    2  A    between atoms: N_9  and  C_10
REMARK    3  A    between atoms: C_10  and  C_11
REMARK    4  A    between atoms: C_15  and  C_16
REMARK    5  A    between atoms: C_24  and  C_25
REMARK    6  A    between atoms: C_24  and  C_26
REMARK                            x       y       z     vdW  Elec       q    Type
REMARK                         _______ _______ _______ _____ _____    ______ ____
ROOT
ATOM      1  C   UNL     1       2.214  10.486  17.147  0.00  0.00    +0.000 C 
ATOM      2  C   UNL     1       2.238   9.337  18.086  0.00  0.00    +0.000 A 
ATOM      3  C   UNL     1       1.615   9.301  19.342  0.00  0.00    +0.000 A 
ATOM      4  C   UNL     1       1.900   8.066  19.894  0.00  0.00    +0.000 A 
ATOM      5  N   UNL     1       2.634   7.303  19.005  0.00  0.00    +0.000 N 
ATOM      6  C   UNL     1       2.880   8.121  17.924  0.00  0.00    +0.000 A 
ATOM      7  C   UNL     1       3.706   7.644  16.797  0.00  0.00    +0.000 C 
ATOM      8  C   UNL     1       5.129   7.414  17.276  0.00  0.00    +0.000 C 
ATOM      9  N   UNL     1       5.313   6.263  18.175  0.00  0.00    +0.000 N 
ATOM     10  C   UNL     1       4.306   5.474  18.713  0.00  0.00    +0.000 A 
ATOM     11  C   UNL     1       4.567   4.093  18.907  0.00  0.00    +0.000 A 
ATOM     12  C   UNL     1       3.676   3.194  19.533  0.00  0.00    +0.000 A 
ATOM     13  C   UNL     1       2.453   3.689  19.973  0.00  0.00    +0.000 A 
ATOM     14 CL   UNL     1       1.294   2.760  20.858  0.00  0.00    +0.000 Cl
ATOM     15  C   UNL     1       2.131   5.029  19.731  0.00  0.00    +0.000 A 
ATOM     16  C   UNL     1       3.043   5.934  19.139  0.00  0.00    +0.000 A 
ATOM     17  C   UNL     1       1.615   7.672  21.272  0.00  0.00    +0.000 C 
ATOM     18  C   UNL     1       0.756   8.757  21.988  0.00  0.00    +0.000 C 
ATOM     19  C   UNL     1       1.784   9.221  23.055  0.00  0.00    +0.000 C 
ATOM     20  C   UNL     1      -0.634   8.047  21.954  0.00  0.00    +0.000 C 
ATOM     21  C   UNL     1       0.376  10.115  21.359  0.00  0.00    +0.000 C 
ATOM     22  C   UNL     1       0.863  10.349  20.004  0.00  0.00    +0.000 C 
ATOM     23  O   UNL     1       0.608  11.439  19.472  0.00  0.00    +0.000 OA
ENDROOT
BRANCH  12  24
ATOM     24  C   UNL     1       4.140   1.789  19.680  0.00  0.00    +0.000 C 
ATOM     25  N   UNL     1       3.784   0.881  18.723  0.00  0.00    +0.000 N 
ATOM     26  O   UNL     1       4.861   1.457  20.614  0.00  0.00    +0.000 OA
ATOM     27  H   UNL     1       3.136   1.091  17.974  0.00  0.00    +0.000 HD
ATOM     28  H   UNL     1       4.071  -0.081  18.849  0.00  0.00    +0.000 HD
ENDBRANCH  12  24
BRANCH   9  29
ATOM     29  C   UNL     1       6.714   6.050  18.622  0.00  0.00    +0.000 C 
BRANCH  29  30
ATOM     30  C   UNL     1       7.459   5.073  17.796  0.00  0.00    +0.000 C 
ATOM     31  N   UNL     1       8.044   4.323  17.140  0.00  0.00    +0.000 NA
ENDBRANCH  29  30
ENDBRANCH   9  29
TORSDOF 3
ENDMDL
MODEL 9
REMARK VINA RESULT:      -6.2      8.744     11.886
REMARK  Name = 
REMARK  6 active torsions:
REMARK  status: ('A' for Active; 'I' for Inactive)
REMARK    1  A    between atoms: C_1  and  C_2
REMARK    2  A    between atoms: N_9  and  C_10
REMARK    3  A    between atoms: C_10  and  C_11
REMARK    4  A    between atoms: C_15  and  C_16
REMARK    5  A    between atoms: C_24  and  C_25
REMARK    6  A    between atoms: C_24  and  C_26
REMARK                            x       y       z     vdW  Elec       q    Type
REMARK                         _______ _______ _______ _____ _____    ______ ____
ROOT
ATOM      1  C   UNL     1       9.234  16.697  17.643  0.00  0.00    +0.000 C 
ATOM      2  C   UNL     1       9.015  15.618  18.639  0.00  0.00    +0.000 A 
ATOM      3  C   UNL     1       9.685  14.386  18.662  0.00  0.00    +0.000 A 
ATOM      4  C   UNL     1       9.172  13.672  19.729  0.00  0.00    +0.000 A 
ATOM      5  N   UNL     1       8.243  14.435  20.412  0.00  0.00    +0.000 N 
ATOM      6  C   UNL     1       8.120  15.604  19.694  0.00  0.00    +0.000 A 
ATOM      7  C   UNL     1       7.149  16.638  20.109  0.00  0.00    +0.000 C 
ATOM      8  C   UNL     1       5.739  16.092  19.961  0.00  0.00    +0.000 C 
ATOM      9  N   UNL     1       5.361  15.049  20.928  0.00  0.00    +0.000 N 
ATOM     10  C   UNL     1       6.204  14.443  21.850  0.00  0.00    +0.000 A 
ATOM     11  C   UNL     1       5.664  14.067  23.107  0.00  0.00    +0.000 A 
ATOM     12  C   UNL     1       6.375  13.356  24.098  0.00  0.00    +0.000 A 
ATOM     13  C   UNL     1       7.697  13.018  23.836  0.00  0.00    +0.000 A 
ATOM     14 CL   UNL     1       8.678  12.054  24.885  0.00  0.00    +0.000 Cl
ATOM     15  C   UNL     1       8.286  13.438  22.638  0.00  0.00    +0.000 A 
ATOM     16  C   UNL     1       7.558  14.115  21.632  0.00  0.00    +0.000 A 
ATOM     17  C   UNL     1       9.442  12.264  20.009  0.00  0.00    +0.000 C 
ATOM     18  C   UNL     1      10.553  11.717  19.063  0.00  0.00    +0.000 C 
ATOM     19  C   UNL     1       9.709  10.690  18.261  0.00  0.00    +0.000 C 
ATOM     20  C   UNL     1      11.754  11.699  20.061  0.00  0.00    +0.000 C 
ATOM     21  C   UNL     1      11.180  12.525  17.906  0.00  0.00    +0.000 C 
ATOM     22  C   UNL     1      10.680  13.885  17.733  0.00  0.00    +0.000 C 
ATOM     23  O   UNL     1      11.132  14.559  16.798  0.00  0.00    +0.000 OA
ENDROOT
BRANCH  12  24
ATOM     24  C   UNL     1       5.629  13.018  25.339  0.00  0.00    +0.000 C 
ATOM     25  N   UNL     1       5.564  11.709  25.726  0.00  0.00    +0.000 N 
ATOM     26  O   UNL     1       5.117  13.895  26.027  0.00  0.00    +0.000 OA
ATOM     27  H   UNL     1       5.910  10.946  25.158  0.00  0.00    +0.000 HD
ATOM     28  H   UNL     1       5.023  11.482  26.551  0.00  0.00    +0.000 HD
ENDBRANCH  12  24
BRANCH   9  29
ATOM     29  C   UNL     1       3.975  14.539  20.774  0.00  0.00    +0.000 C 
BRANCH  29  30
ATOM     30  C   UNL     1       2.940  15.461  21.296  0.00  0.00    +0.000 C 
ATOM     31  N   UNL     1       2.129  16.168  21.715  0.00  0.00    +0.000 NA
ENDBRANCH  29  30
ENDBRANCH   9  29
TORSDOF 3
ENDMDL
