MODEL 1
REMARK VINA RESULT:      -7.7      0.000      0.000
REMARK  Name = 
REMARK  4 active torsions:
REMARK  status: ('A' for Active; 'I' for Inactive)
REMARK    1  A    between atoms: C_2  and  C_14
REMARK    2  A    between atoms: N_3  and  C_4
REMARK    3  A    between atoms: C_4  and  C_5
REMARK    4  A    between atoms: C_18  and  C_19
REMARK                            x       y       z     vdW  Elec       q    Type
REMARK                         _______ _______ _______ _____ _____    ______ ____
ROOT
ATOM      1  O   UNL     1       7.842   4.517  18.138  0.00  0.00    +0.000 OA
ATOM      2  C   UNL     1       6.641   4.541  17.863  0.00  0.00    +0.000 C 
ATOM      3  N   UNL     1       5.839   3.630  18.538  0.00  0.00    +0.000 N 
ATOM      4  H   UNL     1       6.383   3.005  19.125  0.00  0.00    +0.000 HD
ENDROOT
BRANCH   2   5
ATOM      5  C   UNL     1       6.091   5.429  16.852  0.00  0.00    +0.000 A 
ATOM      6  S   UNL     1       5.694   7.081  17.135  0.00  0.00    +0.000 S 
ATOM      7  N   UNL     1       5.097   7.337  15.610  0.00  0.00    +0.000 NA
ATOM      8  N   UNL     1       5.322   6.317  14.811  0.00  0.00    +0.000 NA
ATOM      9  C   UNL     1       5.929   5.257  15.483  0.00  0.00    +0.000 A 
BRANCH   9  10
ATOM     10  C   UNL     1       6.376   4.032  14.693  0.00  0.00    +0.000 C 
ATOM     11  C   UNL     1       5.712   3.740  13.364  0.00  0.00    +0.000 C 
ATOM     12  C   UNL     1       7.089   4.311  13.380  0.00  0.00    +0.000 C 
ENDBRANCH   9  10
ENDBRANCH   2   5
BRANCH   3  13
ATOM     13  C   UNL     1       4.483   3.268  18.203  0.00  0.00    +0.000 C 
BRANCH  13  14
ATOM     14  C   UNL     1       3.468   3.328  19.309  0.00  0.00    +0.000 A 
ATOM     15  C   UNL     1       3.624   2.450  20.397  0.00  0.00    +0.000 A 
ATOM     16  F   UNL     1       4.590   1.520  20.373  0.00  0.00    +0.000 F 
ATOM     17  C   UNL     1       2.839   2.537  21.541  0.00  0.00    +0.000 A 
ATOM     18  C   UNL     1       1.858   3.518  21.620  0.00  0.00    +0.000 A 
ATOM     19  C   UNL     1       1.671   4.386  20.547  0.00  0.00    +0.000 A 
ATOM     20  F   UNL     1       0.727   5.333  20.654  0.00  0.00    +0.000 F 
ATOM     21  C   UNL     1       2.465   4.300  19.394  0.00  0.00    +0.000 A 
ATOM     22 CL   UNL     1       2.214   5.439  18.121  0.00  0.00    +0.000 Cl
ENDBRANCH  13  14
ENDBRANCH   3  13
TORSDOF 4
ENDMDL
MODEL 2
REMARK VINA RESULT:      -7.6      1.534      1.622
REMARK  Name = 
REMARK  4 active torsions:
REMARK  status: ('A' for Active; 'I' for Inactive)
REMARK    1  A    between atoms: C_2  and  C_14
REMARK    2  A    between atoms: N_3  and  C_4
REMARK    3  A    between atoms: C_4  and  C_5
REMARK    4  A    between atoms: C_18  and  C_19
REMARK                            x       y       z     vdW  Elec       q    Type
REMARK                         _______ _______ _______ _____ _____    ______ ____
ROOT
ATOM      1  O   UNL     1       8.151   4.052  17.431  0.00  0.00    +0.000 OA
ATOM      2  C   UNL     1       7.112   4.638  17.739  0.00  0.00    +0.000 C 
ATOM      3  N   UNL     1       6.610   4.373  19.007  0.00  0.00    +0.000 N 
ATOM      4  H   UNL     1       7.147   3.656  19.487  0.00  0.00    +0.000 HD
ENDROOT
BRANCH   2   5
ATOM      5  C   UNL     1       6.410   5.517  16.818  0.00  0.00    +0.000 A 
ATOM      6  S   UNL     1       6.213   7.209  17.064  0.00  0.00    +0.000 S 
ATOM      7  N   UNL     1       5.301   7.437  15.698  0.00  0.00    +0.000 NA
ATOM      8  N   UNL     1       5.261   6.360  14.944  0.00  0.00    +0.000 NA
ATOM      9  C   UNL     1       5.925   5.287  15.535  0.00  0.00    +0.000 A 
BRANCH   9  10
ATOM     10  C   UNL     1       6.087   3.988  14.755  0.00  0.00    +0.000 C 
ATOM     11  C   UNL     1       5.359   3.837  13.435  0.00  0.00    +0.000 C 
ATOM     12  C   UNL     1       6.827   4.095  13.432  0.00  0.00    +0.000 C 
ENDBRANCH   9  10
ENDBRANCH   2   5
BRANCH   3  13
ATOM     13  C   UNL     1       5.292   4.700  19.494  0.00  0.00    +0.000 C 
BRANCH  13  14
ATOM     14  C   UNL     1       4.139   3.936  18.908  0.00  0.00    +0.000 A 
ATOM     15  C   UNL     1       4.062   2.555  19.165  0.00  0.00    +0.000 A 
ATOM     16  F   UNL     1       5.059   1.941  19.820  0.00  0.00    +0.000 F 
ATOM     17  C   UNL     1       2.956   1.793  18.808  0.00  0.00    +0.000 A 
ATOM     18  C   UNL     1       1.885   2.405  18.169  0.00  0.00    +0.000 A 
ATOM     19  C   UNL     1       1.947   3.768  17.885  0.00  0.00    +0.000 A 
ATOM     20  F   UNL     1       0.894   4.337  17.280  0.00  0.00    +0.000 F 
ATOM     21  C   UNL     1       3.062   4.537  18.248  0.00  0.00    +0.000 A 
ATOM     22 CL   UNL     1       3.051   6.231  17.911  0.00  0.00    +0.000 Cl
ENDBRANCH  13  14
ENDBRANCH   3  13
TORSDOF 4
ENDMDL
MODEL 3
REMARK VINA RESULT:      -7.6      1.830      2.613
REMARK  Name = 
REMARK  4 active torsions:
REMARK  status: ('A' for Active; 'I' for Inactive)
REMARK    1  A    between atoms: C_2  and  C_14
REMARK    2  A    between atoms: N_3  and  C_4
REMARK    3  A    between atoms: C_4  and  C_5
REMARK    4  A    between atoms: C_18  and  C_19
REMARK                            x       y       z     vdW  Elec       q    Type
REMARK                         _______ _______ _______ _____ _____    ______ ____
ROOT
ATOM      1  O   UNL     1       7.507   5.190  19.100  0.00  0.00    +0.000 OA
ATOM      2  C   UNL     1       6.469   4.838  18.535  0.00  0.00    +0.000 C 
ATOM      3  N   UNL     1       5.716   3.867  19.182  0.00  0.00    +0.000 N 
ATOM      4  H   UNL     1       6.179   3.521  20.018  0.00  0.00    +0.000 HD
ENDROOT
BRANCH   2   5
ATOM      5  C   UNL     1       6.072   5.362  17.238  0.00  0.00    +0.000 A 
ATOM      6  S   UNL     1       6.382   4.567  15.743  0.00  0.00    +0.000 S 
ATOM      7  N   UNL     1       5.727   5.773  14.813  0.00  0.00    +0.000 NA
ATOM      8  N   UNL     1       5.117   6.684  15.539  0.00  0.00    +0.000 NA
ATOM      9  C   UNL     1       5.258   6.438  16.904  0.00  0.00    +0.000 A 
BRANCH   9  10
ATOM     10  C   UNL     1       4.517   7.321  17.902  0.00  0.00    +0.000 C 
ATOM     11  C   UNL     1       3.137   7.829  17.539  0.00  0.00    +0.000 C 
ATOM     12  C   UNL     1       3.269   6.718  18.525  0.00  0.00    +0.000 C 
ENDBRANCH   9  10
ENDBRANCH   2   5
BRANCH   3  13
ATOM     13  C   UNL     1       4.637   3.097  18.614  0.00  0.00    +0.000 C 
BRANCH  13  14
ATOM     14  C   UNL     1       3.413   2.907  19.465  0.00  0.00    +0.000 A 
ATOM     15  C   UNL     1       3.582   2.369  20.753  0.00  0.00    +0.000 A 
ATOM     16  F   UNL     1       4.791   1.942  21.146  0.00  0.00    +0.000 F 
ATOM     17  C   UNL     1       2.543   2.305  21.674  0.00  0.00    +0.000 A 
ATOM     18  C   UNL     1       1.287   2.781  21.317  0.00  0.00    +0.000 A 
ATOM     19  C   UNL     1       1.090   3.299  20.039  0.00  0.00    +0.000 A 
ATOM     20  F   UNL     1      -0.128   3.764  19.724  0.00  0.00    +0.000 F 
ATOM     21  C   UNL     1       2.140   3.366  19.111  0.00  0.00    +0.000 A 
ATOM     22 CL   UNL     1       1.839   4.067  17.562  0.00  0.00    +0.000 Cl
ENDBRANCH  13  14
ENDBRANCH   3  13
TORSDOF 4
ENDMDL
MODEL 4
REMARK VINA RESULT:      -7.6      2.296      3.232
REMARK  Name = 
REMARK  4 active torsions:
REMARK  status: ('A' for Active; 'I' for Inactive)
REMARK    1  A    between atoms: C_2  and  C_14
REMARK    2  A    between atoms: N_3  and  C_4
REMARK    3  A    between atoms: C_4  and  C_5
REMARK    4  A    between atoms: C_18  and  C_19
REMARK                            x       y       z     vdW  Elec       q    Type
REMARK                         _______ _______ _______ _____ _____    ______ ____
ROOT
ATOM      1  O   UNL     1       7.543   4.762  18.722  0.00  0.00    +0.000 OA
ATOM      2  C   UNL     1       6.475   4.535  18.153  0.00  0.00    +0.000 C 
ATOM      3  N   UNL     1       5.684   3.536  18.705  0.00  0.00    +0.000 N 
ATOM      4  H   UNL     1       6.147   3.069  19.480  0.00  0.00    +0.000 HD
ENDROOT
BRANCH   2   5
ATOM      5  C   UNL     1       6.076   5.229  16.939  0.00  0.00    +0.000 A 
ATOM      6  S   UNL     1       6.415   4.660  15.349  0.00  0.00    +0.000 S 
ATOM      7  N   UNL     1       5.740   5.971  14.592  0.00  0.00    +0.000 NA
ATOM      8  N   UNL     1       5.105   6.758  15.434  0.00  0.00    +0.000 NA
ATOM      9  C   UNL     1       5.240   6.324  16.751  0.00  0.00    +0.000 A 
BRANCH   9  10
ATOM     10  C   UNL     1       4.473   7.041  17.856  0.00  0.00    +0.000 C 
ATOM     11  C   UNL     1       3.294   7.913  17.474  0.00  0.00    +0.000 C 
ATOM     12  C   UNL     1       3.044   6.576  18.083  0.00  0.00    +0.000 C 
ENDBRANCH   9  10
ENDBRANCH   2   5
BRANCH   3  13
ATOM     13  C   UNL     1       4.549   2.897  18.085  0.00  0.00    +0.000 C 
BRANCH  13  14
ATOM     14  C   UNL     1       3.239   2.974  18.815  0.00  0.00    +0.000 A 
ATOM     15  C   UNL     1       2.094   3.332  18.082  0.00  0.00    +0.000 A 
ATOM     16  F   UNL     1       2.210   3.700  16.797  0.00  0.00    +0.000 F 
ATOM     17  C   UNL     1       0.815   3.274  18.624  0.00  0.00    +0.000 A 
ATOM     18  C   UNL     1       0.652   2.854  19.939  0.00  0.00    +0.000 A 
ATOM     19  C   UNL     1       1.774   2.512  20.691  0.00  0.00    +0.000 A 
ATOM     20  F   UNL     1       1.588   2.097  21.953  0.00  0.00    +0.000 F 
ATOM     21  C   UNL     1       3.063   2.569  20.143  0.00  0.00    +0.000 A 
ATOM     22 CL   UNL     1       4.405   2.084  21.116  0.00  0.00    +0.000 Cl
ENDBRANCH  13  14
ENDBRANCH   3  13
TORSDOF 4
ENDMDL
MODEL 5
REMARK VINA RESULT:      -7.5      2.188      3.007
REMARK  Name = 
REMARK  4 active torsions:
REMARK  status: ('A' for Active; 'I' for Inactive)
REMARK    1  A    between atoms: C_2  and  C_14
REMARK    2  A    between atoms: N_3  and  C_4
REMARK    3  A    between atoms: C_4  and  C_5
REMARK    4  A    between atoms: C_18  and  C_19
REMARK                            x       y       z     vdW  Elec       q    Type
REMARK                         _______ _______ _______ _____ _____    ______ ____
ROOT
ATOM      1  O   UNL     1       4.651   7.268  17.102  0.00  0.00    +0.000 OA
ATOM      2  C   UNL     1       4.800   6.053  17.238  0.00  0.00    +0.000 C 
ATOM      3  N   UNL     1       3.650   5.279  17.140  0.00  0.00    +0.000 N 
ATOM      4  H   UNL     1       2.814   5.849  17.041  0.00  0.00    +0.000 HD
ENDROOT
BRANCH   2   5
ATOM      5  C   UNL     1       6.090   5.454  17.538  0.00  0.00    +0.000 A 
ATOM      6  S   UNL     1       6.839   5.510  19.088  0.00  0.00    +0.000 S 
ATOM      7  N   UNL     1       8.214   4.722  18.599  0.00  0.00    +0.000 NA
ATOM      8  N   UNL     1       8.105   4.246  17.377  0.00  0.00    +0.000 NA
ATOM      9  C   UNL     1       6.894   4.605  16.787  0.00  0.00    +0.000 A 
BRANCH   9  10
ATOM     10  C   UNL     1       6.538   4.044  15.415  0.00  0.00    +0.000 C 
ATOM     11  C   UNL     1       5.696   4.888  14.480  0.00  0.00    +0.000 C 
ATOM     12  C   UNL     1       7.158   4.756  14.225  0.00  0.00    +0.000 C 
ENDBRANCH   9  10
ENDBRANCH   2   5
BRANCH   3  13
ATOM     13  C   UNL     1       3.509   3.897  17.532  0.00  0.00    +0.000 C 
BRANCH  13  14
ATOM     14  C   UNL     1       2.748   3.622  18.796  0.00  0.00    +0.000 A 
ATOM     15  C   UNL     1       1.359   3.849  18.794  0.00  0.00    +0.000 A 
ATOM     16  F   UNL     1       0.774   4.402  17.721  0.00  0.00    +0.000 F 
ATOM     17  C   UNL     1       0.543   3.473  19.855  0.00  0.00    +0.000 A 
ATOM     18  C   UNL     1       1.109   2.856  20.964  0.00  0.00    +0.000 A 
ATOM     19  C   UNL     1       2.485   2.639  20.997  0.00  0.00    +0.000 A 
ATOM     20  F   UNL     1       3.004   2.029  22.074  0.00  0.00    +0.000 F 
ATOM     21  C   UNL     1       3.307   3.016  19.927  0.00  0.00    +0.000 A 
ATOM     22 CL   UNL     1       4.997   2.672  20.012  0.00  0.00    +0.000 Cl
ENDBRANCH  13  14
ENDBRANCH   3  13
TORSDOF 4
ENDMDL
MODEL 6
REMARK VINA RESULT:      -7.5      1.588      2.103
REMARK  Name = 
REMARK  4 active torsions:
REMARK  status: ('A' for Active; 'I' for Inactive)
REMARK    1  A    between atoms: C_2  and  C_14
REMARK    2  A    between atoms: N_3  and  C_4
REMARK    3  A    between atoms: C_4  and  C_5
REMARK    4  A    between atoms: C_18  and  C_19
REMARK                            x       y       z     vdW  Elec       q    Type
REMARK                         _______ _______ _______ _____ _____    ______ ____
ROOT
ATOM      1  O   UNL     1       7.775   4.558  18.179  0.00  0.00    +0.000 OA
ATOM      2  C   UNL     1       6.584   4.552  17.865  0.00  0.00    +0.000 C 
ATOM      3  N   UNL     1       5.786   3.612  18.504  0.00  0.00    +0.000 N 
ATOM      4  H   UNL     1       6.328   2.996  19.104  0.00  0.00    +0.000 HD
ENDROOT
BRANCH   2   5
ATOM      5  C   UNL     1       6.042   5.434  16.844  0.00  0.00    +0.000 A 
ATOM      6  S   UNL     1       5.515   7.045  17.147  0.00  0.00    +0.000 S 
ATOM      7  N   UNL     1       5.005   7.312  15.592  0.00  0.00    +0.000 NA
ATOM      8  N   UNL     1       5.352   6.336  14.781  0.00  0.00    +0.000 NA
ATOM      9  C   UNL     1       5.984   5.297  15.463  0.00  0.00    +0.000 A 
BRANCH   9  10
ATOM     10  C   UNL     1       6.566   4.131  14.671  0.00  0.00    +0.000 C 
ATOM     11  C   UNL     1       5.906   3.737  13.366  0.00  0.00    +0.000 C 
ATOM     12  C   UNL     1       7.196   4.484  13.334  0.00  0.00    +0.000 C 
ENDBRANCH   9  10
ENDBRANCH   2   5
BRANCH   3  13
ATOM     13  C   UNL     1       4.453   3.215  18.121  0.00  0.00    +0.000 C 
BRANCH  13  14
ATOM     14  C   UNL     1       3.369   3.384  19.148  0.00  0.00    +0.000 A 
ATOM     15  C   UNL     1       2.258   4.178  18.811  0.00  0.00    +0.000 A 
ATOM     16  F   UNL     1       2.241   4.845  17.647  0.00  0.00    +0.000 F 
ATOM     17  C   UNL     1       1.133   4.265  19.623  0.00  0.00    +0.000 A 
ATOM     18  C   UNL     1       1.097   3.551  20.815  0.00  0.00    +0.000 A 
ATOM     19  C   UNL     1       2.194   2.774  21.179  0.00  0.00    +0.000 A 
ATOM     20  F   UNL     1       2.129   2.084  22.328  0.00  0.00    +0.000 F 
ATOM     21  C   UNL     1       3.328   2.685  20.359  0.00  0.00    +0.000 A 
ATOM     22 CL   UNL     1       4.632   1.664  20.848  0.00  0.00    +0.000 Cl
ENDBRANCH  13  14
ENDBRANCH   3  13
TORSDOF 4
ENDMDL
MODEL 7
REMARK VINA RESULT:      -7.3      3.600      5.883
REMARK  Name = 
REMARK  4 active torsions:
REMARK  status: ('A' for Active; 'I' for Inactive)
REMARK    1  A    between atoms: C_2  and  C_14
REMARK    2  A    between atoms: N_3  and  C_4
REMARK    3  A    between atoms: C_4  and  C_5
REMARK    4  A    between atoms: C_18  and  C_19
REMARK                            x       y       z     vdW  Elec       q    Type
REMARK                         _______ _______ _______ _____ _____    ______ ____
ROOT
ATOM      1  O   UNL     1       0.875   4.230  17.080  0.00  0.00    +0.000 OA
ATOM      2  C   UNL     1       1.942   4.084  17.679  0.00  0.00    +0.000 C 
ATOM      3  N   UNL     1       3.069   3.898  16.889  0.00  0.00    +0.000 N 
ATOM      4  H   UNL     1       2.836   3.832  15.902  0.00  0.00    +0.000 HD
ENDROOT
BRANCH   2   5
ATOM      5  C   UNL     1       2.023   4.052  19.130  0.00  0.00    +0.000 A 
ATOM      6  S   UNL     1       1.838   2.623  20.073  0.00  0.00    +0.000 S 
ATOM      7  N   UNL     1       1.981   3.404  21.529  0.00  0.00    +0.000 NA
ATOM      8  N   UNL     1       2.337   4.662  21.383  0.00  0.00    +0.000 NA
ATOM      9  C   UNL     1       2.417   5.027  20.040  0.00  0.00    +0.000 A 
BRANCH   9  10
ATOM     10  C   UNL     1       2.931   6.414  19.672  0.00  0.00    +0.000 C 
ATOM     11  C   UNL     1       2.261   7.161  18.538  0.00  0.00    +0.000 C 
ATOM     12  C   UNL     1       1.982   7.568  19.944  0.00  0.00    +0.000 C 
ENDBRANCH   9  10
ENDBRANCH   2   5
BRANCH   3  13
ATOM     13  C   UNL     1       4.361   3.432  17.332  0.00  0.00    +0.000 C 
BRANCH  13  14
ATOM     14  C   UNL     1       5.372   4.479  17.703  0.00  0.00    +0.000 A 
ATOM     15  C   UNL     1       5.803   4.537  19.040  0.00  0.00    +0.000 A 
ATOM     16  F   UNL     1       5.231   3.748  19.962  0.00  0.00    +0.000 F 
ATOM     17  C   UNL     1       6.850   5.355  19.450  0.00  0.00    +0.000 A 
ATOM     18  C   UNL     1       7.496   6.153  18.513  0.00  0.00    +0.000 A 
ATOM     19  C   UNL     1       7.074   6.127  17.186  0.00  0.00    +0.000 A 
ATOM     20  F   UNL     1       7.724   6.897  16.299  0.00  0.00    +0.000 F 
ATOM     21  C   UNL     1       6.020   5.300  16.773  0.00  0.00    +0.000 A 
ATOM     22 CL   UNL     1       5.581   5.280  15.103  0.00  0.00    +0.000 Cl
ENDBRANCH  13  14
ENDBRANCH   3  13
TORSDOF 4
ENDMDL
MODEL 8
REMARK VINA RESULT:      -7.2      3.392      6.052
REMARK  Name = 
REMARK  4 active torsions:
REMARK  status: ('A' for Active; 'I' for Inactive)
REMARK    1  A    between atoms: C_2  and  C_14
REMARK    2  A    between atoms: N_3  and  C_4
REMARK    3  A    between atoms: C_4  and  C_5
REMARK    4  A    between atoms: C_18  and  C_19
REMARK                            x       y       z     vdW  Elec       q    Type
REMARK                         _______ _______ _______ _____ _____    ______ ____
ROOT
ATOM      1  O   UNL     1       0.907   3.953  17.109  0.00  0.00    +0.000 OA
ATOM      2  C   UNL     1       1.970   4.243  17.661  0.00  0.00    +0.000 C 
ATOM      3  N   UNL     1       3.084   3.513  17.269  0.00  0.00    +0.000 N 
ATOM      4  H   UNL     1       2.844   2.772  16.616  0.00  0.00    +0.000 HD
ENDROOT
BRANCH   2   5
ATOM      5  C   UNL     1       2.056   5.250  18.706  0.00  0.00    +0.000 A 
ATOM      6  S   UNL     1       2.391   6.913  18.413  0.00  0.00    +0.000 S 
ATOM      7  N   UNL     1       2.392   7.333  20.017  0.00  0.00    +0.000 NA
ATOM      8  N   UNL     1       1.983   6.348  20.788  0.00  0.00    +0.000 NA
ATOM      9  C   UNL     1       1.740   5.186  20.058  0.00  0.00    +0.000 A 
BRANCH   9  10
ATOM     10  C   UNL     1       1.145   3.972  20.764  0.00  0.00    +0.000 C 
ATOM     11  C   UNL     1       1.655   2.594  20.396  0.00  0.00    +0.000 C 
ATOM     12  C   UNL     1       2.085   3.211  21.683  0.00  0.00    +0.000 C 
ENDBRANCH   9  10
ENDBRANCH   2   5
BRANCH   3  13
ATOM     13  C   UNL     1       4.358   3.459  17.945  0.00  0.00    +0.000 C 
BRANCH  13  14
ATOM     14  C   UNL     1       5.368   4.509  17.581  0.00  0.00    +0.000 A 
ATOM     15  C   UNL     1       5.783   5.403  18.585  0.00  0.00    +0.000 A 
ATOM     16  F   UNL     1       5.198   5.372  19.792  0.00  0.00    +0.000 F 
ATOM     17  C   UNL     1       6.827   6.301  18.396  0.00  0.00    +0.000 A 
ATOM     18  C   UNL     1       7.487   6.329  17.173  0.00  0.00    +0.000 A 
ATOM     19  C   UNL     1       7.080   5.468  16.157  0.00  0.00    +0.000 A 
ATOM     20  F   UNL     1       7.742   5.506  14.990  0.00  0.00    +0.000 F 
ATOM     21  C   UNL     1       6.029   4.560  16.349  0.00  0.00    +0.000 A 
ATOM     22 CL   UNL     1       5.609   3.486  15.063  0.00  0.00    +0.000 Cl
ENDBRANCH  13  14
ENDBRANCH   3  13
TORSDOF 4
ENDMDL
MODEL 9
REMARK VINA RESULT:      -7.2      3.095      5.896
REMARK  Name = 
REMARK  4 active torsions:
REMARK  status: ('A' for Active; 'I' for Inactive)
REMARK    1  A    between atoms: C_2  and  C_14
REMARK    2  A    between atoms: N_3  and  C_4
REMARK    3  A    between atoms: C_4  and  C_5
REMARK    4  A    between atoms: C_18  and  C_19
REMARK                            x       y       z     vdW  Elec       q    Type
REMARK                         _______ _______ _______ _____ _____    ______ ____
ROOT
ATOM      1  O   UNL     1       4.838   1.800  19.957  0.00  0.00    +0.000 OA
ATOM      2  C   UNL     1       4.709   2.896  19.411  0.00  0.00    +0.000 C 
ATOM      3  N   UNL     1       5.834   3.710  19.393  0.00  0.00    +0.000 N 
ATOM      4  H   UNL     1       6.607   3.304  19.913  0.00  0.00    +0.000 HD
ENDROOT
BRANCH   2   5
ATOM      5  C   UNL     1       3.441   3.348  18.861  0.00  0.00    +0.000 A 
ATOM      6  S   UNL     1       3.008   3.209  17.200  0.00  0.00    +0.000 S 
ATOM      7  N   UNL     1       1.548   3.974  17.379  0.00  0.00    +0.000 NA
ATOM      8  N   UNL     1       1.253   4.190  18.642  0.00  0.00    +0.000 NA
ATOM      9  C   UNL     1       2.286   3.795  19.491  0.00  0.00    +0.000 A 
BRANCH   9  10
ATOM     10  C   UNL     1       2.077   3.857  21.000  0.00  0.00    +0.000 C 
ATOM     11  C   UNL     1       1.064   2.926  21.633  0.00  0.00    +0.000 C 
ATOM     12  C   UNL     1       2.518   2.632  21.783  0.00  0.00    +0.000 C 
ENDBRANCH   9  10
ENDBRANCH   2   5
BRANCH   3  13
ATOM     13  C   UNL     1       5.871   5.118  19.077  0.00  0.00    +0.000 C 
BRANCH  13  14
ATOM     14  C   UNL     1       6.052   5.488  17.632  0.00  0.00    +0.000 A 
ATOM     15  C   UNL     1       7.108   4.887  16.924  0.00  0.00    +0.000 A 
ATOM     16  F   UNL     1       7.982   4.098  17.567  0.00  0.00    +0.000 F 
ATOM     17  C   UNL     1       7.261   5.035  15.550  0.00  0.00    +0.000 A 
ATOM     18  C   UNL     1       6.348   5.808  14.843  0.00  0.00    +0.000 A 
ATOM     19  C   UNL     1       5.306   6.430  15.527  0.00  0.00    +0.000 A 
ATOM     20  F   UNL     1       4.430   7.160  14.819  0.00  0.00    +0.000 F 
ATOM     21  C   UNL     1       5.150   6.278  16.912  0.00  0.00    +0.000 A 
ATOM     22 CL   UNL     1       3.807   7.036  17.688  0.00  0.00    +0.000 Cl
ENDBRANCH  13  14
ENDBRANCH   3  13
TORSDOF 4
ENDMDL
