MODEL 1
REMARK VINA RESULT:      -6.7      0.000      0.000
REMARK  Name = 
REMARK  6 active torsions:
REMARK  status: ('A' for Active; 'I' for Inactive)
REMARK    1  A    between atoms: C_1  and  C_2
REMARK    2  A    between atoms: C_2  and  C_3
REMARK    3  A    between atoms: N_5  and  S_6
REMARK    4  A    between atoms: S_6  and  C_9
REMARK    5  A    between atoms: C_19  and  C_21
REMARK    6  A    between atoms: C_21  and  C_22
REMARK                            x       y       z     vdW  Elec       q    Type
REMARK                         _______ _______ _______ _____ _____    ______ ____
ROOT
ATOM      1  C   UNL     1      -3.015  11.932  19.060  0.00  0.00    +0.000 C 
ATOM      2  C   UNL     1      -2.098  12.628  20.062  0.00  0.00    +0.000 C 
ATOM      3  C   UNL     1      -1.018  13.393  19.240  0.00  0.00    +0.000 C 
ATOM      4  C   UNL     1      -1.246  14.588  20.149  0.00  0.00    +0.000 C 
ATOM      5  N   UNL     1      -2.527  13.967  20.512  0.00  0.00    +0.000 N 
ATOM      6  C   UNL     1      -3.581  14.665  21.040  0.00  0.00    +0.000 C 
ATOM      7  O   UNL     1      -3.398  15.874  21.250  0.00  0.00    +0.000 OA
ENDROOT
BRANCH   6   8
ATOM      8  C   UNL     1      -4.952  14.035  21.443  0.00  0.00    +0.000 C 
ATOM      9  C   UNL     1      -4.858  12.850  22.416  0.00  0.00    +0.000 C 
ATOM     10  C   UNL     1      -6.058  12.899  23.343  0.00  0.00    +0.000 C 
ATOM     11  C   UNL     1      -6.482  14.350  23.393  0.00  0.00    +0.000 C 
ATOM     12  C   UNL     1      -5.617  15.093  22.381  0.00  0.00    +0.000 C 
BRANCH   8  13
ATOM     13  C   UNL     1      -5.840  13.768  20.197  0.00  0.00    +0.000 A 
ATOM     14  C   UNL     1      -6.186  14.774  19.276  0.00  0.00    +0.000 A 
ATOM     15  C   UNL     1      -7.005  14.515  18.169  0.00  0.00    +0.000 A 
ATOM     16  C   UNL     1      -7.499  13.236  17.948  0.00  0.00    +0.000 A 
ATOM     17  C   UNL     1      -7.163  12.216  18.831  0.00  0.00    +0.000 A 
ATOM     18  C   UNL     1      -6.344  12.478  19.936  0.00  0.00    +0.000 A 
ENDBRANCH   8  13
ENDBRANCH   6   8
BRANCH   2  19
ATOM     19  C   UNL     1      -1.461  11.607  21.094  0.00  0.00    +0.000 C 
ATOM     20  O   UNL     1      -1.622  11.720  22.306  0.00  0.00    +0.000 OA
ATOM     21  N   UNL     1      -0.719  10.550  20.557  0.00  0.00    +0.000 N 
ATOM     22  H   UNL     1      -0.621  10.404  19.560  0.00  0.00    +0.000 HD
BRANCH  21  23
ATOM     23  S   UNL     1       0.247   9.548  21.479  0.00  0.00    +0.000 S 
ATOM     24  O   UNL     1       1.126  10.428  22.212  0.00  0.00    +0.000 OA
ATOM     25  O   UNL     1      -0.575   8.576  22.168  0.00  0.00    +0.000 OA
BRANCH  23  26
ATOM     26  C   UNL     1       1.215   8.722  20.238  0.00  0.00    +0.000 A 
ATOM     27  C   UNL     1       1.775   7.475  20.530  0.00  0.00    +0.000 A 
ATOM     28  C   UNL     1       2.549   6.826  19.565  0.00  0.00    +0.000 A 
ATOM     29  C   UNL     1       2.751   7.423  18.320  0.00  0.00    +0.000 A 
ATOM     30 CL   UNL     1       3.712   6.622  17.139  0.00  0.00    +0.000 Cl
ATOM     31  C   UNL     1       2.178   8.660  18.025  0.00  0.00    +0.000 A 
ATOM     32  C   UNL     1       1.395   9.308  18.982  0.00  0.00    +0.000 A 
ENDBRANCH  23  26
ENDBRANCH  21  23
ENDBRANCH   2  19
TORSDOF 5
ENDMDL
MODEL 2
REMARK VINA RESULT:      -6.7      5.061      6.141
REMARK  Name = 
REMARK  6 active torsions:
REMARK  status: ('A' for Active; 'I' for Inactive)
REMARK    1  A    between atoms: C_1  and  C_2
REMARK    2  A    between atoms: C_2  and  C_3
REMARK    3  A    between atoms: N_5  and  S_6
REMARK    4  A    between atoms: S_6  and  C_9
REMARK    5  A    between atoms: C_19  and  C_21
REMARK    6  A    between atoms: C_21  and  C_22
REMARK                            x       y       z     vdW  Elec       q    Type
REMARK                         _______ _______ _______ _____ _____    ______ ____
ROOT
ATOM      1  C   UNL     1       2.369  13.100  19.423  0.00  0.00    +0.000 C 
ATOM      2  C   UNL     1       2.008  14.393  20.148  0.00  0.00    +0.000 C 
ATOM      3  C   UNL     1       2.275  15.564  19.156  0.00  0.00    +0.000 C 
ATOM      4  C   UNL     1       0.934  16.147  19.563  0.00  0.00    +0.000 C 
ATOM      5  N   UNL     1       0.594  14.810  20.067  0.00  0.00    +0.000 N 
ATOM      6  C   UNL     1      -0.693  14.381  20.259  0.00  0.00    +0.000 C 
ATOM      7  O   UNL     1      -1.594  15.202  20.028  0.00  0.00    +0.000 OA
ENDROOT
BRANCH   6   8
ATOM      8  C   UNL     1      -1.087  12.969  20.798  0.00  0.00    +0.000 C 
ATOM      9  C   UNL     1      -0.220  12.454  21.957  0.00  0.00    +0.000 C 
ATOM     10  C   UNL     1      -1.103  11.650  22.892  0.00  0.00    +0.000 C 
ATOM     11  C   UNL     1      -2.504  12.191  22.704  0.00  0.00    +0.000 C 
ATOM     12  C   UNL     1      -2.434  13.195  21.558  0.00  0.00    +0.000 C 
BRANCH   8  13
ATOM     13  C   UNL     1      -1.272  11.952  19.639  0.00  0.00    +0.000 A 
ATOM     14  C   UNL     1      -0.307  10.983  19.310  0.00  0.00    +0.000 A 
ATOM     15  C   UNL     1      -0.486  10.088  18.248  0.00  0.00    +0.000 A 
ATOM     16  C   UNL     1      -1.644  10.132  17.484  0.00  0.00    +0.000 A 
ATOM     17  C   UNL     1      -2.626  11.067  17.792  0.00  0.00    +0.000 A 
ATOM     18  C   UNL     1      -2.443  11.960  18.855  0.00  0.00    +0.000 A 
ENDBRANCH   8  13
ENDBRANCH   6   8
BRANCH   2  19
ATOM     19  C   UNL     1       2.809  14.556  21.506  0.00  0.00    +0.000 C 
ATOM     20  O   UNL     1       2.265  14.928  22.543  0.00  0.00    +0.000 OA
ATOM     21  N   UNL     1       4.170  14.235  21.477  0.00  0.00    +0.000 N 
ATOM     22  H   UNL     1       4.626  13.873  20.649  0.00  0.00    +0.000 HD
BRANCH  21  23
ATOM     23  S   UNL     1       5.225  14.605  22.717  0.00  0.00    +0.000 S 
ATOM     24  O   UNL     1       5.408  16.035  22.654  0.00  0.00    +0.000 OA
ATOM     25  O   UNL     1       4.786  13.964  23.938  0.00  0.00    +0.000 OA
BRANCH  23  26
ATOM     26  C   UNL     1       6.731  13.839  22.162  0.00  0.00    +0.000 A 
ATOM     27  C   UNL     1       7.178  12.677  22.799  0.00  0.00    +0.000 A 
ATOM     28  C   UNL     1       8.367  12.078  22.379  0.00  0.00    +0.000 A 
ATOM     29  C   UNL     1       9.094  12.637  21.327  0.00  0.00    +0.000 A 
ATOM     30 CL   UNL     1      10.563  11.899  20.821  0.00  0.00    +0.000 Cl
ATOM     31  C   UNL     1       8.638  13.787  20.682  0.00  0.00    +0.000 A 
ATOM     32  C   UNL     1       7.444  14.384  21.091  0.00  0.00    +0.000 A 
ENDBRANCH  23  26
ENDBRANCH  21  23
ENDBRANCH   2  19
TORSDOF 5
ENDMDL
MODEL 3
REMARK VINA RESULT:      -6.6      3.577      6.516
REMARK  Name = 
REMARK  6 active torsions:
REMARK  status: ('A' for Active; 'I' for Inactive)
REMARK    1  A    between atoms: C_1  and  C_2
REMARK    2  A    between atoms: C_2  and  C_3
REMARK    3  A    between atoms: N_5  and  S_6
REMARK    4  A    between atoms: S_6  and  C_9
REMARK    5  A    between atoms: C_19  and  C_21
REMARK    6  A    between atoms: C_21  and  C_22
REMARK                            x       y       z     vdW  Elec       q    Type
REMARK                         _______ _______ _______ _____ _____    ______ ____
ROOT
ATOM      1  C   UNL     1      -2.494  12.645  20.953  0.00  0.00    +0.000 C 
ATOM      2  C   UNL     1      -1.427  12.298  21.988  0.00  0.00    +0.000 C 
ATOM      3  C   UNL     1      -2.159  11.646  23.199  0.00  0.00    +0.000 C 
ATOM      4  C   UNL     1      -1.079  10.579  23.210  0.00  0.00    +0.000 C 
ATOM      5  N   UNL     1      -0.773  10.984  21.832  0.00  0.00    +0.000 N 
ATOM      6  C   UNL     1      -0.119  10.179  20.937  0.00  0.00    +0.000 C 
ATOM      7  O   UNL     1       0.260   9.075  21.355  0.00  0.00    +0.000 OA
ENDROOT
BRANCH   6   8
ATOM      8  C   UNL     1       0.225  10.582  19.467  0.00  0.00    +0.000 C 
ATOM      9  C   UNL     1       1.129  11.817  19.330  0.00  0.00    +0.000 C 
ATOM     10  C   UNL     1       2.039  11.610  18.135  0.00  0.00    +0.000 C 
ATOM     11  C   UNL     1       2.168  10.112  17.968  0.00  0.00    +0.000 C 
ATOM     12  C   UNL     1       1.214   9.477  18.973  0.00  0.00    +0.000 C 
BRANCH   8  13
ATOM     13  C   UNL     1      -1.047  10.620  18.578  0.00  0.00    +0.000 A 
ATOM     14  C   UNL     1      -1.973   9.563  18.522  0.00  0.00    +0.000 A 
ATOM     15  C   UNL     1      -3.104   9.611  17.697  0.00  0.00    +0.000 A 
ATOM     16  C   UNL     1      -3.346  10.725  16.904  0.00  0.00    +0.000 A 
ATOM     17  C   UNL     1      -2.458  11.794  16.947  0.00  0.00    +0.000 A 
ATOM     18  C   UNL     1      -1.328  11.743  17.773  0.00  0.00    +0.000 A 
ENDBRANCH   8  13
ENDBRANCH   6   8
BRANCH   2  19
ATOM     19  C   UNL     1      -0.574  13.566  22.409  0.00  0.00    +0.000 C 
ATOM     20  O   UNL     1      -0.745  14.140  23.481  0.00  0.00    +0.000 OA
ATOM     21  N   UNL     1       0.406  13.994  21.507  0.00  0.00    +0.000 N 
ATOM     22  H   UNL     1       0.604  13.503  20.644  0.00  0.00    +0.000 HD
BRANCH  21  23
ATOM     23  S   UNL     1       1.202  15.455  21.644  0.00  0.00    +0.000 S 
ATOM     24  O   UNL     1       0.305  16.437  21.083  0.00  0.00    +0.000 OA
ATOM     25  O   UNL     1       1.721  15.604  22.987  0.00  0.00    +0.000 OA
BRANCH  23  26
ATOM     26  C   UNL     1       2.556  15.247  20.512  0.00  0.00    +0.000 A 
ATOM     27  C   UNL     1       2.310  15.307  19.136  0.00  0.00    +0.000 A 
ATOM     28  C   UNL     1       3.367  15.130  18.241  0.00  0.00    +0.000 A 
ATOM     29  C   UNL     1       4.655  14.900  18.723  0.00  0.00    +0.000 A 
ATOM     30 CL   UNL     1       5.951  14.674  17.614  0.00  0.00    +0.000 Cl
ATOM     31  C   UNL     1       4.902  14.856  20.096  0.00  0.00    +0.000 A 
ATOM     32  C   UNL     1       3.852  15.043  20.996  0.00  0.00    +0.000 A 
ENDBRANCH  23  26
ENDBRANCH  21  23
ENDBRANCH   2  19
TORSDOF 5
ENDMDL
MODEL 4
REMARK VINA RESULT:      -6.5      1.220      1.633
REMARK  Name = 
REMARK  6 active torsions:
REMARK  status: ('A' for Active; 'I' for Inactive)
REMARK    1  A    between atoms: C_1  and  C_2
REMARK    2  A    between atoms: C_2  and  C_3
REMARK    3  A    between atoms: N_5  and  S_6
REMARK    4  A    between atoms: S_6  and  C_9
REMARK    5  A    between atoms: C_19  and  C_21
REMARK    6  A    between atoms: C_21  and  C_22
REMARK                            x       y       z     vdW  Elec       q    Type
REMARK                         _______ _______ _______ _____ _____    ______ ____
ROOT
ATOM      1  C   UNL     1      -2.768  12.918  20.244  0.00  0.00    +0.000 C 
ATOM      2  C   UNL     1      -2.122  13.126  21.611  0.00  0.00    +0.000 C 
ATOM      3  C   UNL     1      -0.908  14.080  21.403  0.00  0.00    +0.000 C 
ATOM      4  C   UNL     1      -1.370  14.851  22.626  0.00  0.00    +0.000 C 
ATOM      5  N   UNL     1      -2.680  14.216  22.434  0.00  0.00    +0.000 N 
ATOM      6  C   UNL     1      -3.846  14.724  22.945  0.00  0.00    +0.000 C 
ATOM      7  O   UNL     1      -3.751  15.749  23.637  0.00  0.00    +0.000 OA
ENDROOT
BRANCH   6   8
ATOM      8  C   UNL     1      -5.254  14.071  22.764  0.00  0.00    +0.000 C 
ATOM      9  C   UNL     1      -5.384  12.649  23.330  0.00  0.00    +0.000 C 
ATOM     10  C   UNL     1      -6.789  12.481  23.877  0.00  0.00    +0.000 C 
ATOM     11  C   UNL     1      -7.259  13.873  24.242  0.00  0.00    +0.000 C 
ATOM     12  C   UNL     1      -6.179  14.837  23.763  0.00  0.00    +0.000 C 
BRANCH   8  13
ATOM     13  C   UNL     1      -5.767  14.227  21.307  0.00  0.00    +0.000 A 
ATOM     14  C   UNL     1      -6.322  13.163  20.573  0.00  0.00    +0.000 A 
ATOM     15  C   UNL     1      -6.761  13.322  19.252  0.00  0.00    +0.000 A 
ATOM     16  C   UNL     1      -6.662  14.557  18.626  0.00  0.00    +0.000 A 
ATOM     17  C   UNL     1      -6.133  15.634  19.328  0.00  0.00    +0.000 A 
ATOM     18  C   UNL     1      -5.696  15.471  20.649  0.00  0.00    +0.000 A 
ENDBRANCH   8  13
ENDBRANCH   6   8
BRANCH   2  19
ATOM     19  C   UNL     1      -1.704  11.753  22.285  0.00  0.00    +0.000 C 
ATOM     20  O   UNL     1      -2.074  11.443  23.415  0.00  0.00    +0.000 OA
ATOM     21  N   UNL     1      -0.907  10.894  21.522  0.00  0.00    +0.000 N 
ATOM     22  H   UNL     1      -0.638  11.103  20.569  0.00  0.00    +0.000 HD
BRANCH  21  23
ATOM     23  S   UNL     1      -0.145   9.549  22.154  0.00  0.00    +0.000 S 
ATOM     24  O   UNL     1       0.782  10.057  23.136  0.00  0.00    +0.000 OA
ATOM     25  O   UNL     1      -1.132   8.552  22.509  0.00  0.00    +0.000 OA
BRANCH  23  26
ATOM     26  C   UNL     1       0.799   8.971  20.763  0.00  0.00    +0.000 A 
ATOM     27  C   UNL     1       1.488   7.758  20.863  0.00  0.00    +0.000 A 
ATOM     28  C   UNL     1       2.242   7.305  19.780  0.00  0.00    +0.000 A 
ATOM     29  C   UNL     1       2.299   8.059  18.608  0.00  0.00    +0.000 A 
ATOM     30 CL   UNL     1       3.239   7.499  17.280  0.00  0.00    +0.000 Cl
ATOM     31  C   UNL     1       1.599   9.262  18.503  0.00  0.00    +0.000 A 
ATOM     32  C   UNL     1       0.834   9.714  19.579  0.00  0.00    +0.000 A 
ENDBRANCH  23  26
ENDBRANCH  21  23
ENDBRANCH   2  19
TORSDOF 5
ENDMDL
MODEL 5
REMARK VINA RESULT:      -6.4      3.570      6.396
REMARK  Name = 
REMARK  6 active torsions:
REMARK  status: ('A' for Active; 'I' for Inactive)
REMARK    1  A    between atoms: C_1  and  C_2
REMARK    2  A    between atoms: C_2  and  C_3
REMARK    3  A    between atoms: N_5  and  S_6
REMARK    4  A    between atoms: S_6  and  C_9
REMARK    5  A    between atoms: C_19  and  C_21
REMARK    6  A    between atoms: C_21  and  C_22
REMARK                            x       y       z     vdW  Elec       q    Type
REMARK                         _______ _______ _______ _____ _____    ______ ____
ROOT
ATOM      1  C   UNL     1      -3.244  13.601  21.026  0.00  0.00    +0.000 C 
ATOM      2  C   UNL     1      -2.214  13.247  22.094  0.00  0.00    +0.000 C 
ATOM      3  C   UNL     1      -2.980  12.539  23.252  0.00  0.00    +0.000 C 
ATOM      4  C   UNL     1      -1.875  11.497  23.277  0.00  0.00    +0.000 C 
ATOM      5  N   UNL     1      -1.522  11.954  21.926  0.00  0.00    +0.000 N 
ATOM      6  C   UNL     1      -0.811  11.194  21.035  0.00  0.00    +0.000 C 
ATOM      7  O   UNL     1      -0.422  10.086  21.434  0.00  0.00    +0.000 OA
ENDROOT
BRANCH   6   8
ATOM      8  C   UNL     1      -0.414  11.651  19.595  0.00  0.00    +0.000 C 
ATOM      9  C   UNL     1      -0.051  13.138  19.466  0.00  0.00    +0.000 C 
ATOM     10  C   UNL     1       1.050  13.272  18.431  0.00  0.00    +0.000 C 
ATOM     11  C   UNL     1       1.775  11.943  18.426  0.00  0.00    +0.000 C 
ATOM     12  C   UNL     1       0.991  11.015  19.348  0.00  0.00    +0.000 C 
BRANCH   8  13
ATOM     13  C   UNL     1      -1.439  11.152  18.540  0.00  0.00    +0.000 A 
ATOM     14  C   UNL     1      -1.186  10.063  17.685  0.00  0.00    +0.000 A 
ATOM     15  C   UNL     1      -2.117   9.642  16.727  0.00  0.00    +0.000 A 
ATOM     16  C   UNL     1      -3.336  10.296  16.600  0.00  0.00    +0.000 A 
ATOM     17  C   UNL     1      -3.623  11.365  17.440  0.00  0.00    +0.000 A 
ATOM     18  C   UNL     1      -2.690  11.783  18.397  0.00  0.00    +0.000 A 
ENDBRANCH   8  13
ENDBRANCH   6   8
BRANCH   2  19
ATOM     19  C   UNL     1      -1.412  14.520  22.591  0.00  0.00    +0.000 C 
ATOM     20  O   UNL     1      -1.906  15.346  23.354  0.00  0.00    +0.000 OA
ATOM     21  N   UNL     1      -0.096  14.654  22.134  0.00  0.00    +0.000 N 
ATOM     22  H   UNL     1       0.351  13.957  21.551  0.00  0.00    +0.000 HD
BRANCH  21  23
ATOM     23  S   UNL     1       0.801  16.050  22.319  0.00  0.00    +0.000 S 
ATOM     24  O   UNL     1      -0.050  17.119  21.854  0.00  0.00    +0.000 OA
ATOM     25  O   UNL     1       1.382  16.084  23.644  0.00  0.00    +0.000 OA
BRANCH  23  26
ATOM     26  C   UNL     1       2.092  15.822  21.118  0.00  0.00    +0.000 A 
ATOM     27  C   UNL     1       2.110  16.628  19.976  0.00  0.00    +0.000 A 
ATOM     28  C   UNL     1       3.113  16.445  19.022  0.00  0.00    +0.000 A 
ATOM     29  C   UNL     1       4.089  15.467  19.218  0.00  0.00    +0.000 A 
ATOM     30 CL   UNL     1       5.316  15.241  18.034  0.00  0.00    +0.000 Cl
ATOM     31  C   UNL     1       4.078  14.674  20.366  0.00  0.00    +0.000 A 
ATOM     32  C   UNL     1       3.084  14.860  21.328  0.00  0.00    +0.000 A 
ENDBRANCH  23  26
ENDBRANCH  21  23
ENDBRANCH   2  19
TORSDOF 5
ENDMDL
MODEL 6
REMARK VINA RESULT:      -6.4      3.068      4.651
REMARK  Name = 
REMARK  6 active torsions:
REMARK  status: ('A' for Active; 'I' for Inactive)
REMARK    1  A    between atoms: C_1  and  C_2
REMARK    2  A    between atoms: C_2  and  C_3
REMARK    3  A    between atoms: N_5  and  S_6
REMARK    4  A    between atoms: S_6  and  C_9
REMARK    5  A    between atoms: C_19  and  C_21
REMARK    6  A    between atoms: C_21  and  C_22
REMARK                            x       y       z     vdW  Elec       q    Type
REMARK                         _______ _______ _______ _____ _____    ______ ____
ROOT
ATOM      1  C   UNL     1      -6.099  11.331  20.256  0.00  0.00    +0.000 C 
ATOM      2  C   UNL     1      -5.731  12.035  18.953  0.00  0.00    +0.000 C 
ATOM      3  C   UNL     1      -6.924  11.832  17.971  0.00  0.00    +0.000 C 
ATOM      4  C   UNL     1      -6.817  13.306  17.620  0.00  0.00    +0.000 C 
ATOM      5  N   UNL     1      -6.068  13.469  18.873  0.00  0.00    +0.000 N 
ATOM      6  C   UNL     1      -5.935  14.669  19.521  0.00  0.00    +0.000 C 
ATOM      7  O   UNL     1      -6.448  15.658  18.973  0.00  0.00    +0.000 OA
ENDROOT
BRANCH   6   8
ATOM      8  C   UNL     1      -5.141  14.879  20.850  0.00  0.00    +0.000 C 
ATOM      9  C   UNL     1      -3.638  14.577  20.759  0.00  0.00    +0.000 C 
ATOM     10  C   UNL     1      -2.902  15.549  21.662  0.00  0.00    +0.000 C 
ATOM     11  C   UNL     1      -3.789  16.770  21.764  0.00  0.00    +0.000 C 
ATOM     12  C   UNL     1      -5.087  16.429  21.042  0.00  0.00    +0.000 C 
BRANCH   8  13
ATOM     13  C   UNL     1      -5.857  14.199  22.049  0.00  0.00    +0.000 A 
ATOM     14  C   UNL     1      -5.180  13.407  22.994  0.00  0.00    +0.000 A 
ATOM     15  C   UNL     1      -5.849  12.787  24.057  0.00  0.00    +0.000 A 
ATOM     16  C   UNL     1      -7.220  12.948  24.211  0.00  0.00    +0.000 A 
ATOM     17  C   UNL     1      -7.916  13.737  23.303  0.00  0.00    +0.000 A 
ATOM     18  C   UNL     1      -7.244  14.356  22.241  0.00  0.00    +0.000 A 
ENDBRANCH   8  13
ENDBRANCH   6   8
BRANCH   2  19
ATOM     19  C   UNL     1      -4.361  11.504  18.358  0.00  0.00    +0.000 C 
ATOM     20  O   UNL     1      -4.270  10.412  17.804  0.00  0.00    +0.000 OA
ATOM     21  N   UNL     1      -3.254  12.351  18.475  0.00  0.00    +0.000 N 
ATOM     22  H   UNL     1      -3.317  13.279  18.876  0.00  0.00    +0.000 HD
BRANCH  21  23
ATOM     23  S   UNL     1      -1.688  11.860  18.166  0.00  0.00    +0.000 S 
ATOM     24  O   UNL     1      -1.804  10.776  17.221  0.00  0.00    +0.000 OA
ATOM     25  O   UNL     1      -0.864  13.014  17.876  0.00  0.00    +0.000 OA
BRANCH  23  26
ATOM     26  C   UNL     1      -1.201  11.169  19.729  0.00  0.00    +0.000 A 
ATOM     27  C   UNL     1      -1.543  11.840  20.907  0.00  0.00    +0.000 A 
ATOM     28  C   UNL     1      -1.151  11.311  22.138  0.00  0.00    +0.000 A 
ATOM     29  C   UNL     1      -0.429  10.119  22.184  0.00  0.00    +0.000 A 
ATOM     30 CL   UNL     1       0.059   9.477  23.704  0.00  0.00    +0.000 Cl
ATOM     31  C   UNL     1      -0.101   9.442  21.009  0.00  0.00    +0.000 A 
ATOM     32  C   UNL     1      -0.500   9.961  19.775  0.00  0.00    +0.000 A 
ENDBRANCH  23  26
ENDBRANCH  21  23
ENDBRANCH   2  19
TORSDOF 5
ENDMDL
MODEL 7
REMARK VINA RESULT:      -6.4      5.120      6.209
REMARK  Name = 
REMARK  6 active torsions:
REMARK  status: ('A' for Active; 'I' for Inactive)
REMARK    1  A    between atoms: C_1  and  C_2
REMARK    2  A    between atoms: C_2  and  C_3
REMARK    3  A    between atoms: N_5  and  S_6
REMARK    4  A    between atoms: S_6  and  C_9
REMARK    5  A    between atoms: C_19  and  C_21
REMARK    6  A    between atoms: C_21  and  C_22
REMARK                            x       y       z     vdW  Elec       q    Type
REMARK                         _______ _______ _______ _____ _____    ______ ____
ROOT
ATOM      1  C   UNL     1       2.159  13.179  19.391  0.00  0.00    +0.000 C 
ATOM      2  C   UNL     1       1.808  14.454  20.153  0.00  0.00    +0.000 C 
ATOM      3  C   UNL     1       2.033  15.647  19.177  0.00  0.00    +0.000 C 
ATOM      4  C   UNL     1       0.699  16.207  19.638  0.00  0.00    +0.000 C 
ATOM      5  N   UNL     1       0.389  14.857  20.125  0.00  0.00    +0.000 N 
ATOM      6  C   UNL     1      -0.887  14.411  20.349  0.00  0.00    +0.000 C 
ATOM      7  O   UNL     1      -1.803  15.227  20.164  0.00  0.00    +0.000 OA
ENDROOT
BRANCH   6   8
ATOM      8  C   UNL     1      -1.251  12.984  20.872  0.00  0.00    +0.000 C 
ATOM      9  C   UNL     1      -0.350  12.460  22.000  0.00  0.00    +0.000 C 
ATOM     10  C   UNL     1      -1.200  11.628  22.941  0.00  0.00    +0.000 C 
ATOM     11  C   UNL     1      -2.612  12.154  22.796  0.00  0.00    +0.000 C 
ATOM     12  C   UNL     1      -2.582  13.179  21.667  0.00  0.00    +0.000 C 
BRANCH   8  13
ATOM     13  C   UNL     1      -1.450  11.986  19.699  0.00  0.00    +0.000 A 
ATOM     14  C   UNL     1      -2.630  11.930  18.934  0.00  0.00    +0.000 A 
ATOM     15  C   UNL     1      -2.796  11.007  17.894  0.00  0.00    +0.000 A 
ATOM     16  C   UNL     1      -1.780  10.114  17.582  0.00  0.00    +0.000 A 
ATOM     17  C   UNL     1      -0.595  10.153  18.308  0.00  0.00    +0.000 A 
ATOM     18  C   UNL     1      -0.432  11.077  19.347  0.00  0.00    +0.000 A 
ENDBRANCH   8  13
ENDBRANCH   6   8
BRANCH   2  19
ATOM     19  C   UNL     1       2.650  14.598  21.489  0.00  0.00    +0.000 C 
ATOM     20  O   UNL     1       2.126  14.884  22.562  0.00  0.00    +0.000 OA
ATOM     21  N   UNL     1       4.025  14.361  21.394  0.00  0.00    +0.000 N 
ATOM     22  H   UNL     1       4.470  14.068  20.533  0.00  0.00    +0.000 HD
BRANCH  21  23
ATOM     23  S   UNL     1       5.105  14.732  22.613  0.00  0.00    +0.000 S 
ATOM     24  O   UNL     1       5.071  16.170  22.733  0.00  0.00    +0.000 OA
ATOM     25  O   UNL     1       4.855  13.884  23.759  0.00  0.00    +0.000 OA
BRANCH  23  26
ATOM     26  C   UNL     1       6.660  14.283  21.879  0.00  0.00    +0.000 A 
ATOM     27  C   UNL     1       6.973  14.758  20.602  0.00  0.00    +0.000 A 
ATOM     28  C   UNL     1       8.187  14.398  20.014  0.00  0.00    +0.000 A 
ATOM     29  C   UNL     1       9.078  13.575  20.704  0.00  0.00    +0.000 A 
ATOM     30 CL   UNL     1      10.567  13.128  19.969  0.00  0.00    +0.000 Cl
ATOM     31  C   UNL     1       8.771  13.115  21.985  0.00  0.00    +0.000 A 
ATOM     32  C   UNL     1       7.564  13.481  22.583  0.00  0.00    +0.000 A 
ENDBRANCH  23  26
ENDBRANCH  21  23
ENDBRANCH   2  19
TORSDOF 5
ENDMDL
MODEL 8
REMARK VINA RESULT:      -6.3      3.556      6.471
REMARK  Name = 
REMARK  6 active torsions:
REMARK  status: ('A' for Active; 'I' for Inactive)
REMARK    1  A    between atoms: C_1  and  C_2
REMARK    2  A    between atoms: C_2  and  C_3
REMARK    3  A    between atoms: N_5  and  S_6
REMARK    4  A    between atoms: S_6  and  C_9
REMARK    5  A    between atoms: C_19  and  C_21
REMARK    6  A    between atoms: C_21  and  C_22
REMARK                            x       y       z     vdW  Elec       q    Type
REMARK                         _______ _______ _______ _____ _____    ______ ____
ROOT
ATOM      1  C   UNL     1      -3.537  13.377  21.286  0.00  0.00    +0.000 C 
ATOM      2  C   UNL     1      -2.428  13.101  22.298  0.00  0.00    +0.000 C 
ATOM      3  C   UNL     1      -3.046  12.220  23.425  0.00  0.00    +0.000 C 
ATOM      4  C   UNL     1      -1.809  11.343  23.347  0.00  0.00    +0.000 C 
ATOM      5  N   UNL     1      -1.573  11.930  22.021  0.00  0.00    +0.000 N 
ATOM      6  C   UNL     1      -0.799  11.335  21.060  0.00  0.00    +0.000 C 
ATOM      7  O   UNL     1      -0.247  10.268  21.370  0.00  0.00    +0.000 OA
ENDROOT
BRANCH   6   8
ATOM      8  C   UNL     1      -0.523  11.935  19.644  0.00  0.00    +0.000 C 
ATOM      9  C   UNL     1      -0.388  13.465  19.605  0.00  0.00    +0.000 C 
ATOM     10  C   UNL     1       0.646  13.825  18.555  0.00  0.00    +0.000 C 
ATOM     11  C   UNL     1       1.558  12.624  18.445  0.00  0.00    +0.000 C 
ATOM     12  C   UNL     1       0.952  11.533  19.322  0.00  0.00    +0.000 C 
BRANCH   8  13
ATOM     13  C   UNL     1      -1.497  11.354  18.584  0.00  0.00    +0.000 A 
ATOM     14  C   UNL     1      -2.776  11.889  18.345  0.00  0.00    +0.000 A 
ATOM     15  C   UNL     1      -3.646  11.336  17.396  0.00  0.00    +0.000 A 
ATOM     16  C   UNL     1      -3.258  10.230  16.652  0.00  0.00    +0.000 A 
ATOM     17  C   UNL     1      -1.995   9.685  16.852  0.00  0.00    +0.000 A 
ATOM     18  C   UNL     1      -1.127  10.241  17.801  0.00  0.00    +0.000 A 
ENDBRANCH   8  13
ENDBRANCH   6   8
BRANCH   2  19
ATOM     19  C   UNL     1      -1.789  14.439  22.858  0.00  0.00    +0.000 C 
ATOM     20  O   UNL     1      -2.420  15.214  23.572  0.00  0.00    +0.000 OA
ATOM     21  N   UNL     1      -0.455  14.690  22.518  0.00  0.00    +0.000 N 
ATOM     22  H   UNL     1       0.102  14.039  21.980  0.00  0.00    +0.000 HD
BRANCH  21  23
ATOM     23  S   UNL     1       0.294  16.160  22.776  0.00  0.00    +0.000 S 
ATOM     24  O   UNL     1      -0.652  17.157  22.339  0.00  0.00    +0.000 OA
ATOM     25  O   UNL     1       0.850  16.196  24.112  0.00  0.00    +0.000 OA
BRANCH  23  26
ATOM     26  C   UNL     1       1.619  16.112  21.591  0.00  0.00    +0.000 A 
ATOM     27  C   UNL     1       1.726  17.138  20.647  0.00  0.00    +0.000 A 
ATOM     28  C   UNL     1       2.755  17.100  19.705  0.00  0.00    +0.000 A 
ATOM     29  C   UNL     1       3.669  16.046  19.716  0.00  0.00    +0.000 A 
ATOM     30 CL   UNL     1       4.930  16.001  18.546  0.00  0.00    +0.000 Cl
ATOM     31  C   UNL     1       3.571  15.032  20.668  0.00  0.00    +0.000 A 
ATOM     32  C   UNL     1       2.550  15.070  21.620  0.00  0.00    +0.000 A 
ENDBRANCH  23  26
ENDBRANCH  21  23
ENDBRANCH   2  19
TORSDOF 5
ENDMDL
MODEL 9
REMARK VINA RESULT:      -6.3      4.956      5.992
REMARK  Name = 
REMARK  6 active torsions:
REMARK  status: ('A' for Active; 'I' for Inactive)
REMARK    1  A    between atoms: C_1  and  C_2
REMARK    2  A    between atoms: C_2  and  C_3
REMARK    3  A    between atoms: N_5  and  S_6
REMARK    4  A    between atoms: S_6  and  C_9
REMARK    5  A    between atoms: C_19  and  C_21
REMARK    6  A    between atoms: C_21  and  C_22
REMARK                            x       y       z     vdW  Elec       q    Type
REMARK                         _______ _______ _______ _____ _____    ______ ____
ROOT
ATOM      1  C   UNL     1       1.458  13.233  19.013  0.00  0.00    +0.000 C 
ATOM      2  C   UNL     1       1.260  14.455  19.906  0.00  0.00    +0.000 C 
ATOM      3  C   UNL     1       1.331  15.710  18.985  0.00  0.00    +0.000 C 
ATOM      4  C   UNL     1       0.104  16.243  19.703  0.00  0.00    +0.000 C 
ATOM      5  N   UNL     1      -0.138  14.864  20.147  0.00  0.00    +0.000 N 
ATOM      6  C   UNL     1      -1.363  14.407  20.557  0.00  0.00    +0.000 C 
ATOM      7  O   UNL     1      -2.286  15.236  20.584  0.00  0.00    +0.000 OA
ENDROOT
BRANCH   6   8
ATOM      8  C   UNL     1      -1.652  12.950  21.039  0.00  0.00    +0.000 C 
ATOM      9  C   UNL     1      -0.590  12.357  21.977  0.00  0.00    +0.000 C 
ATOM     10  C   UNL     1      -1.289  11.466  22.986  0.00  0.00    +0.000 C 
ATOM     11  C   UNL     1      -2.701  11.998  23.098  0.00  0.00    +0.000 C 
ATOM     12  C   UNL     1      -2.840  13.092  22.045  0.00  0.00    +0.000 C 
BRANCH   8  13
ATOM     13  C   UNL     1      -2.042  12.027  19.853  0.00  0.00    +0.000 A 
ATOM     14  C   UNL     1      -1.182  11.040  19.337  0.00  0.00    +0.000 A 
ATOM     15  C   UNL     1      -1.547  10.232  18.253  0.00  0.00    +0.000 A 
ATOM     16  C   UNL     1      -2.790  10.384  17.653  0.00  0.00    +0.000 A 
ATOM     17  C   UNL     1      -3.670  11.340  18.148  0.00  0.00    +0.000 A 
ATOM     18  C   UNL     1      -3.302  12.146  19.233  0.00  0.00    +0.000 A 
ENDBRANCH   8  13
ENDBRANCH   6   8
BRANCH   2  19
ATOM     19  C   UNL     1       2.319  14.507  21.084  0.00  0.00    +0.000 C 
ATOM     20  O   UNL     1       1.981  14.589  22.262  0.00  0.00    +0.000 OA
ATOM     21  N   UNL     1       3.668  14.435  20.721  0.00  0.00    +0.000 N 
ATOM     22  H   UNL     1       3.969  14.310  19.762  0.00  0.00    +0.000 HD
BRANCH  21  23
ATOM     23  S   UNL     1       4.920  14.752  21.779  0.00  0.00    +0.000 S 
ATOM     24  O   UNL     1       4.720  16.112  22.217  0.00  0.00    +0.000 OA
ATOM     25  O   UNL     1       5.034  13.672  22.737  0.00  0.00    +0.000 OA
BRANCH  23  26
ATOM     26  C   UNL     1       6.332  14.729  20.700  0.00  0.00    +0.000 A 
ATOM     27  C   UNL     1       6.178  15.124  19.368  0.00  0.00    +0.000 A 
ATOM     28  C   UNL     1       7.279  15.095  18.511  0.00  0.00    +0.000 A 
ATOM     29  C   UNL     1       8.522  14.680  18.990  0.00  0.00    +0.000 A 
ATOM     30 CL   UNL     1       9.873  14.638  17.926  0.00  0.00    +0.000 Cl
ATOM     31  C   UNL     1       8.679  14.302  20.324  0.00  0.00    +0.000 A 
ATOM     32  C   UNL     1       7.583  14.339  21.188  0.00  0.00    +0.000 A 
ENDBRANCH  23  26
ENDBRANCH  21  23
ENDBRANCH   2  19
TORSDOF 5
ENDMDL
