MODEL 1
REMARK VINA RESULT:      -7.0      0.000      0.000
REMARK  Name = 
REMARK  7 active torsions:
REMARK  status: ('A' for Active; 'I' for Inactive)
REMARK    1  A    between atoms: C_1  and  C_2
REMARK    2  A    between atoms: C_14  and  C_15
REMARK    3  A    between atoms: C_19  and  C_20
REMARK    4  A    between atoms: C_21  and  O_22
REMARK    5  A    between atoms: C_21  and  C_23
REMARK    6  A    between atoms: C_23  and  C_25
REMARK    7  A    between atoms: C_25  and  O_26
REMARK                            x       y       z     vdW  Elec       q    Type
REMARK                         _______ _______ _______ _____ _____    ______ ____
ROOT
ATOM      1  C   UNL     1       3.470   1.738  17.885  0.00  0.00    +0.000 C 
ATOM      2  C   UNL     1       2.412   2.784  18.243  0.00  0.00    +0.000 C 
ATOM      3  C   UNL     1       2.080   3.902  17.278  0.00  0.00    +0.000 C 
ATOM      4  C   UNL     1       2.338   5.328  17.984  0.00  0.00    +0.000 C 
ATOM      5  C   UNL     1       1.985   6.582  18.855  0.00  0.00    +0.000 C 
ATOM      6  C   UNL     1       1.493   6.676  20.297  0.00  0.00    +0.000 C 
ATOM      7  C   UNL     1       1.918   8.020  20.894  0.00  0.00    +0.000 C 
ATOM      8  C   UNL     1       1.198   9.060  20.097  0.00  0.00    +0.000 C 
ATOM      9  C   UNL     1       0.211   9.698  20.751  0.00  0.00    +0.000 C 
ATOM     10  C   UNL     1      -0.701  10.614  20.048  0.00  0.00    +0.000 C 
ATOM     11  O   UNL     1      -1.636  11.115  20.662  0.00  0.00    +0.000 OA
ATOM     12  C   UNL     1      -0.406  10.922  18.607  0.00  0.00    +0.000 C 
ATOM     13  C   UNL     1       0.196   9.700  17.906  0.00  0.00    +0.000 C 
ATOM     14  C   UNL     1       1.512   9.170  18.582  0.00  0.00    +0.000 C 
ATOM     15  C   UNL     1       2.611  10.229  18.379  0.00  0.00    +0.000 C 
ATOM     16  C   UNL     1       1.905   7.772  17.886  0.00  0.00    +0.000 C 
ATOM     17  C   UNL     1       3.341   7.584  17.112  0.00  0.00    +0.000 C 
ATOM     18  C   UNL     1       4.124   6.048  17.183  0.00  0.00    +0.000 C 
ATOM     19  C   UNL     1       3.766   4.980  18.501  0.00  0.00    +0.000 C 
ATOM     20  C   UNL     1       4.776   5.543  19.519  0.00  0.00    +0.000 C 
ATOM     21  C   UNL     1       2.840   3.709  19.347  0.00  0.00    +0.000 C 
ENDROOT
BRANCH  21  22
ATOM     22  O   UNL     1       1.511   4.178  19.856  0.00  0.00    +0.000 OA
ATOM     23  H   UNL     1       1.555   5.085  20.211  0.00  0.00    +0.000 HD
ENDBRANCH  21  22
BRANCH  21  24
ATOM     24  C   UNL     1       3.040   2.862  20.642  0.00  0.00    +0.000 C 
ATOM     25  O   UNL     1       4.171   2.460  20.978  0.00  0.00    +0.000 OA
BRANCH  24  26
ATOM     26  C   UNL     1       1.857   2.174  21.333  0.00  0.00    +0.000 C 
BRANCH  26  27
ATOM     27  O   UNL     1       1.502   2.940  22.500  0.00  0.00    +0.000 OA
ATOM     28  H   UNL     1       1.465   3.878  22.209  0.00  0.00    +0.000 HD
ENDBRANCH  26  27
ENDBRANCH  24  26
ENDBRANCH  21  24
TORSDOF 4
ENDMDL
MODEL 2
REMARK VINA RESULT:      -6.4      0.465      1.053
REMARK  Name = 
REMARK  7 active torsions:
REMARK  status: ('A' for Active; 'I' for Inactive)
REMARK    1  A    between atoms: C_1  and  C_2
REMARK    2  A    between atoms: C_14  and  C_15
REMARK    3  A    between atoms: C_19  and  C_20
REMARK    4  A    between atoms: C_21  and  O_22
REMARK    5  A    between atoms: C_21  and  C_23
REMARK    6  A    between atoms: C_23  and  C_25
REMARK    7  A    between atoms: C_25  and  O_26
REMARK                            x       y       z     vdW  Elec       q    Type
REMARK                         _______ _______ _______ _____ _____    ______ ____
ROOT
ATOM      1  C   UNL     1       3.193   1.686  18.073  0.00  0.00    +0.000 C 
ATOM      2  C   UNL     1       2.176   2.769  18.433  0.00  0.00    +0.000 C 
ATOM      3  C   UNL     1       1.840   3.866  17.445  0.00  0.00    +0.000 C 
ATOM      4  C   UNL     1       2.159   5.305  18.096  0.00  0.00    +0.000 C 
ATOM      5  C   UNL     1       1.868   6.594  18.939  0.00  0.00    +0.000 C 
ATOM      6  C   UNL     1       1.427   6.745  20.393  0.00  0.00    +0.000 C 
ATOM      7  C   UNL     1       1.907   8.095  20.933  0.00  0.00    +0.000 C 
ATOM      8  C   UNL     1       1.187   9.129  20.129  0.00  0.00    +0.000 C 
ATOM      9  C   UNL     1       0.240   9.813  20.794  0.00  0.00    +0.000 C 
ATOM     10  C   UNL     1      -0.671  10.732  20.094  0.00  0.00    +0.000 C 
ATOM     11  O   UNL     1      -1.571  11.276  20.723  0.00  0.00    +0.000 OA
ATOM     12  C   UNL     1      -0.417  10.987  18.635  0.00  0.00    +0.000 C 
ATOM     13  C   UNL     1       0.129   9.729  17.953  0.00  0.00    +0.000 C 
ATOM     14  C   UNL     1       1.453   9.184  18.601  0.00  0.00    +0.000 C 
ATOM     15  C   UNL     1       2.571  10.207  18.329  0.00  0.00    +0.000 C 
ATOM     16  C   UNL     1       1.786   7.756  17.936  0.00  0.00    +0.000 C 
ATOM     17  C   UNL     1       3.189   7.507  17.122  0.00  0.00    +0.000 C 
ATOM     18  C   UNL     1       3.934   5.953  17.214  0.00  0.00    +0.000 C 
ATOM     19  C   UNL     1       3.594   4.936  18.577  0.00  0.00    +0.000 C 
ATOM     20  C   UNL     1       4.652   5.502  19.543  0.00  0.00    +0.000 C 
ATOM     21  C   UNL     1       2.665   3.716  19.493  0.00  0.00    +0.000 C 
ENDROOT
BRANCH  21  22
ATOM     22  O   UNL     1       1.366   4.236  20.030  0.00  0.00    +0.000 OA
ATOM     23  H   UNL     1       1.249   4.022  20.974  0.00  0.00    +0.000 HD
ENDBRANCH  21  22
BRANCH  21  24
ATOM     24  C   UNL     1       2.886   2.904  20.806  0.00  0.00    +0.000 C 
ATOM     25  O   UNL     1       2.425   3.304  21.893  0.00  0.00    +0.000 OA
BRANCH  24  26
ATOM     26  C   UNL     1       3.966   1.820  20.899  0.00  0.00    +0.000 C 
BRANCH  26  27
ATOM     27  O   UNL     1       5.174   2.326  20.299  0.00  0.00    +0.000 OA
ATOM     28  H   UNL     1       5.711   1.539  20.063  0.00  0.00    +0.000 HD
ENDBRANCH  26  27
ENDBRANCH  24  26
ENDBRANCH  21  24
TORSDOF 4
ENDMDL
MODEL 3
REMARK VINA RESULT:      -5.9      6.408      8.417
REMARK  Name = 
REMARK  7 active torsions:
REMARK  status: ('A' for Active; 'I' for Inactive)
REMARK    1  A    between atoms: C_1  and  C_2
REMARK    2  A    between atoms: C_14  and  C_15
REMARK    3  A    between atoms: C_19  and  C_20
REMARK    4  A    between atoms: C_21  and  O_22
REMARK    5  A    between atoms: C_21  and  C_23
REMARK    6  A    between atoms: C_23  and  C_25
REMARK    7  A    between atoms: C_25  and  O_26
REMARK                            x       y       z     vdW  Elec       q    Type
REMARK                         _______ _______ _______ _____ _____    ______ ____
ROOT
ATOM      1  C   UNL     1      -3.690   9.044  18.129  0.00  0.00    +0.000 C 
ATOM      2  C   UNL     1      -2.764  10.139  17.599  0.00  0.00    +0.000 C 
ATOM      3  C   UNL     1      -1.260   9.979  17.678  0.00  0.00    +0.000 C 
ATOM      4  C   UNL     1      -0.624  11.193  18.526  0.00  0.00    +0.000 C 
ATOM      5  C   UNL     1      -0.032  12.625  18.756  0.00  0.00    +0.000 C 
ATOM      6  C   UNL     1      -0.614  13.999  18.434  0.00  0.00    +0.000 C 
ATOM      7  C   UNL     1      -0.031  15.037  19.396  0.00  0.00    +0.000 C 
ATOM      8  C   UNL     1       1.433  15.082  19.099  0.00  0.00    +0.000 C 
ATOM      9  C   UNL     1       1.859  16.204  18.491  0.00  0.00    +0.000 C 
ATOM     10  C   UNL     1       3.233  16.318  17.976  0.00  0.00    +0.000 C 
ATOM     11  O   UNL     1       3.558  17.325  17.358  0.00  0.00    +0.000 OA
ATOM     12  C   UNL     1       4.185  15.195  18.277  0.00  0.00    +0.000 C 
ATOM     13  C   UNL     1       3.448  13.852  18.298  0.00  0.00    +0.000 C 
ATOM     14  C   UNL     1       2.268  13.796  19.335  0.00  0.00    +0.000 C 
ATOM     15  C   UNL     1       2.875  13.851  20.749  0.00  0.00    +0.000 C 
ATOM     16  C   UNL     1       1.454  12.427  19.095  0.00  0.00    +0.000 C 
ATOM     17  C   UNL     1       1.312  11.306  20.286  0.00  0.00    +0.000 C 
ATOM     18  C   UNL     1      -0.152  10.400  20.396  0.00  0.00    +0.000 C 
ATOM     19  C   UNL     1      -1.607  11.065  19.728  0.00  0.00    +0.000 C 
ATOM     20  C   UNL     1      -2.038  11.911  20.940  0.00  0.00    +0.000 C 
ATOM     21  C   UNL     1      -2.788  11.393  18.429  0.00  0.00    +0.000 C 
ENDROOT
BRANCH  21  22
ATOM     22  O   UNL     1      -2.311  12.404  17.431  0.00  0.00    +0.000 OA
ATOM     23  H   UNL     1      -2.998  12.622  16.775  0.00  0.00    +0.000 HD
ENDBRANCH  21  22
BRANCH  21  24
ATOM     24  C   UNL     1      -4.225  11.995  18.357  0.00  0.00    +0.000 C 
ATOM     25  O   UNL     1      -4.898  12.176  19.391  0.00  0.00    +0.000 OA
BRANCH  24  26
ATOM     26  C   UNL     1      -5.007  12.034  17.039  0.00  0.00    +0.000 C 
BRANCH  26  27
ATOM     27  O   UNL     1      -6.352  11.585  17.293  0.00  0.00    +0.000 OA
ATOM     28  H   UNL     1      -6.891  12.396  17.416  0.00  0.00    +0.000 HD
ENDBRANCH  26  27
ENDBRANCH  24  26
ENDBRANCH  21  24
TORSDOF 4
ENDMDL
MODEL 4
REMARK VINA RESULT:      -5.8      2.649      4.309
REMARK  Name = 
REMARK  7 active torsions:
REMARK  status: ('A' for Active; 'I' for Inactive)
REMARK    1  A    between atoms: C_1  and  C_2
REMARK    2  A    between atoms: C_14  and  C_15
REMARK    3  A    between atoms: C_19  and  C_20
REMARK    4  A    between atoms: C_21  and  O_22
REMARK    5  A    between atoms: C_21  and  C_23
REMARK    6  A    between atoms: C_23  and  C_25
REMARK    7  A    between atoms: C_25  and  O_26
REMARK                            x       y       z     vdW  Elec       q    Type
REMARK                         _______ _______ _______ _____ _____    ______ ____
ROOT
ATOM      1  C   UNL     1       6.659   3.932  17.522  0.00  0.00    +0.000 C 
ATOM      2  C   UNL     1       6.161   5.310  17.959  0.00  0.00    +0.000 C 
ATOM      3  C   UNL     1       5.604   5.520  19.352  0.00  0.00    +0.000 C 
ATOM      4  C   UNL     1       4.091   6.069  19.259  0.00  0.00    +0.000 C 
ATOM      5  C   UNL     1       2.963   7.149  19.133  0.00  0.00    +0.000 C 
ATOM      6  C   UNL     1       2.743   8.228  18.076  0.00  0.00    +0.000 C 
ATOM      7  C   UNL     1       1.251   8.563  17.993  0.00  0.00    +0.000 C 
ATOM      8  C   UNL     1       0.896   9.148  19.322  0.00  0.00    +0.000 C 
ATOM      9  C   UNL     1       0.637  10.467  19.315  0.00  0.00    +0.000 C 
ATOM     10  C   UNL     1       0.451  11.215  20.570  0.00  0.00    +0.000 C 
ATOM     11  O   UNL     1       0.296  12.429  20.524  0.00  0.00    +0.000 OA
ATOM     12  C   UNL     1       0.419  10.429  21.850  0.00  0.00    +0.000 C 
ATOM     13  C   UNL     1       1.364   9.226  21.769  0.00  0.00    +0.000 C 
ATOM     14  C   UNL     1       1.042   8.251  20.580  0.00  0.00    +0.000 C 
ATOM     15  C   UNL     1      -0.312   7.577  20.869  0.00  0.00    +0.000 C 
ATOM     16  C   UNL     1       2.231   7.168  20.484  0.00  0.00    +0.000 C 
ATOM     17  C   UNL     1       1.930   5.562  20.648  0.00  0.00    +0.000 C 
ATOM     18  C   UNL     1       2.864   4.447  19.720  0.00  0.00    +0.000 C 
ATOM     19  C   UNL     1       3.604   4.989  18.248  0.00  0.00    +0.000 C 
ATOM     20  C   UNL     1       2.404   4.770  17.307  0.00  0.00    +0.000 C 
ATOM     21  C   UNL     1       4.896   5.733  17.266  0.00  0.00    +0.000 C 
ENDROOT
BRANCH  21  22
ATOM     22  O   UNL     1       4.975   7.223  17.415  0.00  0.00    +0.000 OA
ATOM     23  H   UNL     1       5.876   7.558  17.260  0.00  0.00    +0.000 HD
ENDBRANCH  21  22
BRANCH  21  24
ATOM     24  C   UNL     1       5.199   5.867  15.742  0.00  0.00    +0.000 C 
ATOM     25  O   UNL     1       5.161   6.977  15.175  0.00  0.00    +0.000 OA
BRANCH  24  26
ATOM     26  C   UNL     1       5.176   4.646  14.815  0.00  0.00    +0.000 C 
BRANCH  26  27
ATOM     27  O   UNL     1       6.425   4.592  14.101  0.00  0.00    +0.000 OA
ATOM     28  H   UNL     1       6.874   3.770  14.398  0.00  0.00    +0.000 HD
ENDBRANCH  26  27
ENDBRANCH  24  26
ENDBRANCH  21  24
TORSDOF 4
ENDMDL
MODEL 5
REMARK VINA RESULT:      -5.8      2.444      3.958
REMARK  Name = 
REMARK  7 active torsions:
REMARK  status: ('A' for Active; 'I' for Inactive)
REMARK    1  A    between atoms: C_1  and  C_2
REMARK    2  A    between atoms: C_14  and  C_15
REMARK    3  A    between atoms: C_19  and  C_20
REMARK    4  A    between atoms: C_21  and  O_22
REMARK    5  A    between atoms: C_21  and  C_23
REMARK    6  A    between atoms: C_23  and  C_25
REMARK    7  A    between atoms: C_25  and  O_26
REMARK                            x       y       z     vdW  Elec       q    Type
REMARK                         _______ _______ _______ _____ _____    ______ ____
ROOT
ATOM      1  C   UNL     1       5.127   2.938  18.633  0.00  0.00    +0.000 C 
ATOM      2  C   UNL     1       5.053   4.458  18.790  0.00  0.00    +0.000 C 
ATOM      3  C   UNL     1       4.463   5.073  20.042  0.00  0.00    +0.000 C 
ATOM      4  C   UNL     1       3.218   6.019  19.652  0.00  0.00    +0.000 C 
ATOM      5  C   UNL     1       2.507   7.343  19.210  0.00  0.00    +0.000 C 
ATOM      6  C   UNL     1       2.739   8.228  17.988  0.00  0.00    +0.000 C 
ATOM      7  C   UNL     1       1.445   8.969  17.642  0.00  0.00    +0.000 C 
ATOM      8  C   UNL     1       1.170   9.864  18.808  0.00  0.00    +0.000 C 
ATOM      9  C   UNL     1       1.345  11.176  18.574  0.00  0.00    +0.000 C 
ATOM     10  C   UNL     1       1.288  12.160  19.667  0.00  0.00    +0.000 C 
ATOM     11  O   UNL     1       1.530  13.337  19.425  0.00  0.00    +0.000 OA
ATOM     12  C   UNL     1       0.890  11.666  21.029  0.00  0.00    +0.000 C 
ATOM     13  C   UNL     1       1.408  10.243  21.260  0.00  0.00    +0.000 C 
ATOM     14  C   UNL     1       0.907   9.208  20.189  0.00  0.00    +0.000 C 
ATOM     15  C   UNL     1      -0.611   9.030  20.372  0.00  0.00    +0.000 C 
ATOM     16  C   UNL     1       1.696   7.823  20.423  0.00  0.00    +0.000 C 
ATOM     17  C   UNL     1       0.888   6.437  20.772  0.00  0.00    +0.000 C 
ATOM     18  C   UNL     1       1.503   4.946  20.159  0.00  0.00    +0.000 C 
ATOM     19  C   UNL     1       2.510   4.967  18.748  0.00  0.00    +0.000 C 
ATOM     20  C   UNL     1       1.396   4.946  17.683  0.00  0.00    +0.000 C 
ATOM     21  C   UNL     1       4.058   5.103  17.866  0.00  0.00    +0.000 C 
ENDROOT
BRANCH  21  22
ATOM     22  O   UNL     1       4.589   6.503  17.809  0.00  0.00    +0.000 OA
ATOM     23  H   UNL     1       4.537   6.950  18.674  0.00  0.00    +0.000 HD
ENDBRANCH  21  22
BRANCH  21  24
ATOM     24  C   UNL     1       4.528   4.862  16.399  0.00  0.00    +0.000 C 
ATOM     25  O   UNL     1       4.197   3.831  15.780  0.00  0.00    +0.000 OA
BRANCH  24  26
ATOM     26  C   UNL     1       5.694   5.654  15.796  0.00  0.00    +0.000 C 
BRANCH  26  27
ATOM     27  O   UNL     1       5.165   6.840  15.173  0.00  0.00    +0.000 OA
ATOM     28  H   UNL     1       4.872   7.425  15.905  0.00  0.00    +0.000 HD
ENDBRANCH  26  27
ENDBRANCH  24  26
ENDBRANCH  21  24
TORSDOF 4
ENDMDL
MODEL 6
REMARK VINA RESULT:      -5.7      1.081      1.344
REMARK  Name = 
REMARK  7 active torsions:
REMARK  status: ('A' for Active; 'I' for Inactive)
REMARK    1  A    between atoms: C_1  and  C_2
REMARK    2  A    between atoms: C_14  and  C_15
REMARK    3  A    between atoms: C_19  and  C_20
REMARK    4  A    between atoms: C_21  and  O_22
REMARK    5  A    between atoms: C_21  and  C_23
REMARK    6  A    between atoms: C_23  and  C_25
REMARK    7  A    between atoms: C_25  and  O_26
REMARK                            x       y       z     vdW  Elec       q    Type
REMARK                         _______ _______ _______ _____ _____    ______ ____
ROOT
ATOM      1  C   UNL     1       2.943   2.836  17.285  0.00  0.00    +0.000 C 
ATOM      2  C   UNL     1       1.966   3.711  18.073  0.00  0.00    +0.000 C 
ATOM      3  C   UNL     1       1.369   4.953  17.445  0.00  0.00    +0.000 C 
ATOM      4  C   UNL     1       1.738   6.246  18.333  0.00  0.00    +0.000 C 
ATOM      5  C   UNL     1       1.562   7.291  19.486  0.00  0.00    +0.000 C 
ATOM      6  C   UNL     1       1.432   7.086  20.994  0.00  0.00    +0.000 C 
ATOM      7  C   UNL     1       1.940   8.333  21.723  0.00  0.00    +0.000 C 
ATOM      8  C   UNL     1       1.010   9.435  21.331  0.00  0.00    +0.000 C 
ATOM      9  C   UNL     1       0.190   9.864  22.306  0.00  0.00    +0.000 C 
ATOM     10  C   UNL     1      -0.899  10.813  22.024  0.00  0.00    +0.000 C 
ATOM     11  O   UNL     1      -1.674  11.119  22.923  0.00  0.00    +0.000 OA
ATOM     12  C   UNL     1      -0.974  11.396  20.641  0.00  0.00    +0.000 C 
ATOM     13  C   UNL     1      -0.517  10.371  19.598  0.00  0.00    +0.000 C 
ATOM     14  C   UNL     1       0.943   9.839  19.835  0.00  0.00    +0.000 C 
ATOM     15  C   UNL     1       1.920  11.004  19.591  0.00  0.00    +0.000 C 
ATOM     16  C   UNL     1       1.205   8.624  18.810  0.00  0.00    +0.000 C 
ATOM     17  C   UNL     1       2.416   8.696  17.703  0.00  0.00    +0.000 C 
ATOM     18  C   UNL     1       3.248   7.241  17.293  0.00  0.00    +0.000 C 
ATOM     19  C   UNL     1       3.261   5.930  18.428  0.00  0.00    +0.000 C 
ATOM     20  C   UNL     1       4.466   6.383  19.273  0.00  0.00    +0.000 C 
ATOM     21  C   UNL     1       2.616   4.456  19.205  0.00  0.00    +0.000 C 
ENDROOT
BRANCH  21  22
ATOM     22  O   UNL     1       1.434   4.717  20.089  0.00  0.00    +0.000 OA
ATOM     23  H   UNL     1       0.608   4.374  19.704  0.00  0.00    +0.000 HD
ENDBRANCH  21  22
BRANCH  21  24
ATOM     24  C   UNL     1       3.155   3.412  20.229  0.00  0.00    +0.000 C 
ATOM     25  O   UNL     1       4.331   3.002  20.169  0.00  0.00    +0.000 OA
BRANCH  24  26
ATOM     26  C   UNL     1       2.201   2.573  21.088  0.00  0.00    +0.000 C 
BRANCH  26  27
ATOM     27  O   UNL     1       2.081   3.198  22.380  0.00  0.00    +0.000 OA
ATOM     28  H   UNL     1       1.972   4.159  22.208  0.00  0.00    +0.000 HD
ENDBRANCH  26  27
ENDBRANCH  24  26
ENDBRANCH  21  24
TORSDOF 4
ENDMDL
MODEL 7
REMARK VINA RESULT:      -5.7      9.275     11.919
REMARK  Name = 
REMARK  7 active torsions:
REMARK  status: ('A' for Active; 'I' for Inactive)
REMARK    1  A    between atoms: C_1  and  C_2
REMARK    2  A    between atoms: C_14  and  C_15
REMARK    3  A    between atoms: C_19  and  C_20
REMARK    4  A    between atoms: C_21  and  O_22
REMARK    5  A    between atoms: C_21  and  C_23
REMARK    6  A    between atoms: C_23  and  C_25
REMARK    7  A    between atoms: C_25  and  O_26
REMARK                            x       y       z     vdW  Elec       q    Type
REMARK                         _______ _______ _______ _____ _____    ______ ____
ROOT
ATOM      1  C   UNL     1      10.163  16.816  16.908  0.00  0.00    +0.000 C 
ATOM      2  C   UNL     1       9.185  15.958  17.712  0.00  0.00    +0.000 C 
ATOM      3  C   UNL     1       8.430  16.549  18.884  0.00  0.00    +0.000 C 
ATOM      4  C   UNL     1       8.760  15.715  20.224  0.00  0.00    +0.000 C 
ATOM      5  C   UNL     1       8.593  14.566  21.275  0.00  0.00    +0.000 C 
ATOM      6  C   UNL     1       8.611  13.050  21.092  0.00  0.00    +0.000 C 
ATOM      7  C   UNL     1       9.070  12.386  22.393  0.00  0.00    +0.000 C 
ATOM      8  C   UNL     1       8.017  12.711  23.404  0.00  0.00    +0.000 C 
ATOM      9  C   UNL     1       7.249  11.674  23.781  0.00  0.00    +0.000 C 
ATOM     10  C   UNL     1       6.061  11.873  24.628  0.00  0.00    +0.000 C 
ATOM     11  O   UNL     1       5.343  10.914  24.885  0.00  0.00    +0.000 OA
ATOM     12  C   UNL     1       5.817  13.252  25.172  0.00  0.00    +0.000 C 
ATOM     13  C   UNL     1       6.271  14.317  24.168  0.00  0.00    +0.000 C 
ATOM     14  C   UNL     1       7.786  14.201  23.767  0.00  0.00    +0.000 C 
ATOM     15  C   UNL     1       8.634  14.546  25.006  0.00  0.00    +0.000 C 
ATOM     16  C   UNL     1       8.065  15.227  22.557  0.00  0.00    +0.000 C 
ATOM     17  C   UNL     1       9.165  16.436  22.708  0.00  0.00    +0.000 C 
ATOM     18  C   UNL     1      10.082  16.897  21.321  0.00  0.00    +0.000 C 
ATOM     19  C   UNL     1      10.307  15.749  20.041  0.00  0.00    +0.000 C 
ATOM     20  C   UNL     1      11.537  15.019  20.614  0.00  0.00    +0.000 C 
ATOM     21  C   UNL     1       9.862  14.898  18.535  0.00  0.00    +0.000 C 
ENDROOT
BRANCH  21  22
ATOM     22  O   UNL     1       8.742  13.918  18.713  0.00  0.00    +0.000 OA
ATOM     23  H   UNL     1       9.001  13.016  18.452  0.00  0.00    +0.000 HD
ENDBRANCH  21  22
BRANCH  21  24
ATOM     24  C   UNL     1      10.576  13.909  17.563  0.00  0.00    +0.000 C 
ATOM     25  O   UNL     1      10.094  12.785  17.323  0.00  0.00    +0.000 OA
BRANCH  24  26
ATOM     26  C   UNL     1      12.045  14.102  17.169  0.00  0.00    +0.000 C 
BRANCH  26  27
ATOM     27  O   UNL     1      12.327  13.260  16.035  0.00  0.00    +0.000 OA
ATOM     28  H   UNL     1      11.560  12.654  15.948  0.00  0.00    +0.000 HD
ENDBRANCH  26  27
ENDBRANCH  24  26
ENDBRANCH  21  24
TORSDOF 4
ENDMDL
MODEL 8
REMARK VINA RESULT:      -5.6      5.554      8.826
REMARK  Name = 
REMARK  7 active torsions:
REMARK  status: ('A' for Active; 'I' for Inactive)
REMARK    1  A    between atoms: C_1  and  C_2
REMARK    2  A    between atoms: C_14  and  C_15
REMARK    3  A    between atoms: C_19  and  C_20
REMARK    4  A    between atoms: C_21  and  O_22
REMARK    5  A    between atoms: C_21  and  C_23
REMARK    6  A    between atoms: C_23  and  C_25
REMARK    7  A    between atoms: C_25  and  O_26
REMARK                            x       y       z     vdW  Elec       q    Type
REMARK                         _______ _______ _______ _____ _____    ______ ____
ROOT
ATOM      1  C   UNL     1      -2.205  12.075  22.529  0.00  0.00    +0.000 C 
ATOM      2  C   UNL     1      -0.725  12.413  22.341  0.00  0.00    +0.000 C 
ATOM      3  C   UNL     1      -0.262  13.854  22.325  0.00  0.00    +0.000 C 
ATOM      4  C   UNL     1       0.480  14.175  20.931  0.00  0.00    +0.000 C 
ATOM      5  C   UNL     1       1.685  14.248  19.931  0.00  0.00    +0.000 C 
ATOM      6  C   UNL     1       2.640  13.157  19.454  0.00  0.00    +0.000 C 
ATOM      7  C   UNL     1       3.171  13.517  18.064  0.00  0.00    +0.000 C 
ATOM      8  C   UNL     1       3.965  14.770  18.248  0.00  0.00    +0.000 C 
ATOM      9  C   UNL     1       5.296  14.625  18.123  0.00  0.00    +0.000 C 
ATOM     10  C   UNL     1       6.216  15.725  18.454  0.00  0.00    +0.000 C 
ATOM     11  O   UNL     1       7.425  15.529  18.402  0.00  0.00    +0.000 OA
ATOM     12  C   UNL     1       5.614  17.058  18.800  0.00  0.00    +0.000 C 
ATOM     13  C   UNL     1       4.288  16.874  19.544  0.00  0.00    +0.000 C 
ATOM     14  C   UNL     1       3.225  16.040  18.742  0.00  0.00    +0.000 C 
ATOM     15  C   UNL     1       2.793  16.870  17.519  0.00  0.00    +0.000 C 
ATOM     16  C   UNL     1       1.980  15.741  19.721  0.00  0.00    +0.000 C 
ATOM     17  C   UNL     1       0.468  16.265  19.353  0.00  0.00    +0.000 C 
ATOM     18  C   UNL     1      -0.878  15.282  19.800  0.00  0.00    +0.000 C 
ATOM     19  C   UNL     1      -0.640  13.580  20.026  0.00  0.00    +0.000 C 
ATOM     20  C   UNL     1      -0.804  13.139  18.559  0.00  0.00    +0.000 C 
ATOM     21  C   UNL     1      -0.219  12.115  20.957  0.00  0.00    +0.000 C 
ENDROOT
BRANCH  21  22
ATOM     22  O   UNL     1       1.251  11.976  21.216  0.00  0.00    +0.000 OA
ATOM     23  H   UNL     1       1.761  11.892  20.391  0.00  0.00    +0.000 HD
ENDBRANCH  21  22
BRANCH  21  24
ATOM     24  C   UNL     1      -0.326  10.577  20.720  0.00  0.00    +0.000 C 
ATOM     25  O   UNL     1      -1.008  10.118  19.783  0.00  0.00    +0.000 OA
BRANCH  24  26
ATOM     26  C   UNL     1       0.066   9.575  21.812  0.00  0.00    +0.000 C 
BRANCH  26  27
ATOM     27  O   UNL     1       1.340   8.999  21.467  0.00  0.00    +0.000 OA
ATOM     28  H   UNL     1       1.715   9.570  20.761  0.00  0.00    +0.000 HD
ENDBRANCH  26  27
ENDBRANCH  24  26
ENDBRANCH  21  24
TORSDOF 4
ENDMDL
MODEL 9
REMARK VINA RESULT:      -5.5      9.753     12.320
REMARK  Name = 
REMARK  7 active torsions:
REMARK  status: ('A' for Active; 'I' for Inactive)
REMARK    1  A    between atoms: C_1  and  C_2
REMARK    2  A    between atoms: C_14  and  C_15
REMARK    3  A    between atoms: C_19  and  C_20
REMARK    4  A    between atoms: C_21  and  O_22
REMARK    5  A    between atoms: C_21  and  C_23
REMARK    6  A    between atoms: C_23  and  C_25
REMARK    7  A    between atoms: C_25  and  O_26
REMARK                            x       y       z     vdW  Elec       q    Type
REMARK                         _______ _______ _______ _____ _____    ______ ____
ROOT
ATOM      1  C   UNL     1      12.333  14.473  17.297  0.00  0.00    +0.000 C 
ATOM      2  C   UNL     1      11.983  14.750  18.760  0.00  0.00    +0.000 C 
ATOM      3  C   UNL     1      11.953  13.621  19.769  0.00  0.00    +0.000 C 
ATOM      4  C   UNL     1      10.491  13.528  20.441  0.00  0.00    +0.000 C 
ATOM      5  C   UNL     1       9.361  13.875  21.469  0.00  0.00    +0.000 C 
ATOM      6  C   UNL     1       8.746  15.222  21.844  0.00  0.00    +0.000 C 
ATOM      7  C   UNL     1       7.314  15.008  22.340  0.00  0.00    +0.000 C 
ATOM      8  C   UNL     1       7.438  14.199  23.591  0.00  0.00    +0.000 C 
ATOM      9  C   UNL     1       7.156  14.859  24.728  0.00  0.00    +0.000 C 
ATOM     10  C   UNL     1       7.407  14.252  26.045  0.00  0.00    +0.000 C 
ATOM     11  O   UNL     1       7.210  14.915  27.057  0.00  0.00    +0.000 OA
ATOM     12  C   UNL     1       7.856  12.818  26.077  0.00  0.00    +0.000 C 
ATOM     13  C   UNL     1       8.745  12.504  24.869  0.00  0.00    +0.000 C 
ATOM     14  C   UNL     1       8.050  12.777  23.487  0.00  0.00    +0.000 C 
ATOM     15  C   UNL     1       6.908  11.758  23.318  0.00  0.00    +0.000 C 
ATOM     16  C   UNL     1       9.157  12.618  22.328  0.00  0.00    +0.000 C 
ATOM     17  C   UNL     1       8.982  11.503  21.136  0.00  0.00    +0.000 C 
ATOM     18  C   UNL     1       9.557  11.888  19.555  0.00  0.00    +0.000 C 
ATOM     19  C   UNL     1       9.707  13.552  19.095  0.00  0.00    +0.000 C 
ATOM     20  C   UNL     1       8.258  13.782  18.626  0.00  0.00    +0.000 C 
ATOM     21  C   UNL     1      10.542  15.126  18.966  0.00  0.00    +0.000 C 
ENDROOT
BRANCH  21  22
ATOM     22  O   UNL     1      10.625  15.865  20.267  0.00  0.00    +0.000 OA
ATOM     23  H   UNL     1      10.914  15.289  20.997  0.00  0.00    +0.000 HD
ENDBRANCH  21  22
BRANCH  21  24
ATOM     24  C   UNL     1      10.278  16.468  18.217  0.00  0.00    +0.000 C 
ATOM     25  O   UNL     1       9.546  16.507  17.208  0.00  0.00    +0.000 OA
BRANCH  24  26
ATOM     26  C   UNL     1      11.175  17.692  18.435  0.00  0.00    +0.000 C 
BRANCH  26  27
ATOM     27  O   UNL     1      11.614  18.171  17.150  0.00  0.00    +0.000 OA
ATOM     28  H   UNL     1      10.954  18.842  16.869  0.00  0.00    +0.000 HD
ENDBRANCH  26  27
ENDBRANCH  24  26
ENDBRANCH  21  24
TORSDOF 4
ENDMDL
